MODEL 1
REMARK VINA RESULT:      -9.8      0.000      0.000
REMARK  Name = 44258550
REMARK  10 active torsions:
REMARK  status: ('A' for Active; 'I' for Inactive)
REMARK    1  A    between atoms: O_2  and  C_15
REMARK    2  A    between atoms: O_2  and  C_20
REMARK    3  A    between atoms: O_3  and  C_17
REMARK    4  A    between atoms: O_3  and  C_19
REMARK    5  A    between atoms: O_9  and  C_33
REMARK    6  A    between atoms: O_11  and  C_36
REMARK    7  A    between atoms: C_16  and  C_18
REMARK    8  A    between atoms: C_20  and  C_24
REMARK    9  A    between atoms: C_21  and  C_23
REMARK   10  A    between atoms: C_31  and  C_35
REMARK                            x       y       z     vdW  Elec       q    Type
REMARK                         _______ _______ _______ _____ _____    ______ ____
ROOT
ATOM      1  O   UNL     1     111.354 126.701 136.174  0.00  0.00    +0.000 OA
ENDROOT
BRANCH   1   9
ATOM      2  O   UNL     1     111.689 125.465 136.808  0.00  0.00    +0.000 OA
ATOM      3  O   UNL     1     114.095 125.987 136.555  0.00  0.00    +0.000 OA
ATOM      4  O   UNL     1     113.627 124.577 137.274  0.00  0.00    +0.000 OA
ATOM      5  C   UNL     1     113.293 125.813 136.640  0.00  0.00    +0.000 C 
ATOM      6  C   UNL     1     113.059 125.108 136.998  0.00  0.00    +0.000 C 
ATOM      7  C   UNL     1     112.725 126.344 136.364  0.00  0.00    +0.000 C 
ATOM      8  C   UNL     1     112.257 124.934 137.083  0.00  0.00    +0.000 C 
ATOM      9  C   UNL     1     111.923 126.170 136.449  0.00  0.00    +0.000 C 
BRANCH   8  11
ATOM     10  O   UNL     1     111.437 124.237 138.022  0.00  0.00    +0.000 OA
ATOM     11  C   UNL     1     112.023 124.229 137.442  0.00  0.00    +0.000 C 
ENDBRANCH   8  11
BRANCH   7  12
ATOM     12  O   UNL     1     112.958 127.049 136.006  0.00  0.00    +0.000 OA
BRANCH  12  14
ATOM     13  O   UNL     1     113.134 127.716 137.257  0.00  0.00    +0.000 OA
ATOM     14  C   UNL     1     113.312 127.643 136.455  0.00  0.00    +0.000 C 
BRANCH  14  15
ATOM     15  C   UNL     1     113.846 128.165 136.102  0.00  0.00    +0.000 C 
ATOM     16  C   UNL     1     113.687 128.975 136.094  0.00  0.00    +0.000 C 
BRANCH  16  17
ATOM     17  C   UNL     1     114.219 129.496 135.742  0.00  0.00    +0.000 A 
ATOM     18  C   UNL     1     114.505 130.144 136.166  0.00  0.00    +0.000 A 
ATOM     19  C   UNL     1     114.467 129.370 134.965  0.00  0.00    +0.000 A 
ATOM     20  C   UNL     1     115.038 130.665 135.813  0.00  0.00    +0.000 A 
ATOM     21  C   UNL     1     115.001 129.892 134.612  0.00  0.00    +0.000 A 
ATOM     22  C   UNL     1     115.286 130.539 135.037  0.00  0.00    +0.000 A 
ENDBRANCH  16  17
ENDBRANCH  14  15
ENDBRANCH  12  14
ENDBRANCH   7  12
ENDBRANCH   1   9
BRANCH   1  23
ATOM     23  C   UNL     1     110.741 126.435 135.690  0.00  0.00    +0.000 A 
ATOM     24  C   UNL     1     110.018 126.833 135.686  0.00  0.00    +0.000 A 
ATOM     25  C   UNL     1     110.851 125.773 135.212  0.00  0.00    +0.000 A 
ATOM     26  C   UNL     1     109.404 126.568 135.202  0.00  0.00    +0.000 A 
ATOM     27  C   UNL     1     110.238 125.508 134.728  0.00  0.00    +0.000 A 
ATOM     28  C   UNL     1     109.514 125.904 134.722  0.00  0.00    +0.000 A 
BRANCH  24  32
ATOM     29  O   UNL     1     110.105 128.279 135.871  0.00  0.00    +0.000 OA
ATOM     30  O   UNL     1     109.182 128.027 138.217  0.00  0.00    +0.000 OA
ATOM     31  O   UNL     1     109.277 129.458 138.381  0.00  0.00    +0.000 OA
ATOM     32  C   UNL     1     109.908 127.495 136.164  0.00  0.00    +0.000 A 
ATOM     33  C   UNL     1     109.594 127.407 136.960  0.00  0.00    +0.000 A 
ATOM     34  C   UNL     1     109.987 128.963 136.378  0.00  0.00    +0.000 A 
ATOM     35  C   UNL     1     109.686 128.878 137.141  0.00  0.00    +0.000 A 
ATOM     36  C   UNL     1     109.483 128.103 137.452  0.00  0.00    +0.000 A 
ATOM     37  C   UNL     1     110.179 129.712 136.090  0.00  0.00    +0.000 A 
ATOM     38  C   UNL     1     109.577 129.543 137.618  0.00  0.00    +0.000 A 
ATOM     39  C   UNL     1     110.070 130.377 136.567  0.00  0.00    +0.000 A 
ATOM     40  C   UNL     1     109.769 130.292 137.331  0.00  0.00    +0.000 A 
BRANCH  37  41
ATOM     41  O   UNL     1     110.480 129.798 135.327  0.00  0.00    +0.000 OA
ATOM     42  C   UNL     1     109.998 130.091 134.725  0.00  0.00    +0.000 C 
ENDBRANCH  37  41
BRANCH  39  43
ATOM     43  O   UNL     1     110.261 131.126 136.281  0.00  0.00    +0.000 OA
ATOM     44  C   UNL     1     110.441 131.736 136.807  0.00  0.00    +0.000 C 
ENDBRANCH  39  43
ENDBRANCH  24  32
ENDBRANCH   1  23
TORSDOF 10
ENDMDL
MODEL 2
REMARK VINA RESULT:      -9.6      1.990      3.783
REMARK  Name = 44258550
REMARK  10 active torsions:
REMARK  status: ('A' for Active; 'I' for Inactive)
REMARK    1  A    between atoms: O_2  and  C_15
REMARK    2  A    between atoms: O_2  and  C_20
REMARK    3  A    between atoms: O_3  and  C_17
REMARK    4  A    between atoms: O_3  and  C_19
REMARK    5  A    between atoms: O_9  and  C_33
REMARK    6  A    between atoms: O_11  and  C_36
REMARK    7  A    between atoms: C_16  and  C_18
REMARK    8  A    between atoms: C_20  and  C_24
REMARK    9  A    between atoms: C_21  and  C_23
REMARK   10  A    between atoms: C_31  and  C_35
REMARK                            x       y       z     vdW  Elec       q    Type
REMARK                         _______ _______ _______ _____ _____    ______ ____
ROOT
ATOM      1  O   UNL     1     111.697 126.556 136.689  0.00  0.00    +0.000 OA
ENDROOT
BRANCH   1   9
ATOM      2  O   UNL     1     110.323 126.769 136.362  0.00  0.00    +0.000 OA
ATOM      3  O   UNL     1     110.960 128.685 134.931  0.00  0.00    +0.000 OA
ATOM      4  O   UNL     1     109.373 128.259 135.080  0.00  0.00    +0.000 OA
ATOM      5  C   UNL     1     110.748 128.046 135.408  0.00  0.00    +0.000 C 
ATOM      6  C   UNL     1     109.955 127.834 135.482  0.00  0.00    +0.000 C 
ATOM      7  C   UNL     1     111.330 127.621 135.810  0.00  0.00    +0.000 C 
ATOM      8  C   UNL     1     109.742 127.195 135.959  0.00  0.00    +0.000 C 
ATOM      9  C   UNL     1     111.117 126.982 136.287  0.00  0.00    +0.000 C 
BRANCH   8  11
ATOM     10  O   UNL     1     108.592 126.975 136.778  0.00  0.00    +0.000 OA
ATOM     11  C   UNL     1     108.948 126.982 136.034  0.00  0.00    +0.000 C 
ENDBRANCH   8  11
BRANCH   7  12
ATOM     12  O   UNL     1     112.123 127.834 135.735  0.00  0.00    +0.000 OA
BRANCH  12  14
ATOM     13  O   UNL     1     112.064 128.828 136.760  0.00  0.00    +0.000 OA
ATOM     14  C   UNL     1     112.391 128.544 136.058  0.00  0.00    +0.000 C 
BRANCH  14  15
ATOM     15  C   UNL     1     112.987 128.971 135.679  0.00  0.00    +0.000 C 
ATOM     16  C   UNL     1     113.705 129.107 136.062  0.00  0.00    +0.000 C 
BRANCH  16  17
ATOM     17  C   UNL     1     114.300 129.533 135.683  0.00  0.00    +0.000 A 
ATOM     18  C   UNL     1     114.555 130.254 135.994  0.00  0.00    +0.000 A 
ATOM     19  C   UNL     1     114.642 129.239 134.992  0.00  0.00    +0.000 A 
ATOM     20  C   UNL     1     115.150 130.680 135.615  0.00  0.00    +0.000 A 
ATOM     21  C   UNL     1     115.238 129.666 134.612  0.00  0.00    +0.000 A 
ATOM     22  C   UNL     1     115.492 130.386 134.924  0.00  0.00    +0.000 A 
ENDBRANCH  16  17
ENDBRANCH  14  15
ENDBRANCH  12  14
ENDBRANCH   7  12
ENDBRANCH   1   9
BRANCH   1  23
ATOM     23  C   UNL     1     111.711 125.733 136.645  0.00  0.00    +0.000 A 
ATOM     24  C   UNL     1     112.006 125.291 137.276  0.00  0.00    +0.000 A 
ATOM     25  C   UNL     1     111.428 125.352 135.971  0.00  0.00    +0.000 A 
ATOM     26  C   UNL     1     112.019 124.467 137.232  0.00  0.00    +0.000 A 
ATOM     27  C   UNL     1     111.441 124.528 135.927  0.00  0.00    +0.000 A 
ATOM     28  C   UNL     1     111.737 124.085 136.557  0.00  0.00    +0.000 A 
BRANCH  24  32
ATOM     29  O   UNL     1     111.749 125.887 138.584  0.00  0.00    +0.000 OA
ATOM     30  O   UNL     1     114.212 126.435 138.811  0.00  0.00    +0.000 OA
ATOM     31  O   UNL     1     113.938 127.020 140.102  0.00  0.00    +0.000 OA
ATOM     32  C   UNL     1     112.289 125.672 137.951  0.00  0.00    +0.000 A 
ATOM     33  C   UNL     1     113.125 125.857 138.025  0.00  0.00    +0.000 A 
ATOM     34  C   UNL     1     112.054 126.284 139.283  0.00  0.00    +0.000 A 
ATOM     35  C   UNL     1     112.856 126.461 139.354  0.00  0.00    +0.000 A 
ATOM     36  C   UNL     1     113.411 126.254 138.732  0.00  0.00    +0.000 A 
ATOM     37  C   UNL     1     111.530 126.488 139.888  0.00  0.00    +0.000 A 
ATOM     38  C   UNL     1     113.135 126.843 140.031  0.00  0.00    +0.000 A 
ATOM     39  C   UNL     1     111.810 126.870 140.564  0.00  0.00    +0.000 A 
ATOM     40  C   UNL     1     112.613 127.047 140.635  0.00  0.00    +0.000 A 
BRANCH  37  41
ATOM     41  O   UNL     1     110.728 126.311 139.817  0.00  0.00    +0.000 OA
ATOM     42  C   UNL     1     110.171 126.920 139.793  0.00  0.00    +0.000 C 
ENDBRANCH  37  41
BRANCH  39  43
ATOM     43  O   UNL     1     111.288 127.074 141.168  0.00  0.00    +0.000 OA
ATOM     44  C   UNL     1     111.571 127.434 141.855  0.00  0.00    +0.000 C 
ENDBRANCH  39  43
ENDBRANCH  24  32
ENDBRANCH   1  23
TORSDOF 10
ENDMDL
MODEL 3
REMARK VINA RESULT:      -9.4      3.045      5.088
REMARK  Name = 44258550
REMARK  10 active torsions:
REMARK  status: ('A' for Active; 'I' for Inactive)
REMARK    1  A    between atoms: O_2  and  C_15
REMARK    2  A    between atoms: O_2  and  C_20
REMARK    3  A    between atoms: O_3  and  C_17
REMARK    4  A    between atoms: O_3  and  C_19
REMARK    5  A    between atoms: O_9  and  C_33
REMARK    6  A    between atoms: O_11  and  C_36
REMARK    7  A    between atoms: C_16  and  C_18
REMARK    8  A    between atoms: C_20  and  C_24
REMARK    9  A    between atoms: C_21  and  C_23
REMARK   10  A    between atoms: C_31  and  C_35
REMARK                            x       y       z     vdW  Elec       q    Type
REMARK                         _______ _______ _______ _____ _____    ______ ____
ROOT
ATOM      1  O   UNL     1     113.148 128.954 139.819  0.00  0.00    +0.000 OA
ENDROOT
BRANCH   1   9
ATOM      2  O   UNL     1     112.347 128.994 141.002  0.00  0.00    +0.000 OA
ATOM      3  O   UNL     1     112.320 126.520 141.066  0.00  0.00    +0.000 OA
ATOM      4  O   UNL     1     111.528 127.384 142.228  0.00  0.00    +0.000 OA
ATOM      5  C   UNL     1     112.329 127.344 141.045  0.00  0.00    +0.000 C 
ATOM      6  C   UNL     1     111.933 127.776 141.625  0.00  0.00    +0.000 C 
ATOM      7  C   UNL     1     112.734 127.736 140.442  0.00  0.00    +0.000 C 
ATOM      8  C   UNL     1     111.943 128.601 141.604  0.00  0.00    +0.000 C 
ATOM      9  C   UNL     1     112.743 128.561 140.421  0.00  0.00    +0.000 C 
BRANCH   8  11
ATOM     10  O   UNL     1     111.042 129.649 141.968  0.00  0.00    +0.000 OA
ATOM     11  C   UNL     1     111.547 129.033 142.185  0.00  0.00    +0.000 C 
ENDBRANCH   8  11
BRANCH   7  12
ATOM     12  O   UNL     1     113.130 127.305 139.862  0.00  0.00    +0.000 OA
BRANCH  12  14
ATOM     13  O   UNL     1     111.926 127.102 139.118  0.00  0.00    +0.000 OA
ATOM     14  C   UNL     1     112.700 126.882 139.298  0.00  0.00    +0.000 C 
BRANCH  14  15
ATOM     15  C   UNL     1     113.046 126.237 138.914  0.00  0.00    +0.000 C 
ATOM     16  C   UNL     1     113.110 126.233 138.092  0.00  0.00    +0.000 C 
BRANCH  16  17
ATOM     17  C   UNL     1     113.455 125.590 137.709  0.00  0.00    +0.000 A 
ATOM     18  C   UNL     1     112.980 125.030 137.332  0.00  0.00    +0.000 A 
ATOM     19  C   UNL     1     114.275 125.505 137.702  0.00  0.00    +0.000 A 
ATOM     20  C   UNL     1     113.324 124.386 136.949  0.00  0.00    +0.000 A 
ATOM     21  C   UNL     1     114.621 124.861 137.318  0.00  0.00    +0.000 A 
ATOM     22  C   UNL     1     114.145 124.302 136.942  0.00  0.00    +0.000 A 
ENDBRANCH  16  17
ENDBRANCH  14  15
ENDBRANCH  12  14
ENDBRANCH   7  12
ENDBRANCH   1   9
BRANCH   1  23
ATOM     23  C   UNL     1     113.711 129.528 140.006  0.00  0.00    +0.000 A 
ATOM     24  C   UNL     1     113.847 130.156 139.488  0.00  0.00    +0.000 A 
ATOM     25  C   UNL     1     114.136 129.473 140.710  0.00  0.00    +0.000 A 
ATOM     26  C   UNL     1     114.410 130.729 139.675  0.00  0.00    +0.000 A 
ATOM     27  C   UNL     1     114.699 130.047 140.897  0.00  0.00    +0.000 A 
ATOM     28  C   UNL     1     114.836 130.675 140.380  0.00  0.00    +0.000 A 
BRANCH  24  32
ATOM     29  O   UNL     1     112.678 130.640 138.761  0.00  0.00    +0.000 OA
ATOM     30  O   UNL     1     113.546 129.542 136.649  0.00  0.00    +0.000 OA
ATOM     31  O   UNL     1     112.383 130.031 135.947  0.00  0.00    +0.000 OA
ATOM     32  C   UNL     1     113.421 130.210 138.784  0.00  0.00    +0.000 A 
ATOM     33  C   UNL     1     113.718 129.836 138.069  0.00  0.00    +0.000 A 
ATOM     34  C   UNL     1     112.242 130.691 138.022  0.00  0.00    +0.000 A 
ATOM     35  C   UNL     1     112.527 130.333 137.336  0.00  0.00    +0.000 A 
ATOM     36  C   UNL     1     113.268 129.898 137.340  0.00  0.00    +0.000 A 
ATOM     37  C   UNL     1     111.528 131.106 138.005  0.00  0.00    +0.000 A 
ATOM     38  C   UNL     1     112.098 130.389 136.633  0.00  0.00    +0.000 A 
ATOM     39  C   UNL     1     111.100 131.162 137.302  0.00  0.00    +0.000 A 
ATOM     40  C   UNL     1     111.385 130.803 136.616  0.00  0.00    +0.000 A 
BRANCH  37  41
ATOM     41  O   UNL     1     111.243 131.465 138.691  0.00  0.00    +0.000 OA
ATOM     42  C   UNL     1     110.535 131.207 139.028  0.00  0.00    +0.000 C 
ENDBRANCH  37  41
BRANCH  39  43
ATOM     43  O   UNL     1     110.387 131.577 137.285  0.00  0.00    +0.000 OA
ATOM     44  C   UNL     1     110.068 131.818 136.564  0.00  0.00    +0.000 C 
ENDBRANCH  39  43
ENDBRANCH  24  32
ENDBRANCH   1  23
TORSDOF 10
ENDMDL
MODEL 4
REMARK VINA RESULT:      -9.3      3.128      5.504
REMARK  Name = 44258550
REMARK  10 active torsions:
REMARK  status: ('A' for Active; 'I' for Inactive)
REMARK    1  A    between atoms: O_2  and  C_15
REMARK    2  A    between atoms: O_2  and  C_20
REMARK    3  A    between atoms: O_3  and  C_17
REMARK    4  A    between atoms: O_3  and  C_19
REMARK    5  A    between atoms: O_9  and  C_33
REMARK    6  A    between atoms: O_11  and  C_36
REMARK    7  A    between atoms: C_16  and  C_18
REMARK    8  A    between atoms: C_20  and  C_24
REMARK    9  A    between atoms: C_21  and  C_23
REMARK   10  A    between atoms: C_31  and  C_35
REMARK                            x       y       z     vdW  Elec       q    Type
REMARK                         _______ _______ _______ _____ _____    ______ ____
ROOT
ATOM      1  O   UNL     1     113.157 129.221 138.973  0.00  0.00    +0.000 OA
ENDROOT
BRANCH   1   9
ATOM      2  O   UNL     1     112.431 130.316 138.411  0.00  0.00    +0.000 OA
ATOM      3  O   UNL     1     112.710 129.343 136.153  0.00  0.00    +0.000 OA
ATOM      4  O   UNL     1     111.891 130.762 136.344  0.00  0.00    +0.000 OA
ATOM      5  C   UNL     1     112.617 129.667 136.905  0.00  0.00    +0.000 C 
ATOM      6  C   UNL     1     112.208 130.376 137.001  0.00  0.00    +0.000 C 
ATOM      7  C   UNL     1     112.934 129.281 137.562  0.00  0.00    +0.000 C 
ATOM      8  C   UNL     1     112.115 130.701 137.754  0.00  0.00    +0.000 C 
ATOM      9  C   UNL     1     112.841 129.605 138.315  0.00  0.00    +0.000 C 
BRANCH   8  11
ATOM     10  O   UNL     1     111.172 131.498 138.474  0.00  0.00    +0.000 OA
ATOM     11  C   UNL     1     111.705 131.411 137.850  0.00  0.00    +0.000 C 
ENDBRANCH   8  11
BRANCH   7  12
ATOM     12  O   UNL     1     113.343 128.572 137.467  0.00  0.00    +0.000 OA
BRANCH  12  14
ATOM     13  O   UNL     1     112.105 127.865 137.366  0.00  0.00    +0.000 OA
ATOM     14  C   UNL     1     112.929 127.873 137.323  0.00  0.00    +0.000 C 
BRANCH  14  15
ATOM     15  C   UNL     1     113.339 127.181 137.136  0.00  0.00    +0.000 C 
ATOM     16  C   UNL     1     113.104 126.461 137.464  0.00  0.00    +0.000 C 
BRANCH  16  17
ATOM     17  C   UNL     1     113.513 125.770 137.277  0.00  0.00    +0.000 A 
ATOM     18  C   UNL     1     114.224 125.595 137.658  0.00  0.00    +0.000 A 
ATOM     19  C   UNL     1     113.213 125.253 136.709  0.00  0.00    +0.000 A 
ATOM     20  C   UNL     1     114.634 124.905 137.472  0.00  0.00    +0.000 A 
ATOM     21  C   UNL     1     113.623 124.562 136.522  0.00  0.00    +0.000 A 
ATOM     22  C   UNL     1     114.333 124.388 136.904  0.00  0.00    +0.000 A 
ENDBRANCH  16  17
ENDBRANCH  14  15
ENDBRANCH  12  14
ENDBRANCH   7  12
ENDBRANCH   1   9
BRANCH   1  23
ATOM     23  C   UNL     1     113.620 129.638 139.513  0.00  0.00    +0.000 A 
ATOM     24  C   UNL     1     113.605 129.435 140.312  0.00  0.00    +0.000 A 
ATOM     25  C   UNL     1     114.098 130.258 139.253  0.00  0.00    +0.000 A 
ATOM     26  C   UNL     1     114.068 129.853 140.853  0.00  0.00    +0.000 A 
ATOM     27  C   UNL     1     114.561 130.676 139.793  0.00  0.00    +0.000 A 
ATOM     28  C   UNL     1     114.546 130.474 140.593  0.00  0.00    +0.000 A 
BRANCH  24  32
ATOM     29  O   UNL     1     112.297 128.953 140.746  0.00  0.00    +0.000 OA
ATOM     30  O   UNL     1     113.259 126.628 141.038  0.00  0.00    +0.000 OA
ATOM     31  O   UNL     1     111.958 126.169 141.464  0.00  0.00    +0.000 OA
ATOM     32  C   UNL     1     113.127 128.815 140.572  0.00  0.00    +0.000 A 
ATOM     33  C   UNL     1     113.456 128.027 140.670  0.00  0.00    +0.000 A 
ATOM     34  C   UNL     1     111.807 128.300 141.016  0.00  0.00    +0.000 A 
ATOM     35  C   UNL     1     112.123 127.544 141.110  0.00  0.00    +0.000 A 
ATOM     36  C   UNL     1     112.951 127.387 140.941  0.00  0.00    +0.000 A 
ATOM     37  C   UNL     1     111.010 128.438 141.182  0.00  0.00    +0.000 A 
ATOM     38  C   UNL     1     111.642 126.926 141.370  0.00  0.00    +0.000 A 
ATOM     39  C   UNL     1     110.530 127.820 141.442  0.00  0.00    +0.000 A 
ATOM     40  C   UNL     1     110.846 127.063 141.536  0.00  0.00    +0.000 A 
BRANCH  37  41
ATOM     41  O   UNL     1     110.694 129.194 141.088  0.00  0.00    +0.000 OA
ATOM     42  C   UNL     1     110.499 129.645 141.751  0.00  0.00    +0.000 C 
ENDBRANCH  37  41
BRANCH  39  43
ATOM     43  O   UNL     1     109.734 127.957 141.607  0.00  0.00    +0.000 OA
ATOM     44  C   UNL     1     109.198 127.330 141.609  0.00  0.00    +0.000 C 
ENDBRANCH  39  43
ENDBRANCH  24  32
ENDBRANCH   1  23
TORSDOF 10
ENDMDL
MODEL 5
REMARK VINA RESULT:      -9.3      1.235      1.945
REMARK  Name = 44258550
REMARK  10 active torsions:
REMARK  status: ('A' for Active; 'I' for Inactive)
REMARK    1  A    between atoms: O_2  and  C_15
REMARK    2  A    between atoms: O_2  and  C_20
REMARK    3  A    between atoms: O_3  and  C_17
REMARK    4  A    between atoms: O_3  and  C_19
REMARK    5  A    between atoms: O_9  and  C_33
REMARK    6  A    between atoms: O_11  and  C_36
REMARK    7  A    between atoms: C_16  and  C_18
REMARK    8  A    between atoms: C_20  and  C_24
REMARK    9  A    between atoms: C_21  and  C_23
REMARK   10  A    between atoms: C_31  and  C_35
REMARK                            x       y       z     vdW  Elec       q    Type
REMARK                         _______ _______ _______ _____ _____    ______ ____
ROOT
ATOM      1  O   UNL     1     111.753 126.831 137.503  0.00  0.00    +0.000 OA
ENDROOT
BRANCH   1   9
ATOM      2  O   UNL     1     112.059 125.460 137.241  0.00  0.00    +0.000 OA
ATOM      3  O   UNL     1     114.268 126.125 136.344  0.00  0.00    +0.000 OA
ATOM      4  O   UNL     1     113.838 124.532 136.381  0.00  0.00    +0.000 OA
ATOM      5  C   UNL     1     113.532 125.903 136.643  0.00  0.00    +0.000 C 
ATOM      6  C   UNL     1     113.317 125.108 136.662  0.00  0.00    +0.000 C 
ATOM      7  C   UNL     1     113.011 126.479 136.923  0.00  0.00    +0.000 C 
ATOM      8  C   UNL     1     112.581 124.886 136.961  0.00  0.00    +0.000 C 
ATOM      9  C   UNL     1     112.275 126.257 137.223  0.00  0.00    +0.000 C 
BRANCH   8  11
ATOM     10  O   UNL     1     111.617 123.859 136.722  0.00  0.00    +0.000 OA
ATOM     11  C   UNL     1     112.366 124.089 136.980  0.00  0.00    +0.000 C 
ENDBRANCH   8  11
BRANCH   7  12
ATOM     12  O   UNL     1     113.226 127.274 136.905  0.00  0.00    +0.000 OA
BRANCH  12  14
ATOM     13  O   UNL     1     112.753 127.473 135.571  0.00  0.00    +0.000 OA
ATOM     14  C   UNL     1     113.267 127.673 136.184  0.00  0.00    +0.000 C 
BRANCH  14  15
ATOM     15  C   UNL     1     113.823 128.274 136.076  0.00  0.00    +0.000 C 
ATOM     16  C   UNL     1     113.607 128.973 135.694  0.00  0.00    +0.000 C 
BRANCH  16  17
ATOM     17  C   UNL     1     114.162 129.572 135.586  0.00  0.00    +0.000 A 
ATOM     18  C   UNL     1     114.230 130.178 136.142  0.00  0.00    +0.000 A 
ATOM     19  C   UNL     1     114.651 129.567 134.921  0.00  0.00    +0.000 A 
ATOM     20  C   UNL     1     114.785 130.778 136.034  0.00  0.00    +0.000 A 
ATOM     21  C   UNL     1     115.207 130.167 134.813  0.00  0.00    +0.000 A 
ATOM     22  C   UNL     1     115.274 130.772 135.370  0.00  0.00    +0.000 A 
ENDBRANCH  16  17
ENDBRANCH  14  15
ENDBRANCH  12  14
ENDBRANCH   7  12
ENDBRANCH   1   9
BRANCH   1  23
ATOM     23  C   UNL     1     111.481 126.797 138.281  0.00  0.00    +0.000 A 
ATOM     24  C   UNL     1     110.742 127.112 138.473  0.00  0.00    +0.000 A 
ATOM     25  C   UNL     1     111.946 126.450 138.866  0.00  0.00    +0.000 A 
ATOM     26  C   UNL     1     110.470 127.077 139.251  0.00  0.00    +0.000 A 
ATOM     27  C   UNL     1     111.674 126.416 139.644  0.00  0.00    +0.000 A 
ATOM     28  C   UNL     1     110.936 126.729 139.837  0.00  0.00    +0.000 A 
BRANCH  24  32
ATOM     29  O   UNL     1     110.407 128.278 137.661  0.00  0.00    +0.000 OA
ATOM     30  O   UNL     1     108.580 126.948 136.517  0.00  0.00    +0.000 OA
ATOM     31  O   UNL     1     108.263 128.111 135.724  0.00  0.00    +0.000 OA
ATOM     32  C   UNL     1     110.277 127.459 137.888  0.00  0.00    +0.000 A 
ATOM     33  C   UNL     1     109.657 127.006 137.501  0.00  0.00    +0.000 A 
ATOM     34  C   UNL     1     109.916 128.631 137.050  0.00  0.00    +0.000 A 
ATOM     35  C   UNL     1     109.322 128.195 136.680  0.00  0.00    +0.000 A 
ATOM     36  C   UNL     1     109.177 127.376 136.893  0.00  0.00    +0.000 A 
ATOM     37  C   UNL     1     110.047 129.418 136.837  0.00  0.00    +0.000 A 
ATOM     38  C   UNL     1     108.858 128.547 136.095  0.00  0.00    +0.000 A 
ATOM     39  C   UNL     1     109.582 129.768 136.252  0.00  0.00    +0.000 A 
ATOM     40  C   UNL     1     108.988 129.332 135.881  0.00  0.00    +0.000 A 
BRANCH  37  41
ATOM     41  O   UNL     1     110.641 129.853 137.208  0.00  0.00    +0.000 OA
ATOM     42  C   UNL     1     110.443 130.444 137.749  0.00  0.00    +0.000 C 
ENDBRANCH  37  41
BRANCH  39  43
ATOM     43  O   UNL     1     109.712 130.554 136.038  0.00  0.00    +0.000 OA
ATOM     44  C   UNL     1     109.398 130.847 135.333  0.00  0.00    +0.000 C 
ENDBRANCH  39  43
ENDBRANCH  24  32
ENDBRANCH   1  23
TORSDOF 10
ENDMDL
MODEL 6
REMARK VINA RESULT:      -9.2      2.641      4.604
REMARK  Name = 44258550
REMARK  10 active torsions:
REMARK  status: ('A' for Active; 'I' for Inactive)
REMARK    1  A    between atoms: O_2  and  C_15
REMARK    2  A    between atoms: O_2  and  C_20
REMARK    3  A    between atoms: O_3  and  C_17
REMARK    4  A    between atoms: O_3  and  C_19
REMARK    5  A    between atoms: O_9  and  C_33
REMARK    6  A    between atoms: O_11  and  C_36
REMARK    7  A    between atoms: C_16  and  C_18
REMARK    8  A    between atoms: C_20  and  C_24
REMARK    9  A    between atoms: C_21  and  C_23
REMARK   10  A    between atoms: C_31  and  C_35
REMARK                            x       y       z     vdW  Elec       q    Type
REMARK                         _______ _______ _______ _____ _____    ______ ____
ROOT
ATOM      1  O   UNL     1     111.505 128.556 139.372  0.00  0.00    +0.000 OA
ENDROOT
BRANCH   1   9
ATOM      2  O   UNL     1     111.323 128.618 140.788  0.00  0.00    +0.000 OA
ATOM      3  O   UNL     1     111.992 126.242 140.977  0.00  0.00    +0.000 OA
ATOM      4  O   UNL     1     111.587 127.095 142.331  0.00  0.00    +0.000 OA
ATOM      5  C   UNL     1     111.769 127.034 140.914  0.00  0.00    +0.000 C 
ATOM      6  C   UNL     1     111.567 127.460 141.591  0.00  0.00    +0.000 C 
ATOM      7  C   UNL     1     111.749 127.399 140.175  0.00  0.00    +0.000 C 
ATOM      8  C   UNL     1     111.344 128.252 141.528  0.00  0.00    +0.000 C 
ATOM      9  C   UNL     1     111.526 128.190 140.112  0.00  0.00    +0.000 C 
BRANCH   8  11
ATOM     10  O   UNL     1     111.542 129.376 142.387  0.00  0.00    +0.000 OA
ATOM     11  C   UNL     1     111.141 128.679 142.205  0.00  0.00    +0.000 C 
ENDBRANCH   8  11
BRANCH   7  12
ATOM     12  O   UNL     1     111.951 126.972 139.498  0.00  0.00    +0.000 OA
BRANCH  12  14
ATOM     13  O   UNL     1     113.341 127.146 139.782  0.00  0.00    +0.000 OA
ATOM     14  C   UNL     1     112.739 126.777 139.355  0.00  0.00    +0.000 C 
BRANCH  14  15
ATOM     15  C   UNL     1     112.927 126.212 138.783  0.00  0.00    +0.000 C 
ATOM     16  C   UNL     1     113.596 126.310 138.310  0.00  0.00    +0.000 C 
BRANCH  16  17
ATOM     17  C   UNL     1     113.784 125.745 137.740  0.00  0.00    +0.000 A 
ATOM     18  C   UNL     1     113.292 125.639 137.085  0.00  0.00    +0.000 A 
ATOM     19  C   UNL     1     114.463 125.285 137.822  0.00  0.00    +0.000 A 
ATOM     20  C   UNL     1     113.479 125.075 136.515  0.00  0.00    +0.000 A 
ATOM     21  C   UNL     1     114.651 124.719 137.251  0.00  0.00    +0.000 A 
ATOM     22  C   UNL     1     114.159 124.614 136.598  0.00  0.00    +0.000 A 
ENDBRANCH  16  17
ENDBRANCH  14  15
ENDBRANCH  12  14
ENDBRANCH   7  12
ENDBRANCH   1   9
BRANCH   1  23
ATOM     23  C   UNL     1     110.839 128.984 139.142  0.00  0.00    +0.000 A 
ATOM     24  C   UNL     1     110.907 129.579 138.574  0.00  0.00    +0.000 A 
ATOM     25  C   UNL     1     110.105 128.817 139.479  0.00  0.00    +0.000 A 
ATOM     26  C   UNL     1     110.241 130.007 138.344  0.00  0.00    +0.000 A 
ATOM     27  C   UNL     1     109.438 129.245 139.248  0.00  0.00    +0.000 A 
ATOM     28  C   UNL     1     109.506 129.840 138.681  0.00  0.00    +0.000 A 
BRANCH  24  32
ATOM     29  O   UNL     1     111.874 129.371 137.500  0.00  0.00    +0.000 OA
ATOM     30  O   UNL     1     113.462 130.992 138.625  0.00  0.00    +0.000 OA
ATOM     31  O   UNL     1     114.405 130.773 137.554  0.00  0.00    +0.000 OA
ATOM     32  C   UNL     1     111.641 129.746 138.237  0.00  0.00    +0.000 A 
ATOM     33  C   UNL     1     112.178 130.297 138.621  0.00  0.00    +0.000 A 
ATOM     34  C   UNL     1     112.641 129.552 137.157  0.00  0.00    +0.000 A 
ATOM     35  C   UNL     1     113.156 130.080 137.526  0.00  0.00    +0.000 A 
ATOM     36  C   UNL     1     112.941 130.465 138.263  0.00  0.00    +0.000 A 
ATOM     37  C   UNL     1     112.859 129.188 136.449  0.00  0.00    +0.000 A 
ATOM     38  C   UNL     1     113.890 130.245 137.186  0.00  0.00    +0.000 A 
ATOM     39  C   UNL     1     113.593 129.353 136.110  0.00  0.00    +0.000 A 
ATOM     40  C   UNL     1     114.108 129.882 136.478  0.00  0.00    +0.000 A 
BRANCH  37  41
ATOM     41  O   UNL     1     112.344 128.660 136.080  0.00  0.00    +0.000 OA
ATOM     42  C   UNL     1     111.972 128.871 135.374  0.00  0.00    +0.000 C 
ENDBRANCH  37  41
BRANCH  39  43
ATOM     43  O   UNL     1     113.811 128.990 135.402  0.00  0.00    +0.000 OA
ATOM     44  C   UNL     1     114.604 128.972 135.175  0.00  0.00    +0.000 C 
ENDBRANCH  39  43
ENDBRANCH  24  32
ENDBRANCH   1  23
TORSDOF 10
ENDMDL
MODEL 7
REMARK VINA RESULT:      -9.0      2.847      4.199
REMARK  Name = 44258550
REMARK  10 active torsions:
REMARK  status: ('A' for Active; 'I' for Inactive)
REMARK    1  A    between atoms: O_2  and  C_15
REMARK    2  A    between atoms: O_2  and  C_20
REMARK    3  A    between atoms: O_3  and  C_17
REMARK    4  A    between atoms: O_3  and  C_19
REMARK    5  A    between atoms: O_9  and  C_33
REMARK    6  A    between atoms: O_11  and  C_36
REMARK    7  A    between atoms: C_16  and  C_18
REMARK    8  A    between atoms: C_20  and  C_24
REMARK    9  A    between atoms: C_21  and  C_23
REMARK   10  A    between atoms: C_31  and  C_35
REMARK                            x       y       z     vdW  Elec       q    Type
REMARK                         _______ _______ _______ _____ _____    ______ ____
ROOT
ATOM      1  O   UNL     1     112.678 128.901 139.515  0.00  0.00    +0.000 OA
ENDROOT
BRANCH   1   9
ATOM      2  O   UNL     1     112.783 129.630 140.740  0.00  0.00    +0.000 OA
ATOM      3  O   UNL     1     114.654 130.947 139.795  0.00  0.00    +0.000 OA
ATOM      4  O   UNL     1     114.135 131.237 141.335  0.00  0.00    +0.000 OA
ATOM      5  C   UNL     1     114.030 130.508 140.110  0.00  0.00    +0.000 C 
ATOM      6  C   UNL     1     113.771 130.653 140.879  0.00  0.00    +0.000 C 
ATOM      7  C   UNL     1     113.666 129.924 139.655  0.00  0.00    +0.000 C 
ATOM      8  C   UNL     1     113.147 130.215 141.194  0.00  0.00    +0.000 C 
ATOM      9  C   UNL     1     113.042 129.485 139.970  0.00  0.00    +0.000 C 
BRANCH   8  11
ATOM     10  O   UNL     1     112.083 130.455 142.116  0.00  0.00    +0.000 OA
ATOM     11  C   UNL     1     112.888 130.360 141.964  0.00  0.00    +0.000 C 
ENDBRANCH   8  11
BRANCH   7  12
ATOM     12  O   UNL     1     113.925 129.779 138.886  0.00  0.00    +0.000 OA
BRANCH  12  14
ATOM     13  O   UNL     1     113.169 130.880 138.378  0.00  0.00    +0.000 OA
ATOM     14  C   UNL     1     113.777 130.330 138.290  0.00  0.00    +0.000 C 
BRANCH  14  15
ATOM     15  C   UNL     1     114.238 130.331 137.604  0.00  0.00    +0.000 C 
ATOM     16  C   UNL     1     113.877 130.394 136.865  0.00  0.00    +0.000 C 
BRANCH  16  17
ATOM     17  C   UNL     1     114.337 130.394 136.181  0.00  0.00    +0.000 A 
ATOM     18  C   UNL     1     114.773 131.065 135.977  0.00  0.00    +0.000 A 
ATOM     19  C   UNL     1     114.362 129.725 135.700  0.00  0.00    +0.000 A 
ATOM     20  C   UNL     1     115.233 131.065 135.293  0.00  0.00    +0.000 A 
ATOM     21  C   UNL     1     114.822 129.725 135.015  0.00  0.00    +0.000 A 
ATOM     22  C   UNL     1     115.258 130.396 134.812  0.00  0.00    +0.000 A 
ENDBRANCH  16  17
ENDBRANCH  14  15
ENDBRANCH  12  14
ENDBRANCH   7  12
ENDBRANCH   1   9
BRANCH   1  23
ATOM     23  C   UNL     1     112.611 128.132 139.807  0.00  0.00    +0.000 A 
ATOM     24  C   UNL     1     111.993 127.648 139.555  0.00  0.00    +0.000 A 
ATOM     25  C   UNL     1     113.163 127.849 140.350  0.00  0.00    +0.000 A 
ATOM     26  C   UNL     1     111.926 126.879 139.847  0.00  0.00    +0.000 A 
ATOM     27  C   UNL     1     113.096 127.080 140.642  0.00  0.00    +0.000 A 
ATOM     28  C   UNL     1     112.478 126.595 140.391  0.00  0.00    +0.000 A 
BRANCH  24  32
ATOM     29  O   UNL     1     111.587 127.858 138.168  0.00  0.00    +0.000 OA
ATOM     30  O   UNL     1     109.448 128.955 138.966  0.00  0.00    +0.000 OA
ATOM     31  O   UNL     1     109.065 129.153 137.589  0.00  0.00    +0.000 OA
ATOM     32  C   UNL     1     111.441 127.932 139.012  0.00  0.00    +0.000 A 
ATOM     33  C   UNL     1     110.716 128.304 139.285  0.00  0.00    +0.000 A 
ATOM     34  C   UNL     1     111.006 128.157 137.610  0.00  0.00    +0.000 A 
ATOM     35  C   UNL     1     110.310 128.514 137.873  0.00  0.00    +0.000 A 
ATOM     36  C   UNL     1     110.147 128.596 138.712  0.00  0.00    +0.000 A 
ATOM     37  C   UNL     1     111.152 128.083 136.801  0.00  0.00    +0.000 A 
ATOM     38  C   UNL     1     109.760 128.796 137.326  0.00  0.00    +0.000 A 
ATOM     39  C   UNL     1     110.602 128.366 136.255  0.00  0.00    +0.000 A 
ATOM     40  C   UNL     1     109.906 128.722 136.518  0.00  0.00    +0.000 A 
BRANCH  37  41
ATOM     41  O   UNL     1     111.848 127.726 136.538  0.00  0.00    +0.000 OA
ATOM     42  C   UNL     1     111.822 126.977 136.192  0.00  0.00    +0.000 C 
ENDBRANCH  37  41
BRANCH  39  43
ATOM     43  O   UNL     1     110.747 128.292 135.447  0.00  0.00    +0.000 OA
ATOM     44  C   UNL     1     110.332 128.759 134.908  0.00  0.00    +0.000 C 
ENDBRANCH  39  43
ENDBRANCH  24  32
ENDBRANCH   1  23
TORSDOF 10
ENDMDL
MODEL 8
REMARK VINA RESULT:      -9.0      2.805      4.487
REMARK  Name = 44258550
REMARK  10 active torsions:
REMARK  status: ('A' for Active; 'I' for Inactive)
REMARK    1  A    between atoms: O_2  and  C_15
REMARK    2  A    between atoms: O_2  and  C_20
REMARK    3  A    between atoms: O_3  and  C_17
REMARK    4  A    between atoms: O_3  and  C_19
REMARK    5  A    between atoms: O_9  and  C_33
REMARK    6  A    between atoms: O_11  and  C_36
REMARK    7  A    between atoms: C_16  and  C_18
REMARK    8  A    between atoms: C_20  and  C_24
REMARK    9  A    between atoms: C_21  and  C_23
REMARK   10  A    between atoms: C_31  and  C_35
REMARK                            x       y       z     vdW  Elec       q    Type
REMARK                         _______ _______ _______ _____ _____    ______ ____
ROOT
ATOM      1  O   UNL     1     113.219 127.414 137.480  0.00  0.00    +0.000 OA
ENDROOT
BRANCH   1   9
ATOM      2  O   UNL     1     112.309 127.379 136.378  0.00  0.00    +0.000 OA
ATOM      3  O   UNL     1     112.722 129.784 135.962  0.00  0.00    +0.000 OA
ATOM      4  O   UNL     1     111.675 128.948 134.999  0.00  0.00    +0.000 OA
ATOM      5  C   UNL     1     112.585 128.982 136.100  0.00  0.00    +0.000 C 
ATOM      6  C   UNL     1     112.062 128.565 135.619  0.00  0.00    +0.000 C 
ATOM      7  C   UNL     1     112.971 128.599 136.721  0.00  0.00    +0.000 C 
ATOM      8  C   UNL     1     111.924 127.763 135.758  0.00  0.00    +0.000 C 
ATOM      9  C   UNL     1     112.833 127.798 136.860  0.00  0.00    +0.000 C 
BRANCH   8  11
ATOM     10  O   UNL     1     110.821 126.866 135.616  0.00  0.00    +0.000 OA
ATOM     11  C   UNL     1     111.400 127.345 135.276  0.00  0.00    +0.000 C 
ENDBRANCH   8  11
BRANCH   7  12
ATOM     12  O   UNL     1     113.494 129.017 137.202  0.00  0.00    +0.000 OA
BRANCH  12  14
ATOM     13  O   UNL     1     112.443 129.840 137.711  0.00  0.00    +0.000 OA
ATOM     14  C   UNL     1     113.204 129.529 137.780  0.00  0.00    +0.000 C 
BRANCH  14  15
ATOM     15  C   UNL     1     113.674 129.730 138.428  0.00  0.00    +0.000 C 
ATOM     16  C   UNL     1     113.356 130.172 139.048  0.00  0.00    +0.000 C 
BRANCH  16  17
ATOM     17  C   UNL     1     113.826 130.372 139.695  0.00  0.00    +0.000 A 
ATOM     18  C   UNL     1     113.525 130.310 140.460  0.00  0.00    +0.000 A 
ATOM     19  C   UNL     1     114.599 130.636 139.576  0.00  0.00    +0.000 A 
ATOM     20  C   UNL     1     113.995 130.511 141.107  0.00  0.00    +0.000 A 
ATOM     21  C   UNL     1     115.070 130.838 140.224  0.00  0.00    +0.000 A 
ATOM     22  C   UNL     1     114.767 130.775 140.989  0.00  0.00    +0.000 A 
ENDBRANCH  16  17
ENDBRANCH  14  15
ENDBRANCH  12  14
ENDBRANCH   7  12
ENDBRANCH   1   9
BRANCH   1  23
ATOM     23  C   UNL     1     113.578 126.682 137.353  0.00  0.00    +0.000 A 
ATOM     24  C   UNL     1     113.621 126.132 137.966  0.00  0.00    +0.000 A 
ATOM     25  C   UNL     1     113.894 126.502 136.613  0.00  0.00    +0.000 A 
ATOM     26  C   UNL     1     113.981 125.401 137.839  0.00  0.00    +0.000 A 
ATOM     27  C   UNL     1     114.254 125.770 136.486  0.00  0.00    +0.000 A 
ATOM     28  C   UNL     1     114.297 125.219 137.098  0.00  0.00    +0.000 A 
BRANCH  24  32
ATOM     29  O   UNL     1     112.455 126.288 138.831  0.00  0.00    +0.000 OA
ATOM     30  O   UNL     1     113.975 126.921 140.756  0.00  0.00    +0.000 OA
ATOM     31  O   UNL     1     112.810 127.070 141.595  0.00  0.00    +0.000 OA
ATOM     32  C   UNL     1     113.305 126.313 138.706  0.00  0.00    +0.000 A 
ATOM     33  C   UNL     1     113.823 126.527 139.358  0.00  0.00    +0.000 A 
ATOM     34  C   UNL     1     112.135 126.479 139.605  0.00  0.00    +0.000 A 
ATOM     35  C   UNL     1     112.633 126.684 140.231  0.00  0.00    +0.000 A 
ATOM     36  C   UNL     1     113.484 126.714 140.125  0.00  0.00    +0.000 A 
ATOM     37  C   UNL     1     111.318 126.453 139.719  0.00  0.00    +0.000 A 
ATOM     38  C   UNL     1     112.312 126.865 140.970  0.00  0.00    +0.000 A 
ATOM     39  C   UNL     1     110.999 126.634 140.458  0.00  0.00    +0.000 A 
ATOM     40  C   UNL     1     111.497 126.839 141.083  0.00  0.00    +0.000 A 
BRANCH  37  41
ATOM     41  O   UNL     1     110.820 126.248 139.094  0.00  0.00    +0.000 OA
ATOM     42  C   UNL     1     110.447 125.512 139.088  0.00  0.00    +0.000 C 
ENDBRANCH  37  41
BRANCH  39  43
ATOM     43  O   UNL     1     110.182 126.609 140.572  0.00  0.00    +0.000 OA
ATOM     44  C   UNL     1     109.850 126.944 141.249  0.00  0.00    +0.000 C 
ENDBRANCH  39  43
ENDBRANCH  24  32
ENDBRANCH   1  23
TORSDOF 10
ENDMDL
MODEL 9
REMARK VINA RESULT:      -9.0      1.810      4.359
REMARK  Name = 44258550
REMARK  10 active torsions:
REMARK  status: ('A' for Active; 'I' for Inactive)
REMARK    1  A    between atoms: O_2  and  C_15
REMARK    2  A    between atoms: O_2  and  C_20
REMARK    3  A    between atoms: O_3  and  C_17
REMARK    4  A    between atoms: O_3  and  C_19
REMARK    5  A    between atoms: O_9  and  C_33
REMARK    6  A    between atoms: O_11  and  C_36
REMARK    7  A    between atoms: C_16  and  C_18
REMARK    8  A    between atoms: C_20  and  C_24
REMARK    9  A    between atoms: C_21  and  C_23
REMARK   10  A    between atoms: C_31  and  C_35
REMARK                            x       y       z     vdW  Elec       q    Type
REMARK                         _______ _______ _______ _____ _____    ______ ____
ROOT
ATOM      1  O   UNL     1     112.041 129.699 137.203  0.00  0.00    +0.000 OA
ENDROOT
BRANCH   1   9
ATOM      2  O   UNL     1     113.117 130.583 136.883  0.00  0.00    +0.000 OA
ATOM      3  O   UNL     1     114.206 128.785 135.577  0.00  0.00    +0.000 OA
ATOM      4  O   UNL     1     114.919 130.269 135.692  0.00  0.00    +0.000 OA
ATOM      5  C   UNL     1     113.843 129.385 136.012  0.00  0.00    +0.000 C 
ATOM      6  C   UNL     1     114.199 130.126 136.070  0.00  0.00    +0.000 C 
ATOM      7  C   UNL     1     113.124 129.242 136.390  0.00  0.00    +0.000 C 
ATOM      8  C   UNL     1     113.836 130.725 136.505  0.00  0.00    +0.000 C 
ATOM      9  C   UNL     1     112.760 129.841 136.825  0.00  0.00    +0.000 C 
BRANCH   8  11
ATOM     10  O   UNL     1     113.739 132.151 136.472  0.00  0.00    +0.000 OA
ATOM     11  C   UNL     1     114.193 131.468 136.563  0.00  0.00    +0.000 C 
ENDBRANCH   8  11
BRANCH   7  12
ATOM     12  O   UNL     1     112.767 128.500 136.333  0.00  0.00    +0.000 OA
BRANCH  12  14
ATOM     13  O   UNL     1     112.363 128.794 134.994  0.00  0.00    +0.000 OA
ATOM     14  C   UNL     1     112.356 128.292 135.648  0.00  0.00    +0.000 C 
BRANCH  14  15
ATOM     15  C   UNL     1     111.937 127.581 135.618  0.00  0.00    +0.000 C 
ATOM     16  C   UNL     1     111.288 127.506 135.115  0.00  0.00    +0.000 C 
BRANCH  16  17
ATOM     17  C   UNL     1     110.869 126.797 135.085  0.00  0.00    +0.000 A 
ATOM     18  C   UNL     1     110.175 126.744 134.643  0.00  0.00    +0.000 A 
ATOM     19  C   UNL     1     111.145 126.138 135.498  0.00  0.00    +0.000 A 
ATOM     20  C   UNL     1     109.757 126.034 134.613  0.00  0.00    +0.000 A 
ATOM     21  C   UNL     1     110.727 125.427 135.469  0.00  0.00    +0.000 A 
ATOM     22  C   UNL     1     110.033 125.376 135.026  0.00  0.00    +0.000 A 
ENDBRANCH  16  17
ENDBRANCH  14  15
ENDBRANCH  12  14
ENDBRANCH   7  12
ENDBRANCH   1   9
BRANCH   1  23
ATOM     23  C   UNL     1     111.946 129.896 137.999  0.00  0.00    +0.000 A 
ATOM     24  C   UNL     1     111.205 130.124 138.281  0.00  0.00    +0.000 A 
ATOM     25  C   UNL     1     112.592 129.865 138.510  0.00  0.00    +0.000 A 
ATOM     26  C   UNL     1     111.111 130.321 139.077  0.00  0.00    +0.000 A 
ATOM     27  C   UNL     1     112.497 130.062 139.306  0.00  0.00    +0.000 A 
ATOM     28  C   UNL     1     111.757 130.290 139.590  0.00  0.00    +0.000 A 
BRANCH  24  32
ATOM     29  O   UNL     1     110.440 130.841 137.266  0.00  0.00    +0.000 OA
ATOM     30  O   UNL     1     108.792 128.920 137.162  0.00  0.00    +0.000 OA
ATOM     31  O   UNL     1     108.048 129.643 136.159  0.00  0.00    +0.000 OA
ATOM     32  C   UNL     1     110.560 130.155 137.770  0.00  0.00    +0.000 A 
ATOM     33  C   UNL     1     110.002 129.501 137.736  0.00  0.00    +0.000 A 
ATOM     34  C   UNL     1     109.763 130.863 136.736  0.00  0.00    +0.000 A 
ATOM     35  C   UNL     1     109.228 130.236 136.704  0.00  0.00    +0.000 A 
ATOM     36  C   UNL     1     109.332 129.542 137.200  0.00  0.00    +0.000 A 
ATOM     37  C   UNL     1     109.654 131.525 136.254  0.00  0.00    +0.000 A 
ATOM     38  C   UNL     1     108.583 130.271 136.191  0.00  0.00    +0.000 A 
ATOM     39  C   UNL     1     109.008 131.558 135.741  0.00  0.00    +0.000 A 
ATOM     40  C   UNL     1     108.473 130.931 135.710  0.00  0.00    +0.000 A 
BRANCH  37  41
ATOM     41  O   UNL     1     110.189 132.152 136.286  0.00  0.00    +0.000 OA
ATOM     42  C   UNL     1     109.971 132.862 136.646  0.00  0.00    +0.000 C 
ENDBRANCH  37  41
BRANCH  39  43
ATOM     43  O   UNL     1     108.898 132.219 135.260  0.00  0.00    +0.000 OA
ATOM     44  C   UNL     1     108.387 132.178 134.613  0.00  0.00    +0.000 C 
ENDBRANCH  39  43
ENDBRANCH  24  32
ENDBRANCH   1  23
TORSDOF 10
ENDMDL
MODEL 10
REMARK VINA RESULT:      -9.0      1.757      5.172
REMARK  Name = 44258550
REMARK  10 active torsions:
REMARK  status: ('A' for Active; 'I' for Inactive)
REMARK    1  A    between atoms: O_2  and  C_15
REMARK    2  A    between atoms: O_2  and  C_20
REMARK    3  A    between atoms: O_3  and  C_17
REMARK    4  A    between atoms: O_3  and  C_19
REMARK    5  A    between atoms: O_9  and  C_33
REMARK    6  A    between atoms: O_11  and  C_36
REMARK    7  A    between atoms: C_16  and  C_18
REMARK    8  A    between atoms: C_20  and  C_24
REMARK    9  A    between atoms: C_21  and  C_23
REMARK   10  A    between atoms: C_31  and  C_35
REMARK                            x       y       z     vdW  Elec       q    Type
REMARK                         _______ _______ _______ _____ _____    ______ ____
ROOT
ATOM      1  O   UNL     1     112.400 129.443 136.714  0.00  0.00    +0.000 OA
ENDROOT
BRANCH   1   9
ATOM      2  O   UNL     1     112.904 129.586 138.043  0.00  0.00    +0.000 OA
ATOM      3  O   UNL     1     111.299 131.424 138.454  0.00  0.00    +0.000 OA
ATOM      4  O   UNL     1     112.338 130.954 139.647  0.00  0.00    +0.000 OA
ATOM      5  C   UNL     1     111.834 130.811 138.317  0.00  0.00    +0.000 C 
ATOM      6  C   UNL     1     112.353 130.576 138.913  0.00  0.00    +0.000 C 
ATOM      7  C   UNL     1     111.849 130.434 137.584  0.00  0.00    +0.000 C 
ATOM      8  C   UNL     1     112.888 129.964 138.776  0.00  0.00    +0.000 C 
ATOM      9  C   UNL     1     112.384 129.821 137.447  0.00  0.00    +0.000 C 
BRANCH   8  11
ATOM     10  O   UNL     1     113.598 128.931 139.463  0.00  0.00    +0.000 OA
ATOM     11  C   UNL     1     113.408 129.728 139.373  0.00  0.00    +0.000 C 
ENDBRANCH   8  11
BRANCH   7  12
ATOM     12  O   UNL     1     111.330 130.668 136.988  0.00  0.00    +0.000 OA
BRANCH  12  14
ATOM     13  O   UNL     1     110.274 129.848 137.491  0.00  0.00    +0.000 OA
ATOM     14  C   UNL     1     110.525 130.499 137.052  0.00  0.00    +0.000 C 
BRANCH  14  15
ATOM     15  C   UNL     1     109.971 130.982 136.677  0.00  0.00    +0.000 C 
ATOM     16  C   UNL     1     109.445 130.659 136.129  0.00  0.00    +0.000 C 
BRANCH  16  17
ATOM     17  C   UNL     1     108.892 131.142 135.755  0.00  0.00    +0.000 A 
ATOM     18  C   UNL     1     108.147 131.256 136.093  0.00  0.00    +0.000 A 
ATOM     19  C   UNL     1     109.081 131.510 135.042  0.00  0.00    +0.000 A 
ATOM     20  C   UNL     1     107.594 131.739 135.718  0.00  0.00    +0.000 A 
ATOM     21  C   UNL     1     108.527 131.994 134.666  0.00  0.00    +0.000 A 
ATOM     22  C   UNL     1     107.784 132.108 135.005  0.00  0.00    +0.000 A 
ENDBRANCH  16  17
ENDBRANCH  14  15
ENDBRANCH  12  14
ENDBRANCH   7  12
ENDBRANCH   1   9
BRANCH   1  23
ATOM     23  C   UNL     1     113.093 129.439 136.266  0.00  0.00    +0.000 A 
ATOM     24  C   UNL     1     113.276 128.786 135.795  0.00  0.00    +0.000 A 
ATOM     25  C   UNL     1     113.603 130.086 136.290  0.00  0.00    +0.000 A 
ATOM     26  C   UNL     1     113.969 128.782 135.347  0.00  0.00    +0.000 A 
ATOM     27  C   UNL     1     114.296 130.082 135.842  0.00  0.00    +0.000 A 
ATOM     28  C   UNL     1     114.479 129.431 135.371  0.00  0.00    +0.000 A 
BRANCH  24  32
ATOM     29  O   UNL     1     112.893 127.469 136.295  0.00  0.00    +0.000 OA
ATOM     30  O   UNL     1     110.940 127.432 134.681  0.00  0.00    +0.000 OA
ATOM     31  O   UNL     1     110.578 126.130 135.188  0.00  0.00    +0.000 OA
ATOM     32  C   UNL     1     112.766 128.139 135.771  0.00  0.00    +0.000 A 
ATOM     33  C   UNL     1     112.104 128.128 135.223  0.00  0.00    +0.000 A 
ATOM     34  C   UNL     1     112.356 126.799 136.262  0.00  0.00    +0.000 A 
ATOM     35  C   UNL     1     111.721 126.789 135.735  0.00  0.00    +0.000 A 
ATOM     36  C   UNL     1     111.578 127.449 135.205  0.00  0.00    +0.000 A 
ATOM     37  C   UNL     1     112.483 126.158 136.767  0.00  0.00    +0.000 A 
ATOM     38  C   UNL     1     111.213 126.139 135.715  0.00  0.00    +0.000 A 
ATOM     39  C   UNL     1     111.975 125.509 136.745  0.00  0.00    +0.000 A 
ATOM     40  C   UNL     1     111.340 125.500 136.219  0.00  0.00    +0.000 A 
BRANCH  37  41
ATOM     41  O   UNL     1     113.118 126.167 137.294  0.00  0.00    +0.000 OA
ATOM     42  C   UNL     1     113.775 125.687 137.156  0.00  0.00    +0.000 C 
ENDBRANCH  37  41
BRANCH  39  43
ATOM     43  O   UNL     1     112.101 124.869 137.250  0.00  0.00    +0.000 OA
ATOM     44  C   UNL     1     111.585 124.225 137.238  0.00  0.00    +0.000 C 
ENDBRANCH  39  43
ENDBRANCH  24  32
ENDBRANCH   1  23
TORSDOF 10
ENDMDL
