MODEL 1
REMARK VINA RESULT:      -8.2      0.000      0.000
REMARK  Name = 44260044
REMARK  5 active torsions:
REMARK  status: ('A' for Active; 'I' for Inactive)
REMARK    1  A    between atoms: O_2  and  C_13
REMARK    2  A    between atoms: O_3  and  C_16
REMARK    3  A    between atoms: O_4  and  C_18
REMARK    4  A    between atoms: O_8  and  C_22
REMARK    5  A    between atoms: C_12  and  C_14
REMARK                            x       y       z     vdW  Elec       q    Type
REMARK                         _______ _______ _______ _____ _____    ______ ____
ROOT
ATOM      1  O   UNL     1     104.827 124.326 146.898  0.00  0.00    +0.000 OA
ATOM      2  O   UNL     1     102.147 125.133 147.614  0.00  0.00    +0.000 OA
ATOM      3  O   UNL     1     103.299 125.828 148.135  0.00  0.00    +0.000 OA
ATOM      4  C   UNL     1     103.501 124.724 147.252  0.00  0.00    +0.000 A 
ATOM      5  C   UNL     1     104.011 124.223 146.839  0.00  0.00    +0.000 A 
ATOM      6  C   UNL     1     105.134 124.930 147.370  0.00  0.00    +0.000 A 
ATOM      7  C   UNL     1     104.625 125.430 147.782  0.00  0.00    +0.000 A 
ATOM      8  C   UNL     1     103.808 125.327 147.723  0.00  0.00    +0.000 A 
ATOM      9  C   UNL     1     103.703 123.591 146.345  0.00  0.00    +0.000 A 
ATOM     10  C   UNL     1     102.649 124.627 147.198  0.00  0.00    +0.000 A 
ATOM     11  C   UNL     1     102.854 123.479 146.279  0.00  0.00    +0.000 A 
ATOM     12  C   UNL     1     102.323 124.001 146.709  0.00  0.00    +0.000 A 
ENDROOT
BRANCH   6  15
ATOM     13  O   UNL     1     105.938 125.825 146.240  0.00  0.00    +0.000 OA
ATOM     14  O   UNL     1     108.401 125.336 147.606  0.00  0.00    +0.000 OA
ATOM     15  C   UNL     1     105.951 125.032 147.428  0.00  0.00    +0.000 A 
ATOM     16  C   UNL     1     106.353 125.479 146.864  0.00  0.00    +0.000 A 
ATOM     17  C   UNL     1     106.366 124.685 148.052  0.00  0.00    +0.000 A 
ATOM     18  C   UNL     1     107.182 124.787 148.111  0.00  0.00    +0.000 A 
ATOM     19  C   UNL     1     107.169 125.581 146.923  0.00  0.00    +0.000 A 
ATOM     20  C   UNL     1     107.584 125.235 147.546  0.00  0.00    +0.000 A 
BRANCH  18  21
ATOM     21  O   UNL     1     107.597 124.441 148.735  0.00  0.00    +0.000 OA
ATOM     22  C   UNL     1     107.188 124.144 149.387  0.00  0.00    +0.000 C 
ENDBRANCH  18  21
ENDBRANCH   6  15
BRANCH   7  23
ATOM     23  O   UNL     1     104.932 126.033 148.253  0.00  0.00    +0.000 OA
ATOM     24  C   UNL     1     104.434 126.457 148.757  0.00  0.00    +0.000 C 
ENDBRANCH   7  23
BRANCH   9  25
ATOM     25  O   UNL     1     104.220 123.095 145.936  0.00  0.00    +0.000 OA
ATOM     26  C   UNL     1     104.223 123.092 145.110  0.00  0.00    +0.000 C 
ENDBRANCH   9  25
BRANCH  11  27
ATOM     27  O   UNL     1     102.550 122.875 145.807  0.00  0.00    +0.000 OA
ATOM     28  C   UNL     1     101.736 122.741 145.781  0.00  0.00    +0.000 C 
ENDBRANCH  11  27
TORSDOF 5
ENDMDL
MODEL 2
REMARK VINA RESULT:      -8.1      1.034      2.496
REMARK  Name = 44260044
REMARK  5 active torsions:
REMARK  status: ('A' for Active; 'I' for Inactive)
REMARK    1  A    between atoms: O_2  and  C_13
REMARK    2  A    between atoms: O_3  and  C_16
REMARK    3  A    between atoms: O_4  and  C_18
REMARK    4  A    between atoms: O_8  and  C_22
REMARK    5  A    between atoms: C_12  and  C_14
REMARK                            x       y       z     vdW  Elec       q    Type
REMARK                         _______ _______ _______ _____ _____    ______ ____
ROOT
ATOM      1  O   UNL     1     104.574 125.155 147.552  0.00  0.00    +0.000 OA
ATOM      2  O   UNL     1     102.557 123.868 145.933  0.00  0.00    +0.000 OA
ATOM      3  O   UNL     1     103.930 123.937 145.496  0.00  0.00    +0.000 OA
ATOM      4  C   UNL     1     103.576 124.519 146.752  0.00  0.00    +0.000 A 
ATOM      5  C   UNL     1     103.790 124.925 147.437  0.00  0.00    +0.000 A 
ATOM      6  C   UNL     1     105.144 124.979 146.981  0.00  0.00    +0.000 A 
ATOM      7  C   UNL     1     104.929 124.573 146.296  0.00  0.00    +0.000 A 
ATOM      8  C   UNL     1     104.144 124.343 146.182  0.00  0.00    +0.000 A 
ATOM      9  C   UNL     1     103.206 125.114 148.039  0.00  0.00    +0.000 A 
ATOM     10  C   UNL     1     102.762 124.274 146.621  0.00  0.00    +0.000 A 
ATOM     11  C   UNL     1     102.389 124.878 147.925  0.00  0.00    +0.000 A 
ATOM     12  C   UNL     1     102.165 124.455 147.212  0.00  0.00    +0.000 A 
ENDROOT
BRANCH   6  15
ATOM     13  O   UNL     1     106.134 124.082 147.949  0.00  0.00    +0.000 OA
ATOM     14  O   UNL     1     108.279 125.902 147.440  0.00  0.00    +0.000 OA
ATOM     15  C   UNL     1     105.927 125.209 147.096  0.00  0.00    +0.000 A 
ATOM     16  C   UNL     1     106.423 124.761 147.580  0.00  0.00    +0.000 A 
ATOM     17  C   UNL     1     106.216 125.889 146.726  0.00  0.00    +0.000 A 
ATOM     18  C   UNL     1     106.999 126.119 146.841  0.00  0.00    +0.000 A 
ATOM     19  C   UNL     1     107.206 124.992 147.694  0.00  0.00    +0.000 A 
ATOM     20  C   UNL     1     107.495 125.671 147.325  0.00  0.00    +0.000 A 
BRANCH  18  21
ATOM     21  O   UNL     1     107.288 126.799 146.472  0.00  0.00    +0.000 OA
ATOM     22  C   UNL     1     106.864 127.505 146.519  0.00  0.00    +0.000 C 
ENDBRANCH  18  21
ENDBRANCH   6  15
BRANCH   7  23
ATOM     23  O   UNL     1     105.498 124.397 145.725  0.00  0.00    +0.000 OA
ATOM     24  C   UNL     1     105.272 124.278 144.941  0.00  0.00    +0.000 C 
ENDBRANCH   7  23
BRANCH   9  25
ATOM     25  O   UNL     1     103.431 125.521 148.721  0.00  0.00    +0.000 OA
ATOM     26  C   UNL     1     103.204 126.308 148.825  0.00  0.00    +0.000 C 
ENDBRANCH   9  25
BRANCH  11  27
ATOM     27  O   UNL     1     101.822 125.055 148.498  0.00  0.00    +0.000 OA
ATOM     28  C   UNL     1     101.114 124.632 148.523  0.00  0.00    +0.000 C 
ENDBRANCH  11  27
TORSDOF 5
ENDMDL
MODEL 3
REMARK VINA RESULT:      -8.0     12.580     13.654
REMARK  Name = 44260044
REMARK  5 active torsions:
REMARK  status: ('A' for Active; 'I' for Inactive)
REMARK    1  A    between atoms: O_2  and  C_13
REMARK    2  A    between atoms: O_3  and  C_16
REMARK    3  A    between atoms: O_4  and  C_18
REMARK    4  A    between atoms: O_8  and  C_22
REMARK    5  A    between atoms: C_12  and  C_14
REMARK                            x       y       z     vdW  Elec       q    Type
REMARK                         _______ _______ _______ _____ _____    ______ ____
ROOT
ATOM      1  O   UNL     1     112.181 126.784 136.190  0.00  0.00    +0.000 OA
ATOM      2  O   UNL     1     109.797 125.920 134.805  0.00  0.00    +0.000 OA
ATOM      3  O   UNL     1     110.618 124.982 135.529  0.00  0.00    +0.000 OA
ATOM      4  C   UNL     1     111.002 126.358 135.505  0.00  0.00    +0.000 A 
ATOM      5  C   UNL     1     111.523 126.958 135.725  0.00  0.00    +0.000 A 
ATOM      6  C   UNL     1     112.319 126.007 136.435  0.00  0.00    +0.000 A 
ATOM      7  C   UNL     1     111.798 125.407 136.215  0.00  0.00    +0.000 A 
ATOM      8  C   UNL     1     111.139 125.583 135.750  0.00  0.00    +0.000 A 
ATOM      9  C   UNL     1     111.390 127.770 135.476  0.00  0.00    +0.000 A 
ATOM     10  C   UNL     1     110.312 126.527 135.020  0.00  0.00    +0.000 A 
ATOM     11  C   UNL     1     110.706 127.959 134.992  0.00  0.00    +0.000 A 
ATOM     12  C   UNL     1     110.164 127.333 134.762  0.00  0.00    +0.000 A 
ENDROOT
BRANCH   6  15
ATOM     13  O   UNL     1     112.274 126.270 138.063  0.00  0.00    +0.000 OA
ATOM     14  O   UNL     1     114.955 125.309 138.293  0.00  0.00    +0.000 OA
ATOM     15  C   UNL     1     112.978 125.833 136.900  0.00  0.00    +0.000 A 
ATOM     16  C   UNL     1     112.955 125.964 137.714  0.00  0.00    +0.000 A 
ATOM     17  C   UNL     1     113.660 125.527 136.550  0.00  0.00    +0.000 A 
ATOM     18  C   UNL     1     114.318 125.352 137.015  0.00  0.00    +0.000 A 
ATOM     19  C   UNL     1     113.614 125.790 138.178  0.00  0.00    +0.000 A 
ATOM     20  C   UNL     1     114.296 125.484 137.829  0.00  0.00    +0.000 A 
BRANCH  18  21
ATOM     21  O   UNL     1     115.001 125.046 136.665  0.00  0.00    +0.000 OA
ATOM     22  C   UNL     1     115.282 125.368 135.959  0.00  0.00    +0.000 C 
ENDBRANCH  18  21
ENDBRANCH   6  15
BRANCH   7  23
ATOM     23  O   UNL     1     111.936 124.632 136.460  0.00  0.00    +0.000 OA
ATOM     24  C   UNL     1     111.581 124.004 136.059  0.00  0.00    +0.000 C 
ENDBRANCH   7  23
BRANCH   9  25
ATOM     25  O   UNL     1     111.917 128.364 135.701  0.00  0.00    +0.000 OA
ATOM     26  C   UNL     1     112.413 128.710 135.139  0.00  0.00    +0.000 C 
ENDBRANCH   9  25
BRANCH  11  27
ATOM     27  O   UNL     1     110.571 128.736 134.748  0.00  0.00    +0.000 OA
ATOM     28  C   UNL     1     109.801 128.997 134.612  0.00  0.00    +0.000 C 
ENDBRANCH  11  27
TORSDOF 5
ENDMDL
MODEL 4
REMARK VINA RESULT:      -7.9     12.828     13.909
REMARK  Name = 44260044
REMARK  5 active torsions:
REMARK  status: ('A' for Active; 'I' for Inactive)
REMARK    1  A    between atoms: O_2  and  C_13
REMARK    2  A    between atoms: O_3  and  C_16
REMARK    3  A    between atoms: O_4  and  C_18
REMARK    4  A    between atoms: O_8  and  C_22
REMARK    5  A    between atoms: C_12  and  C_14
REMARK                            x       y       z     vdW  Elec       q    Type
REMARK                         _______ _______ _______ _____ _____    ______ ____
ROOT
ATOM      1  O   UNL     1     112.804 126.785 136.510  0.00  0.00    +0.000 OA
ATOM      2  O   UNL     1     110.497 125.382 135.480  0.00  0.00    +0.000 OA
ATOM      3  O   UNL     1     110.633 126.810 135.322  0.00  0.00    +0.000 OA
ATOM      4  C   UNL     1     111.664 126.091 136.001  0.00  0.00    +0.000 A 
ATOM      5  C   UNL     1     112.387 126.082 136.397  0.00  0.00    +0.000 A 
ATOM      6  C   UNL     1     112.497 127.497 136.226  0.00  0.00    +0.000 A 
ATOM      7  C   UNL     1     111.773 127.505 135.830  0.00  0.00    +0.000 A 
ATOM      8  C   UNL     1     111.357 126.801 135.718  0.00  0.00    +0.000 A 
ATOM      9  C   UNL     1     112.718 125.347 136.697  0.00  0.00    +0.000 A 
ATOM     10  C   UNL     1     111.220 125.364 135.877  0.00  0.00    +0.000 A 
ATOM     11  C   UNL     1     112.289 124.612 136.582  0.00  0.00    +0.000 A 
ATOM     12  C   UNL     1     111.535 124.621 136.170  0.00  0.00    +0.000 A 
ENDROOT
BRANCH   6  15
ATOM     13  O   UNL     1     112.392 128.297 137.665  0.00  0.00    +0.000 OA
ATOM     14  O   UNL     1     114.166 130.308 136.676  0.00  0.00    +0.000 OA
ATOM     15  C   UNL     1     112.913 128.200 136.340  0.00  0.00    +0.000 A 
ATOM     16  C   UNL     1     112.861 128.600 137.059  0.00  0.00    +0.000 A 
ATOM     17  C   UNL     1     113.384 128.502 135.732  0.00  0.00    +0.000 A 
ATOM     18  C   UNL     1     113.800 129.205 135.845  0.00  0.00    +0.000 A 
ATOM     19  C   UNL     1     113.279 129.303 137.171  0.00  0.00    +0.000 A 
ATOM     20  C   UNL     1     113.748 129.605 136.565  0.00  0.00    +0.000 A 
BRANCH  18  21
ATOM     21  O   UNL     1     114.271 129.508 135.237  0.00  0.00    +0.000 OA
ATOM     22  C   UNL     1     114.796 129.013 134.838  0.00  0.00    +0.000 C 
ENDBRANCH  18  21
ENDBRANCH   6  15
BRANCH   7  23
ATOM     23  O   UNL     1     111.466 128.216 135.548  0.00  0.00    +0.000 OA
ATOM     24  C   UNL     1     110.920 128.212 134.929  0.00  0.00    +0.000 C 
ENDBRANCH   7  23
BRANCH   9  25
ATOM     25  O   UNL     1     113.442 125.349 137.091  0.00  0.00    +0.000 OA
ATOM     26  C   UNL     1     114.110 125.027 136.729  0.00  0.00    +0.000 C 
ENDBRANCH   9  25
BRANCH  11  27
ATOM     27  O   UNL     1     112.599 123.902 136.867  0.00  0.00    +0.000 OA
ATOM     28  C   UNL     1     112.098 123.264 137.017  0.00  0.00    +0.000 C 
ENDBRANCH  11  27
TORSDOF 5
ENDMDL
MODEL 5
REMARK VINA RESULT:      -7.8      8.840     10.545
REMARK  Name = 44260044
REMARK  5 active torsions:
REMARK  status: ('A' for Active; 'I' for Inactive)
REMARK    1  A    between atoms: O_2  and  C_13
REMARK    2  A    between atoms: O_3  and  C_16
REMARK    3  A    between atoms: O_4  and  C_18
REMARK    4  A    between atoms: O_8  and  C_22
REMARK    5  A    between atoms: C_12  and  C_14
REMARK                            x       y       z     vdW  Elec       q    Type
REMARK                         _______ _______ _______ _____ _____    ______ ____
ROOT
ATOM      1  O   UNL     1     111.597 131.390 145.218  0.00  0.00    +0.000 OA
ATOM      2  O   UNL     1     112.324 131.629 142.432  0.00  0.00    +0.000 OA
ATOM      3  O   UNL     1     112.332 132.778 143.305  0.00  0.00    +0.000 OA
ATOM      4  C   UNL     1     111.956 131.508 143.840  0.00  0.00    +0.000 A 
ATOM      5  C   UNL     1     111.711 131.045 144.478  0.00  0.00    +0.000 A 
ATOM      6  C   UNL     1     111.728 132.199 145.321  0.00  0.00    +0.000 A 
ATOM      7  C   UNL     1     111.972 132.662 144.683  0.00  0.00    +0.000 A 
ATOM      8  C   UNL     1     112.087 132.315 143.942  0.00  0.00    +0.000 A 
ATOM      9  C   UNL     1     111.572 130.202 144.383  0.00  0.00    +0.000 A 
ATOM     10  C   UNL     1     112.079 131.159 143.064  0.00  0.00    +0.000 A 
ATOM     11  C   UNL     1     111.690 129.837 143.615  0.00  0.00    +0.000 A 
ATOM     12  C   UNL     1     111.945 130.318 142.951  0.00  0.00    +0.000 A 
ENDROOT
BRANCH   6  15
ATOM     13  O   UNL     1     112.928 132.146 146.451  0.00  0.00    +0.000 OA
ATOM     14  O   UNL     1     111.267 133.581 148.282  0.00  0.00    +0.000 OA
ATOM     15  C   UNL     1     111.613 132.544 146.061  0.00  0.00    +0.000 A 
ATOM     16  C   UNL     1     112.213 132.518 146.626  0.00  0.00    +0.000 A 
ATOM     17  C   UNL     1     110.897 132.916 146.236  0.00  0.00    +0.000 A 
ATOM     18  C   UNL     1     110.782 133.261 146.976  0.00  0.00    +0.000 A 
ATOM     19  C   UNL     1     112.097 132.863 147.367  0.00  0.00    +0.000 A 
ATOM     20  C   UNL     1     111.383 133.235 147.542  0.00  0.00    +0.000 A 
BRANCH  18  21
ATOM     21  O   UNL     1     110.066 133.633 147.151  0.00  0.00    +0.000 OA
ATOM     22  C   UNL     1     109.355 133.289 146.914  0.00  0.00    +0.000 C 
ENDBRANCH  18  21
ENDBRANCH   6  15
BRANCH   7  23
ATOM     23  O   UNL     1     112.103 133.469 144.785  0.00  0.00    +0.000 OA
ATOM     24  C   UNL     1     112.030 133.983 144.144  0.00  0.00    +0.000 C 
ENDBRANCH   7  23
BRANCH   9  25
ATOM     25  O   UNL     1     111.327 129.748 145.027  0.00  0.00    +0.000 OA
ATOM     26  C   UNL     1     111.817 129.152 145.322  0.00  0.00    +0.000 C 
ENDBRANCH   9  25
BRANCH  11  27
ATOM     27  O   UNL     1     111.558 129.028 143.516  0.00  0.00    +0.000 OA
ATOM     28  C   UNL     1     111.524 128.706 142.757  0.00  0.00    +0.000 C 
ENDBRANCH  11  27
TORSDOF 5
ENDMDL
MODEL 6
REMARK VINA RESULT:      -7.6      2.083      3.294
REMARK  Name = 44260044
REMARK  5 active torsions:
REMARK  status: ('A' for Active; 'I' for Inactive)
REMARK    1  A    between atoms: O_2  and  C_13
REMARK    2  A    between atoms: O_3  and  C_16
REMARK    3  A    between atoms: O_4  and  C_18
REMARK    4  A    between atoms: O_8  and  C_22
REMARK    5  A    between atoms: C_12  and  C_14
REMARK                            x       y       z     vdW  Elec       q    Type
REMARK                         _______ _______ _______ _____ _____    ______ ____
ROOT
ATOM      1  O   UNL     1     106.354 125.324 145.946  0.00  0.00    +0.000 OA
ATOM      2  O   UNL     1     106.230 127.580 144.145  0.00  0.00    +0.000 OA
ATOM      3  O   UNL     1     106.569 127.755 145.536  0.00  0.00    +0.000 OA
ATOM      4  C   UNL     1     106.293 126.440 145.054  0.00  0.00    +0.000 A 
ATOM      5  C   UNL     1     106.221 125.629 145.191  0.00  0.00    +0.000 A 
ATOM      6  C   UNL     1     106.560 125.831 146.564  0.00  0.00    +0.000 A 
ATOM      7  C   UNL     1     106.631 126.641 146.428  0.00  0.00    +0.000 A 
ATOM      8  C   UNL     1     106.498 126.945 145.672  0.00  0.00    +0.000 A 
ATOM      9  C   UNL     1     106.008 125.092 144.554  0.00  0.00    +0.000 A 
ATOM     10  C   UNL     1     106.156 126.769 144.272  0.00  0.00    +0.000 A 
ATOM     11  C   UNL     1     105.868 125.403 143.766  0.00  0.00    +0.000 A 
ATOM     12  C   UNL     1     105.943 126.247 143.624  0.00  0.00    +0.000 A 
ENDROOT
BRANCH   6  15
ATOM     13  O   UNL     1     108.046 125.236 146.965  0.00  0.00    +0.000 OA
ATOM     14  O   UNL     1     107.090 124.611 149.585  0.00  0.00    +0.000 OA
ATOM     15  C   UNL     1     106.693 125.526 147.319  0.00  0.00    +0.000 A 
ATOM     16  C   UNL     1     107.436 125.228 147.519  0.00  0.00    +0.000 A 
ATOM     17  C   UNL     1     106.082 125.518 147.874  0.00  0.00    +0.000 A 
ATOM     18  C   UNL     1     106.215 125.213 148.629  0.00  0.00    +0.000 A 
ATOM     19  C   UNL     1     107.568 124.924 148.275  0.00  0.00    +0.000 A 
ATOM     20  C   UNL     1     106.958 124.916 148.829  0.00  0.00    +0.000 A 
BRANCH  18  21
ATOM     21  O   UNL     1     105.604 125.205 149.184  0.00  0.00    +0.000 OA
ATOM     22  C   UNL     1     104.848 124.961 148.961  0.00  0.00    +0.000 C 
ENDBRANCH  18  21
ENDBRANCH   6  15
BRANCH   7  23
ATOM     23  O   UNL     1     106.836 127.147 147.046  0.00  0.00    +0.000 OA
ATOM     24  C   UNL     1     106.612 127.940 147.021  0.00  0.00    +0.000 C 
ENDBRANCH   7  23
BRANCH   9  25
ATOM     25  O   UNL     1     105.939 124.283 144.701  0.00  0.00    +0.000 OA
ATOM     26  C   UNL     1     105.193 123.930 144.724  0.00  0.00    +0.000 C 
ENDBRANCH   9  25
BRANCH  11  27
ATOM     27  O   UNL     1     105.663 124.894 143.150  0.00  0.00    +0.000 OA
ATOM     28  C   UNL     1     105.859 125.088 142.372  0.00  0.00    +0.000 C 
ENDBRANCH  11  27
TORSDOF 5
ENDMDL
MODEL 7
REMARK VINA RESULT:      -7.5     11.399     12.904
REMARK  Name = 44260044
REMARK  5 active torsions:
REMARK  status: ('A' for Active; 'I' for Inactive)
REMARK    1  A    between atoms: O_2  and  C_13
REMARK    2  A    between atoms: O_3  and  C_16
REMARK    3  A    between atoms: O_4  and  C_18
REMARK    4  A    between atoms: O_8  and  C_22
REMARK    5  A    between atoms: C_12  and  C_14
REMARK                            x       y       z     vdW  Elec       q    Type
REMARK                         _______ _______ _______ _____ _____    ______ ____
ROOT
ATOM      1  O   UNL     1     111.096 126.941 136.012  0.00  0.00    +0.000 OA
ATOM      2  O   UNL     1     108.909 128.509 137.063  0.00  0.00    +0.000 OA
ATOM      3  O   UNL     1     109.271 127.245 137.655  0.00  0.00    +0.000 OA
ATOM      4  C   UNL     1     110.015 127.717 136.531  0.00  0.00    +0.000 A 
ATOM      5  C   UNL     1     110.623 127.616 135.983  0.00  0.00    +0.000 A 
ATOM      6  C   UNL     1     110.961 126.367 136.590  0.00  0.00    +0.000 A 
ATOM      7  C   UNL     1     110.352 126.468 137.137  0.00  0.00    +0.000 A 
ATOM      8  C   UNL     1     109.880 127.144 137.108  0.00  0.00    +0.000 A 
ATOM      9  C   UNL     1     110.774 128.207 135.377  0.00  0.00    +0.000 A 
ATOM     10  C   UNL     1     109.515 128.416 136.511  0.00  0.00    +0.000 A 
ATOM     11  C   UNL     1     110.284 128.912 135.342  0.00  0.00    +0.000 A 
ATOM     12  C   UNL     1     109.651 129.017 135.912  0.00  0.00    +0.000 A 
ENDROOT
BRANCH   6  15
ATOM     13  O   UNL     1     110.615 125.073 135.625  0.00  0.00    +0.000 OA
ATOM     14  O   UNL     1     112.857 123.668 136.706  0.00  0.00    +0.000 OA
ATOM     15  C   UNL     1     111.434 125.692 136.618  0.00  0.00    +0.000 A 
ATOM     16  C   UNL     1     111.261 125.045 136.136  0.00  0.00    +0.000 A 
ATOM     17  C   UNL     1     112.082 125.664 137.130  0.00  0.00    +0.000 A 
ATOM     18  C   UNL     1     112.555 124.989 137.159  0.00  0.00    +0.000 A 
ATOM     19  C   UNL     1     111.736 124.371 136.166  0.00  0.00    +0.000 A 
ATOM     20  C   UNL     1     112.382 124.342 136.677  0.00  0.00    +0.000 A 
BRANCH  18  21
ATOM     21  O   UNL     1     113.202 124.961 137.671  0.00  0.00    +0.000 OA
ATOM     22  C   UNL     1     113.715 125.605 137.722  0.00  0.00    +0.000 C 
ENDBRANCH  18  21
ENDBRANCH   6  15
BRANCH   7  23
ATOM     23  O   UNL     1     110.217 125.894 137.714  0.00  0.00    +0.000 OA
ATOM     24  C   UNL     1     109.864 126.104 138.429  0.00  0.00    +0.000 C 
ENDBRANCH   7  23
BRANCH   9  25
ATOM     25  O   UNL     1     111.385 128.097 134.834  0.00  0.00    +0.000 OA
ATOM     26  C   UNL     1     112.059 128.572 134.869  0.00  0.00    +0.000 C 
ENDBRANCH   9  25
BRANCH  11  27
ATOM     27  O   UNL     1     110.423 129.484 134.763  0.00  0.00    +0.000 OA
ATOM     28  C   UNL     1     109.856 130.065 134.615  0.00  0.00    +0.000 C 
ENDBRANCH  11  27
TORSDOF 5
ENDMDL
MODEL 8
REMARK VINA RESULT:      -7.5      1.422      2.661
REMARK  Name = 44260044
REMARK  5 active torsions:
REMARK  status: ('A' for Active; 'I' for Inactive)
REMARK    1  A    between atoms: O_2  and  C_13
REMARK    2  A    between atoms: O_3  and  C_16
REMARK    3  A    between atoms: O_4  and  C_18
REMARK    4  A    between atoms: O_8  and  C_22
REMARK    5  A    between atoms: C_12  and  C_14
REMARK                            x       y       z     vdW  Elec       q    Type
REMARK                         _______ _______ _______ _____ _____    ______ ____
ROOT
ATOM      1  O   UNL     1     103.589 124.562 147.428  0.00  0.00    +0.000 OA
ATOM      2  O   UNL     1     103.973 122.994 145.031  0.00  0.00    +0.000 OA
ATOM      3  O   UNL     1     105.031 123.821 145.557  0.00  0.00    +0.000 OA
ATOM      4  C   UNL     1     103.778 123.786 146.242  0.00  0.00    +0.000 A 
ATOM      5  C   UNL     1     103.298 124.033 146.866  0.00  0.00    +0.000 A 
ATOM      6  C   UNL     1     104.363 124.844 147.366  0.00  0.00    +0.000 A 
ATOM      7  C   UNL     1     104.843 124.597 146.742  0.00  0.00    +0.000 A 
ATOM      8  C   UNL     1     104.550 124.068 146.181  0.00  0.00    +0.000 A 
ATOM      9  C   UNL     1     102.491 123.746 146.941  0.00  0.00    +0.000 A 
ATOM     10  C   UNL     1     103.485 123.235 145.651  0.00  0.00    +0.000 A 
ATOM     11  C   UNL     1     102.181 123.195 146.359  0.00  0.00    +0.000 A 
ATOM     12  C   UNL     1     102.681 122.938 145.710  0.00  0.00    +0.000 A 
ENDROOT
BRANCH   6  15
ATOM     13  O   UNL     1     105.027 124.278 148.766  0.00  0.00    +0.000 OA
ATOM     14  O   UNL     1     105.529 126.962 149.612  0.00  0.00    +0.000 OA
ATOM     15  C   UNL     1     104.655 125.373 147.928  0.00  0.00    +0.000 A 
ATOM     16  C   UNL     1     104.987 125.090 148.628  0.00  0.00    +0.000 A 
ATOM     17  C   UNL     1     104.614 126.186 147.789  0.00  0.00    +0.000 A 
ATOM     18  C   UNL     1     104.905 126.714 148.351  0.00  0.00    +0.000 A 
ATOM     19  C   UNL     1     105.278 125.620 149.189  0.00  0.00    +0.000 A 
ATOM     20  C   UNL     1     105.238 126.432 149.051  0.00  0.00    +0.000 A 
BRANCH  18  21
ATOM     21  O   UNL     1     104.864 127.527 148.212  0.00  0.00    +0.000 OA
ATOM     22  C   UNL     1     104.163 127.864 147.938  0.00  0.00    +0.000 C 
ENDBRANCH  18  21
ENDBRANCH   6  15
BRANCH   7  23
ATOM     23  O   UNL     1     105.616 124.879 146.681  0.00  0.00    +0.000 OA
ATOM     24  C   UNL     1     105.956 124.989 145.937  0.00  0.00    +0.000 C 
ENDBRANCH   7  23
BRANCH   9  25
ATOM     25  O   UNL     1     102.018 123.999 147.568  0.00  0.00    +0.000 OA
ATOM     26  C   UNL     1     101.767 123.458 148.139  0.00  0.00    +0.000 C 
ENDBRANCH   9  25
BRANCH  11  27
ATOM     27  O   UNL     1     101.407 122.915 146.424  0.00  0.00    +0.000 OA
ATOM     28  C   UNL     1     100.974 122.739 145.744  0.00  0.00    +0.000 C 
ENDBRANCH  11  27
TORSDOF 5
ENDMDL
MODEL 9
REMARK VINA RESULT:      -7.5     11.565     13.590
REMARK  Name = 44260044
REMARK  5 active torsions:
REMARK  status: ('A' for Active; 'I' for Inactive)
REMARK    1  A    between atoms: O_2  and  C_13
REMARK    2  A    between atoms: O_3  and  C_16
REMARK    3  A    between atoms: O_4  and  C_18
REMARK    4  A    between atoms: O_8  and  C_22
REMARK    5  A    between atoms: C_12  and  C_14
REMARK                            x       y       z     vdW  Elec       q    Type
REMARK                         _______ _______ _______ _____ _____    ______ ____
ROOT
ATOM      1  O   UNL     1     113.223 127.350 136.981  0.00  0.00    +0.000 OA
ATOM      2  O   UNL     1     112.913 129.254 139.133  0.00  0.00    +0.000 OA
ATOM      3  O   UNL     1     112.682 127.846 139.345  0.00  0.00    +0.000 OA
ATOM      4  C   UNL     1     113.070 128.292 138.045  0.00  0.00    +0.000 A 
ATOM      5  C   UNL     1     113.250 128.127 137.257  0.00  0.00    +0.000 A 
ATOM      6  C   UNL     1     113.016 126.738 137.494  0.00  0.00    +0.000 A 
ATOM      7  C   UNL     1     112.835 126.903 138.282  0.00  0.00    +0.000 A 
ATOM      8  C   UNL     1     112.863 127.681 138.557  0.00  0.00    +0.000 A 
ATOM      9  C   UNL     1     113.468 128.756 136.713  0.00  0.00    +0.000 A 
ATOM     10  C   UNL     1     113.095 129.098 138.343  0.00  0.00    +0.000 A 
ATOM     11  C   UNL     1     113.498 129.568 136.994  0.00  0.00    +0.000 A 
ATOM     12  C   UNL     1     113.310 129.740 137.814  0.00  0.00    +0.000 A 
ENDROOT
BRANCH   6  15
ATOM     13  O   UNL     1     114.390 125.825 137.460  0.00  0.00    +0.000 OA
ATOM     14  O   UNL     1     112.905 123.629 136.391  0.00  0.00    +0.000 OA
ATOM     15  C   UNL     1     112.989 125.961 137.219  0.00  0.00    +0.000 A 
ATOM     16  C   UNL     1     113.676 125.504 137.202  0.00  0.00    +0.000 A 
ATOM     17  C   UNL     1     112.273 125.640 136.960  0.00  0.00    +0.000 A 
ATOM     18  C   UNL     1     112.246 124.863 136.684  0.00  0.00    +0.000 A 
ATOM     19  C   UNL     1     113.648 124.727 136.926  0.00  0.00    +0.000 A 
ATOM     20  C   UNL     1     112.934 124.407 136.667  0.00  0.00    +0.000 A 
BRANCH  18  21
ATOM     21  O   UNL     1     111.531 124.542 136.425  0.00  0.00    +0.000 OA
ATOM     22  C   UNL     1     111.040 124.979 135.927  0.00  0.00    +0.000 C 
ENDBRANCH  18  21
ENDBRANCH   6  15
BRANCH   7  23
ATOM     23  O   UNL     1     112.628 126.291 138.795  0.00  0.00    +0.000 OA
ATOM     24  C   UNL     1     112.183 126.452 139.470  0.00  0.00    +0.000 C 
ENDBRANCH   7  23
BRANCH   9  25
ATOM     25  O   UNL     1     113.647 128.581 135.927  0.00  0.00    +0.000 OA
ATOM     26  C   UNL     1     113.127 128.807 135.326  0.00  0.00    +0.000 C 
ENDBRANCH   9  25
BRANCH  11  27
ATOM     27  O   UNL     1     113.706 130.177 136.478  0.00  0.00    +0.000 OA
ATOM     28  C   UNL     1     113.933 130.911 136.778  0.00  0.00    +0.000 C 
ENDBRANCH  11  27
TORSDOF 5
ENDMDL
MODEL 10
REMARK VINA RESULT:      -7.5      2.382      4.107
REMARK  Name = 44260044
REMARK  5 active torsions:
REMARK  status: ('A' for Active; 'I' for Inactive)
REMARK    1  A    between atoms: O_2  and  C_13
REMARK    2  A    between atoms: O_3  and  C_16
REMARK    3  A    between atoms: O_4  and  C_18
REMARK    4  A    between atoms: O_8  and  C_22
REMARK    5  A    between atoms: C_12  and  C_14
REMARK                            x       y       z     vdW  Elec       q    Type
REMARK                         _______ _______ _______ _____ _____    ______ ____
ROOT
ATOM      1  O   UNL     1     106.471 126.180 145.497  0.00  0.00    +0.000 OA
ATOM      2  O   UNL     1     105.441 125.010 143.065  0.00  0.00    +0.000 OA
ATOM      3  O   UNL     1     105.197 124.397 144.347  0.00  0.00    +0.000 OA
ATOM      4  C   UNL     1     105.962 125.602 144.294  0.00  0.00    +0.000 A 
ATOM      5  C   UNL     1     106.387 126.196 144.677  0.00  0.00    +0.000 A 
ATOM      6  C   UNL     1     106.131 125.568 145.935  0.00  0.00    +0.000 A 
ATOM      7  C   UNL     1     105.706 124.974 145.551  0.00  0.00    +0.000 A 
ATOM      8  C   UNL     1     105.622 124.991 144.731  0.00  0.00    +0.000 A 
ATOM      9  C   UNL     1     106.746 126.838 144.232  0.00  0.00    +0.000 A 
ATOM     10  C   UNL     1     105.867 125.608 143.439  0.00  0.00    +0.000 A 
ATOM     11  C   UNL     1     106.662 126.861 143.378  0.00  0.00    +0.000 A 
ATOM     12  C   UNL     1     106.220 126.242 142.979  0.00  0.00    +0.000 A 
ENDROOT
BRANCH   6  15
ATOM     13  O   UNL     1     107.498 124.941 146.612  0.00  0.00    +0.000 OA
ATOM     14  O   UNL     1     106.467 125.504 149.217  0.00  0.00    +0.000 OA
ATOM     15  C   UNL     1     106.215 125.552 146.755  0.00  0.00    +0.000 A 
ATOM     16  C   UNL     1     106.899 125.238 147.094  0.00  0.00    +0.000 A 
ATOM     17  C   UNL     1     105.615 125.850 147.237  0.00  0.00    +0.000 A 
ATOM     18  C   UNL     1     105.699 125.833 148.058  0.00  0.00    +0.000 A 
ATOM     19  C   UNL     1     106.982 125.223 147.914  0.00  0.00    +0.000 A 
ATOM     20  C   UNL     1     106.383 125.520 148.396  0.00  0.00    +0.000 A 
BRANCH  18  21
ATOM     21  O   UNL     1     105.099 126.131 148.540  0.00  0.00    +0.000 OA
ATOM     22  C   UNL     1     104.774 126.873 148.382  0.00  0.00    +0.000 C 
ENDBRANCH  18  21
ENDBRANCH   6  15
BRANCH   7  23
ATOM     23  O   UNL     1     105.366 124.363 145.988  0.00  0.00    +0.000 OA
ATOM     24  C   UNL     1     104.685 123.987 145.712  0.00  0.00    +0.000 C 
ENDBRANCH   7  23
BRANCH   9  25
ATOM     25  O   UNL     1     107.169 127.428 144.624  0.00  0.00    +0.000 OA
ATOM     26  C   UNL     1     106.855 128.189 144.686  0.00  0.00    +0.000 C 
ENDBRANCH   9  25
BRANCH  11  27
ATOM     27  O   UNL     1     107.004 127.474 142.943  0.00  0.00    +0.000 OA
ATOM     28  C   UNL     1     107.127 127.385 142.133  0.00  0.00    +0.000 C 
ENDBRANCH  11  27
TORSDOF 5
ENDMDL
