MODEL 1
REMARK VINA RESULT:     -10.0      0.000      0.000
REMARK  Name = 44258366
REMARK  9 active torsions:
REMARK  status: ('A' for Active; 'I' for Inactive)
REMARK    1  A    between atoms: O_1  and  C_16
REMARK    2  A    between atoms: O_1  and  C_21
REMARK    3  A    between atoms: O_6  and  C_22
REMARK    4  A    between atoms: O_6  and  C_34
REMARK    5  A    between atoms: O_10  and  C_30
REMARK    6  A    between atoms: O_15  and  C_45
REMARK    7  A    between atoms: C_18  and  C_26
REMARK    8  A    between atoms: C_20  and  C_27
REMARK    9  A    between atoms: C_38  and  C_40
REMARK                            x       y       z     vdW  Elec       q    Type
REMARK                         _______ _______ _______ _____ _____    ______ ____
ROOT
ATOM      1  O   UNL     1     113.815 130.683 139.826  0.00  0.00    +0.000 OA
ATOM      2  O   UNL     1     114.201 128.257 140.125  0.00  0.00    +0.000 OA
ATOM      3  O   UNL     1     114.943 129.339 141.124  0.00  0.00    +0.000 OA
ATOM      4  C   UNL     1     113.572 129.333 139.426  0.00  0.00    +0.000 C 
ATOM      5  C   UNL     1     114.072 129.065 140.025  0.00  0.00    +0.000 C 
ATOM      6  C   UNL     1     113.443 130.141 139.326  0.00  0.00    +0.000 C 
ATOM      7  C   UNL     1     114.443 129.606 140.525  0.00  0.00    +0.000 C 
ATOM      8  C   UNL     1     114.315 130.416 140.425  0.00  0.00    +0.000 C 
ENDROOT
BRANCH   6  12
ATOM      9  O   UNL     1     111.869 130.502 139.663  0.00  0.00    +0.000 OA
ATOM     10  O   UNL     1     111.435 131.224 136.895  0.00  0.00    +0.000 OA
ATOM     11  O   UNL     1     110.560 130.952 139.255  0.00  0.00    +0.000 OA
ATOM     12  C   UNL     1     112.943 130.410 138.727  0.00  0.00    +0.000 A 
ATOM     13  C   UNL     1     112.157 130.590 138.895  0.00  0.00    +0.000 A 
ATOM     14  C   UNL     1     113.231 130.498 137.959  0.00  0.00    +0.000 A 
ATOM     15  C   UNL     1     111.657 130.858 138.296  0.00  0.00    +0.000 A 
ATOM     16  C   UNL     1     112.733 130.766 137.359  0.00  0.00    +0.000 A 
ATOM     17  C   UNL     1     111.945 130.946 137.528  0.00  0.00    +0.000 A 
ATOM     18  C   UNL     1     110.839 131.042 138.484  0.00  0.00    +0.000 A 
ATOM     19  C   UNL     1     110.314 131.322 137.864  0.00  0.00    +0.000 A 
ATOM     20  C   UNL     1     110.614 131.414 137.064  0.00  0.00    +0.000 A 
BRANCH  20  21
ATOM     21  C   UNL     1     110.117 131.682 136.462  0.00  0.00    +0.000 A 
ATOM     22  C   UNL     1     109.752 131.142 135.956  0.00  0.00    +0.000 A 
ATOM     23  C   UNL     1     109.985 132.491 136.366  0.00  0.00    +0.000 A 
ATOM     24  C   UNL     1     109.256 131.409 135.355  0.00  0.00    +0.000 A 
ATOM     25  C   UNL     1     109.489 132.759 135.765  0.00  0.00    +0.000 A 
ATOM     26  C   UNL     1     109.125 132.218 135.259  0.00  0.00    +0.000 A 
BRANCH  26  27
ATOM     27  O   UNL     1     108.628 132.487 134.657  0.00  0.00    +0.000 OA
ATOM     28  C   UNL     1     107.850 132.217 134.612  0.00  0.00    +0.000 C 
ENDBRANCH  26  27
ENDBRANCH  20  21
BRANCH  14  29
ATOM     29  O   UNL     1     114.019 130.317 137.790  0.00  0.00    +0.000 OA
ATOM     30  C   UNL     1     114.348 130.541 137.067  0.00  0.00    +0.000 C 
ENDBRANCH  14  29
ENDBRANCH   6  12
BRANCH   8  32
ATOM     31  O   UNL     1     114.983 131.664 140.619  0.00  0.00    +0.000 OA
ATOM     32  C   UNL     1     114.686 130.957 140.925  0.00  0.00    +0.000 C 
ENDBRANCH   8  32
BRANCH   4  33
ATOM     33  O   UNL     1     113.201 128.792 138.926  0.00  0.00    +0.000 OA
BRANCH  33  37
ATOM     34  O   UNL     1     112.393 128.195 139.943  0.00  0.00    +0.000 OA
ATOM     35  O   UNL     1     112.560 126.010 138.791  0.00  0.00    +0.000 OA
ATOM     36  O   UNL     1     111.697 126.141 140.192  0.00  0.00    +0.000 OA
ATOM     37  C   UNL     1     112.824 128.129 139.243  0.00  0.00    +0.000 C 
ATOM     38  C   UNL     1     112.880 127.400 138.859  0.00  0.00    +0.000 C 
ATOM     39  C   UNL     1     112.504 126.738 139.175  0.00  0.00    +0.000 C 
ATOM     40  C   UNL     1     112.073 126.804 139.875  0.00  0.00    +0.000 C 
ATOM     41  C   UNL     1     112.017 127.532 140.258  0.00  0.00    +0.000 C 
ATOM     42  C   UNL     1     111.585 127.597 140.959  0.00  0.00    +0.000 C 
BRANCH  38  43
ATOM     43  O   UNL     1     113.312 127.336 138.159  0.00  0.00    +0.000 OA
BRANCH  43  45
ATOM     44  O   UNL     1     112.215 127.390 137.243  0.00  0.00    +0.000 OA
ATOM     45  C   UNL     1     112.942 127.071 137.470  0.00  0.00    +0.000 C 
ATOM     46  C   UNL     1     113.299 126.490 137.007  0.00  0.00    +0.000 C 
ENDBRANCH  43  45
ENDBRANCH  38  43
ENDBRANCH  33  37
ENDBRANCH   4  33
TORSDOF 9
ENDMDL
MODEL 2
REMARK VINA RESULT:     -10.0      8.876     11.247
REMARK  Name = 44258366
REMARK  9 active torsions:
REMARK  status: ('A' for Active; 'I' for Inactive)
REMARK    1  A    between atoms: O_1  and  C_16
REMARK    2  A    between atoms: O_1  and  C_21
REMARK    3  A    between atoms: O_6  and  C_22
REMARK    4  A    between atoms: O_6  and  C_34
REMARK    5  A    between atoms: O_10  and  C_30
REMARK    6  A    between atoms: O_15  and  C_45
REMARK    7  A    between atoms: C_18  and  C_26
REMARK    8  A    between atoms: C_20  and  C_27
REMARK    9  A    between atoms: C_38  and  C_40
REMARK                            x       y       z     vdW  Elec       q    Type
REMARK                         _______ _______ _______ _____ _____    ______ ____
ROOT
ATOM      1  O   UNL     1     107.477 125.504 147.297  0.00  0.00    +0.000 OA
ATOM      2  O   UNL     1     105.897 123.993 148.457  0.00  0.00    +0.000 OA
ATOM      3  O   UNL     1     107.466 124.089 148.958  0.00  0.00    +0.000 OA
ATOM      4  C   UNL     1     106.166 124.953 147.433  0.00  0.00    +0.000 C 
ATOM      5  C   UNL     1     106.423 124.497 148.071  0.00  0.00    +0.000 C 
ATOM      6  C   UNL     1     106.692 125.456 147.046  0.00  0.00    +0.000 C 
ATOM      7  C   UNL     1     107.208 124.544 148.321  0.00  0.00    +0.000 C 
ATOM      8  C   UNL     1     107.735 125.048 147.934  0.00  0.00    +0.000 C 
ENDROOT
BRANCH   6  12
ATOM      9  O   UNL     1     106.539 124.775 145.551  0.00  0.00    +0.000 OA
ATOM     10  O   UNL     1     105.652 127.312 144.480  0.00  0.00    +0.000 OA
ATOM     11  O   UNL     1     106.209 124.864 144.149  0.00  0.00    +0.000 OA
ATOM     12  C   UNL     1     106.435 125.912 146.409  0.00  0.00    +0.000 A 
ATOM     13  C   UNL     1     106.359 125.572 145.662  0.00  0.00    +0.000 A 
ATOM     14  C   UNL     1     106.254 126.710 146.519  0.00  0.00    +0.000 A 
ATOM     15  C   UNL     1     106.101 126.029 145.024  0.00  0.00    +0.000 A 
ATOM     16  C   UNL     1     105.997 127.167 145.883  0.00  0.00    +0.000 A 
ATOM     17  C   UNL     1     105.920 126.826 145.135  0.00  0.00    +0.000 A 
ATOM     18  C   UNL     1     106.026 125.662 144.251  0.00  0.00    +0.000 A 
ATOM     19  C   UNL     1     105.758 126.133 143.583  0.00  0.00    +0.000 A 
ATOM     20  C   UNL     1     105.570 126.963 143.698  0.00  0.00    +0.000 A 
BRANCH  20  21
ATOM     21  C   UNL     1     105.312 127.423 143.063  0.00  0.00    +0.000 A 
ATOM     22  C   UNL     1     105.436 127.166 142.289  0.00  0.00    +0.000 A 
ATOM     23  C   UNL     1     104.931 128.141 143.203  0.00  0.00    +0.000 A 
ATOM     24  C   UNL     1     105.179 127.625 141.655  0.00  0.00    +0.000 A 
ATOM     25  C   UNL     1     104.673 128.602 142.569  0.00  0.00    +0.000 A 
ATOM     26  C   UNL     1     104.797 128.343 141.795  0.00  0.00    +0.000 A 
BRANCH  26  27
ATOM     27  O   UNL     1     104.539 128.804 141.161  0.00  0.00    +0.000 OA
ATOM     28  C   UNL     1     103.732 128.902 141.023  0.00  0.00    +0.000 C 
ENDBRANCH  26  27
ENDBRANCH  20  21
BRANCH  14  29
ATOM     29  O   UNL     1     106.331 127.051 147.267  0.00  0.00    +0.000 OA
ATOM     30  C   UNL     1     106.301 127.871 147.352  0.00  0.00    +0.000 C 
ENDBRANCH  14  29
ENDBRANCH   6  12
BRANCH   8  32
ATOM     31  O   UNL     1     109.132 125.058 147.632  0.00  0.00    +0.000 OA
ATOM     32  C   UNL     1     108.520 125.096 148.185  0.00  0.00    +0.000 C 
ENDBRANCH   8  32
BRANCH   4  33
ATOM     33  O   UNL     1     105.382 124.905 147.183  0.00  0.00    +0.000 OA
BRANCH  33  37
ATOM     34  O   UNL     1     104.819 125.436 148.384  0.00  0.00    +0.000 OA
ATOM     35  O   UNL     1     102.837 123.982 148.098  0.00  0.00    +0.000 OA
ATOM     36  O   UNL     1     102.934 124.998 149.395  0.00  0.00    +0.000 OA
ATOM     37  C   UNL     1     104.769 124.928 147.736  0.00  0.00    +0.000 C 
ATOM     38  C   UNL     1     104.108 124.444 147.641  0.00  0.00    +0.000 C 
ATOM     39  C   UNL     1     103.497 124.467 148.193  0.00  0.00    +0.000 C 
ATOM     40  C   UNL     1     103.546 124.974 148.841  0.00  0.00    +0.000 C 
ATOM     41  C   UNL     1     104.207 125.459 148.937  0.00  0.00    +0.000 C 
ATOM     42  C   UNL     1     104.256 125.967 149.585  0.00  0.00    +0.000 C 
BRANCH  38  43
ATOM     43  O   UNL     1     104.060 123.936 146.992  0.00  0.00    +0.000 OA
BRANCH  43  45
ATOM     44  O   UNL     1     103.181 124.712 146.175  0.00  0.00    +0.000 OA
ATOM     45  C   UNL     1     103.415 123.982 146.480  0.00  0.00    +0.000 C 
ATOM     46  C   UNL     1     103.003 123.298 146.273  0.00  0.00    +0.000 C 
ENDBRANCH  43  45
ENDBRANCH  38  43
ENDBRANCH  33  37
ENDBRANCH   4  33
TORSDOF 9
ENDMDL
MODEL 3
REMARK VINA RESULT:      -9.9      2.460      4.812
REMARK  Name = 44258366
REMARK  9 active torsions:
REMARK  status: ('A' for Active; 'I' for Inactive)
REMARK    1  A    between atoms: O_1  and  C_16
REMARK    2  A    between atoms: O_1  and  C_21
REMARK    3  A    between atoms: O_6  and  C_22
REMARK    4  A    between atoms: O_6  and  C_34
REMARK    5  A    between atoms: O_10  and  C_30
REMARK    6  A    between atoms: O_15  and  C_45
REMARK    7  A    between atoms: C_18  and  C_26
REMARK    8  A    between atoms: C_20  and  C_27
REMARK    9  A    between atoms: C_38  and  C_40
REMARK                            x       y       z     vdW  Elec       q    Type
REMARK                         _______ _______ _______ _____ _____    ______ ____
ROOT
ATOM      1  O   UNL     1     114.129 130.220 140.700  0.00  0.00    +0.000 OA
ATOM      2  O   UNL     1     112.123 130.983 141.932  0.00  0.00    +0.000 OA
ATOM      3  O   UNL     1     113.574 131.730 142.176  0.00  0.00    +0.000 OA
ATOM      4  C   UNL     1     112.736 130.101 140.989  0.00  0.00    +0.000 C 
ATOM      5  C   UNL     1     112.792 130.729 141.522  0.00  0.00    +0.000 C 
ATOM      6  C   UNL     1     113.404 129.847 140.578  0.00  0.00    +0.000 C 
ATOM      7  C   UNL     1     113.517 131.102 141.643  0.00  0.00    +0.000 C 
ATOM      8  C   UNL     1     114.187 130.848 141.232  0.00  0.00    +0.000 C 
ENDROOT
BRANCH   6  12
ATOM      9  O   UNL     1     113.812 128.320 141.054  0.00  0.00    +0.000 OA
ATOM     10  O   UNL     1     113.172 127.320 138.415  0.00  0.00    +0.000 OA
ATOM     11  O   UNL     1     113.971 126.912 140.783  0.00  0.00    +0.000 OA
ATOM     12  C   UNL     1     113.348 129.219 140.046  0.00  0.00    +0.000 A 
ATOM     13  C   UNL     1     113.552 128.456 140.283  0.00  0.00    +0.000 A 
ATOM     14  C   UNL     1     113.087 129.355 139.275  0.00  0.00    +0.000 A 
ATOM     15  C   UNL     1     113.496 127.829 139.750  0.00  0.00    +0.000 A 
ATOM     16  C   UNL     1     113.031 128.728 138.741  0.00  0.00    +0.000 A 
ATOM     17  C   UNL     1     113.235 127.965 138.980  0.00  0.00    +0.000 A 
ATOM     18  C   UNL     1     113.711 127.039 140.010  0.00  0.00    +0.000 A 
ATOM     19  C   UNL     1     113.655 126.381 139.459  0.00  0.00    +0.000 A 
ATOM     20  C   UNL     1     113.384 126.523 138.657  0.00  0.00    +0.000 A 
BRANCH  20  21
ATOM     21  C   UNL     1     113.326 125.898 138.121  0.00  0.00    +0.000 A 
ATOM     22  C   UNL     1     112.591 125.564 137.952  0.00  0.00    +0.000 A 
ATOM     23  C   UNL     1     114.005 125.606 137.754  0.00  0.00    +0.000 A 
ATOM     24  C   UNL     1     112.534 124.940 137.417  0.00  0.00    +0.000 A 
ATOM     25  C   UNL     1     113.949 124.981 137.218  0.00  0.00    +0.000 A 
ATOM     26  C   UNL     1     113.213 124.649 137.050  0.00  0.00    +0.000 A 
BRANCH  26  27
ATOM     27  O   UNL     1     113.156 124.024 136.514  0.00  0.00    +0.000 OA
ATOM     28  C   UNL     1     112.473 123.562 136.488  0.00  0.00    +0.000 C 
ENDBRANCH  26  27
ENDBRANCH  20  21
BRANCH  14  29
ATOM     29  O   UNL     1     112.883 130.119 139.037  0.00  0.00    +0.000 OA
ATOM     30  C   UNL     1     112.774 130.286 138.236  0.00  0.00    +0.000 C 
ENDBRANCH  14  29
ENDBRANCH   6  12
BRANCH   8  32
ATOM     31  O   UNL     1     115.283 131.615 140.731  0.00  0.00    +0.000 OA
ATOM     32  C   UNL     1     114.912 131.221 141.354  0.00  0.00    +0.000 C 
ENDBRANCH   8  32
BRANCH   4  33
ATOM     33  O   UNL     1     112.010 129.727 140.867  0.00  0.00    +0.000 OA
BRANCH  33  37
ATOM     34  O   UNL     1     111.920 129.202 142.193  0.00  0.00    +0.000 OA
ATOM     35  O   UNL     1     109.452 129.366 142.090  0.00  0.00    +0.000 OA
ATOM     36  O   UNL     1     110.185 128.785 143.450  0.00  0.00    +0.000 OA
ATOM     37  C   UNL     1     111.553 129.492 141.513  0.00  0.00    +0.000 C 
ATOM     38  C   UNL     1     110.731 129.547 141.479  0.00  0.00    +0.000 C 
ATOM     39  C   UNL     1     110.275 129.311 142.124  0.00  0.00    +0.000 C 
ATOM     40  C   UNL     1     110.641 129.021 142.804  0.00  0.00    +0.000 C 
ATOM     41  C   UNL     1     111.463 128.966 142.838  0.00  0.00    +0.000 C 
ATOM     42  C   UNL     1     111.830 128.676 143.518  0.00  0.00    +0.000 C 
BRANCH  38  43
ATOM     43  O   UNL     1     110.365 129.837 140.799  0.00  0.00    +0.000 OA
BRANCH  43  45
ATOM     44  O   UNL     1     109.972 128.579 140.244  0.00  0.00    +0.000 OA
ATOM     45  C   UNL     1     109.811 129.374 140.399  0.00  0.00    +0.000 C 
ATOM     46  C   UNL     1     109.096 129.705 140.154  0.00  0.00    +0.000 C 
ENDBRANCH  43  45
ENDBRANCH  38  43
ENDBRANCH  33  37
ENDBRANCH   4  33
TORSDOF 9
ENDMDL
MODEL 4
REMARK VINA RESULT:      -9.9      2.126      3.645
REMARK  Name = 44258366
REMARK  9 active torsions:
REMARK  status: ('A' for Active; 'I' for Inactive)
REMARK    1  A    between atoms: O_1  and  C_16
REMARK    2  A    between atoms: O_1  and  C_21
REMARK    3  A    between atoms: O_6  and  C_22
REMARK    4  A    between atoms: O_6  and  C_34
REMARK    5  A    between atoms: O_10  and  C_30
REMARK    6  A    between atoms: O_15  and  C_45
REMARK    7  A    between atoms: C_18  and  C_26
REMARK    8  A    between atoms: C_20  and  C_27
REMARK    9  A    between atoms: C_38  and  C_40
REMARK                            x       y       z     vdW  Elec       q    Type
REMARK                         _______ _______ _______ _____ _____    ______ ____
ROOT
ATOM      1  O   UNL     1     113.619 126.242 136.452  0.00  0.00    +0.000 OA
ATOM      2  O   UNL     1     113.509 125.295 138.736  0.00  0.00    +0.000 OA
ATOM      3  O   UNL     1     114.775 124.918 137.747  0.00  0.00    +0.000 OA
ATOM      4  C   UNL     1     112.950 126.115 137.708  0.00  0.00    +0.000 C 
ATOM      5  C   UNL     1     113.546 125.610 137.975  0.00  0.00    +0.000 C 
ATOM      6  C   UNL     1     112.987 126.430 136.947  0.00  0.00    +0.000 C 
ATOM      7  C   UNL     1     114.179 125.422 137.481  0.00  0.00    +0.000 C 
ATOM      8  C   UNL     1     114.216 125.737 136.719  0.00  0.00    +0.000 C 
ENDROOT
BRANCH   6  12
ATOM      9  O   UNL     1     113.159 128.065 137.095  0.00  0.00    +0.000 OA
ATOM     10  O   UNL     1     110.571 128.456 135.862  0.00  0.00    +0.000 OA
ATOM     11  O   UNL     1     112.669 129.409 136.912  0.00  0.00    +0.000 OA
ATOM     12  C   UNL     1     112.391 126.935 136.680  0.00  0.00    +0.000 A 
ATOM     13  C   UNL     1     112.477 127.751 136.754  0.00  0.00    +0.000 A 
ATOM     14  C   UNL     1     111.708 126.621 136.338  0.00  0.00    +0.000 A 
ATOM     15  C   UNL     1     111.881 128.256 136.486  0.00  0.00    +0.000 A 
ATOM     16  C   UNL     1     111.112 127.124 136.070  0.00  0.00    +0.000 A 
ATOM     17  C   UNL     1     111.199 127.942 136.144  0.00  0.00    +0.000 A 
ATOM     18  C   UNL     1     111.983 129.104 136.569  0.00  0.00    +0.000 A 
ATOM     19  C   UNL     1     111.366 129.635 136.292  0.00  0.00    +0.000 A 
ATOM     20  C   UNL     1     110.655 129.309 135.936  0.00  0.00    +0.000 A 
BRANCH  20  21
ATOM     21  C   UNL     1     110.057 129.810 135.667  0.00  0.00    +0.000 A 
ATOM     22  C   UNL     1     110.070 130.090 134.892  0.00  0.00    +0.000 A 
ATOM     23  C   UNL     1     109.445 130.030 136.175  0.00  0.00    +0.000 A 
ATOM     24  C   UNL     1     109.473 130.591 134.624  0.00  0.00    +0.000 A 
ATOM     25  C   UNL     1     108.846 130.530 135.907  0.00  0.00    +0.000 A 
ATOM     26  C   UNL     1     108.861 130.811 135.132  0.00  0.00    +0.000 A 
BRANCH  26  27
ATOM     27  O   UNL     1     108.262 131.311 134.864  0.00  0.00    +0.000 OA
ATOM     28  C   UNL     1     108.204 132.080 135.158  0.00  0.00    +0.000 C 
ENDBRANCH  26  27
ENDBRANCH  20  21
BRANCH  14  29
ATOM     29  O   UNL     1     111.622 125.804 136.264  0.00  0.00    +0.000 OA
ATOM     30  C   UNL     1     111.002 125.493 135.816  0.00  0.00    +0.000 C 
ENDBRANCH  14  29
ENDBRANCH   6  12
BRANCH   8  32
ATOM     31  O   UNL     1     115.177 126.128 135.736  0.00  0.00    +0.000 OA
ATOM     32  C   UNL     1     114.848 125.549 136.224  0.00  0.00    +0.000 C 
ENDBRANCH   8  32
BRANCH   4  33
ATOM     33  O   UNL     1     112.317 126.304 138.202  0.00  0.00    +0.000 OA
BRANCH  33  37
ATOM     34  O   UNL     1     113.138 126.927 139.192  0.00  0.00    +0.000 OA
ATOM     35  O   UNL     1     111.507 126.295 140.943  0.00  0.00    +0.000 OA
ATOM     36  O   UNL     1     112.872 127.129 141.349  0.00  0.00    +0.000 OA
ATOM     37  C   UNL     1     112.456 126.510 138.990  0.00  0.00    +0.000 C 
ATOM     38  C   UNL     1     111.912 126.299 139.574  0.00  0.00    +0.000 C 
ATOM     39  C   UNL     1     112.051 126.505 140.360  0.00  0.00    +0.000 C 
ATOM     40  C   UNL     1     112.733 126.922 140.563  0.00  0.00    +0.000 C 
ATOM     41  C   UNL     1     113.276 127.133 139.979  0.00  0.00    +0.000 C 
ATOM     42  C   UNL     1     113.959 127.550 140.182  0.00  0.00    +0.000 C 
BRANCH  38  43
ATOM     43  O   UNL     1     111.230 125.882 139.370  0.00  0.00    +0.000 OA
BRANCH  43  45
ATOM     44  O   UNL     1     110.291 126.959 139.403  0.00  0.00    +0.000 OA
ATOM     45  C   UNL     1     110.489 126.177 139.579  0.00  0.00    +0.000 C 
ATOM     46  C   UNL     1     109.945 125.692 139.965  0.00  0.00    +0.000 C 
ENDBRANCH  43  45
ENDBRANCH  38  43
ENDBRANCH  33  37
ENDBRANCH   4  33
TORSDOF 9
ENDMDL
MODEL 5
REMARK VINA RESULT:      -9.7      2.613      5.048
REMARK  Name = 44258366
REMARK  9 active torsions:
REMARK  status: ('A' for Active; 'I' for Inactive)
REMARK    1  A    between atoms: O_1  and  C_16
REMARK    2  A    between atoms: O_1  and  C_21
REMARK    3  A    between atoms: O_6  and  C_22
REMARK    4  A    between atoms: O_6  and  C_34
REMARK    5  A    between atoms: O_10  and  C_30
REMARK    6  A    between atoms: O_15  and  C_45
REMARK    7  A    between atoms: C_18  and  C_26
REMARK    8  A    between atoms: C_20  and  C_27
REMARK    9  A    between atoms: C_38  and  C_40
REMARK                            x       y       z     vdW  Elec       q    Type
REMARK                         _______ _______ _______ _____ _____    ______ ____
ROOT
ATOM      1  O   UNL     1     113.800 128.116 140.901  0.00  0.00    +0.000 OA
ATOM      2  O   UNL     1     112.626 127.910 138.732  0.00  0.00    +0.000 OA
ATOM      3  O   UNL     1     113.560 126.667 139.286  0.00  0.00    +0.000 OA
ATOM      4  C   UNL     1     112.942 128.668 139.902  0.00  0.00    +0.000 C 
ATOM      5  C   UNL     1     113.017 127.979 139.455  0.00  0.00    +0.000 C 
ATOM      6  C   UNL     1     113.333 128.737 140.624  0.00  0.00    +0.000 C 
ATOM      7  C   UNL     1     113.484 127.357 139.732  0.00  0.00    +0.000 C 
ATOM      8  C   UNL     1     113.876 127.426 140.456  0.00  0.00    +0.000 C 
ENDROOT
BRANCH   6  12
ATOM      9  O   UNL     1     112.235 128.809 141.854  0.00  0.00    +0.000 OA
ATOM     10  O   UNL     1     113.040 131.530 142.421  0.00  0.00    +0.000 OA
ATOM     11  O   UNL     1     111.589 129.519 142.932  0.00  0.00    +0.000 OA
ATOM     12  C   UNL     1     113.258 129.427 141.071  0.00  0.00    +0.000 A 
ATOM     13  C   UNL     1     112.709 129.463 141.686  0.00  0.00    +0.000 A 
ATOM     14  C   UNL     1     113.732 130.080 140.902  0.00  0.00    +0.000 A 
ATOM     15  C   UNL     1     112.634 130.153 142.132  0.00  0.00    +0.000 A 
ATOM     16  C   UNL     1     113.658 130.770 141.348  0.00  0.00    +0.000 A 
ATOM     17  C   UNL     1     113.108 130.806 141.964  0.00  0.00    +0.000 A 
ATOM     18  C   UNL     1     112.059 130.178 142.770  0.00  0.00    +0.000 A 
ATOM     19  C   UNL     1     111.977 130.894 143.239  0.00  0.00    +0.000 A 
ATOM     20  C   UNL     1     112.470 131.574 143.063  0.00  0.00    +0.000 A 
BRANCH  20  21
ATOM     21  C   UNL     1     112.398 132.266 143.508  0.00  0.00    +0.000 A 
ATOM     22  C   UNL     1     112.905 132.403 144.144  0.00  0.00    +0.000 A 
ATOM     23  C   UNL     1     111.819 132.821 143.315  0.00  0.00    +0.000 A 
ATOM     24  C   UNL     1     112.833 133.094 144.588  0.00  0.00    +0.000 A 
ATOM     25  C   UNL     1     111.747 133.513 143.758  0.00  0.00    +0.000 A 
ATOM     26  C   UNL     1     112.254 133.649 144.395  0.00  0.00    +0.000 A 
BRANCH  26  27
ATOM     27  O   UNL     1     112.181 134.341 144.838  0.00  0.00    +0.000 OA
ATOM     28  C   UNL     1     112.018 135.057 144.464  0.00  0.00    +0.000 C 
ENDBRANCH  26  27
ENDBRANCH  20  21
BRANCH  14  29
ATOM     29  O   UNL     1     114.281 130.044 140.287  0.00  0.00    +0.000 OA
ATOM     30  C   UNL     1     114.863 130.625 140.219  0.00  0.00    +0.000 C 
ENDBRANCH  14  29
ENDBRANCH   6  12
BRANCH   8  32
ATOM     31  O   UNL     1     115.036 126.965 141.150  0.00  0.00    +0.000 OA
ATOM     32  C   UNL     1     114.342 126.804 140.732  0.00  0.00    +0.000 C 
ENDBRANCH   8  32
BRANCH   4  33
ATOM     33  O   UNL     1     112.475 129.290 139.625  0.00  0.00    +0.000 OA
BRANCH  33  37
ATOM     34  O   UNL     1     111.239 128.580 139.731  0.00  0.00    +0.000 OA
ATOM     35  O   UNL     1     110.360 129.820 137.777  0.00  0.00    +0.000 OA
ATOM     36  O   UNL     1     109.417 128.697 138.534  0.00  0.00    +0.000 OA
ATOM     37  C   UNL     1     111.710 129.142 139.352  0.00  0.00    +0.000 C 
ATOM     38  C   UNL     1     111.417 129.555 138.701  0.00  0.00    +0.000 C 
ATOM     39  C   UNL     1     110.653 129.407 138.428  0.00  0.00    +0.000 C 
ATOM     40  C   UNL     1     110.182 128.846 138.806  0.00  0.00    +0.000 C 
ATOM     41  C   UNL     1     110.475 128.432 139.457  0.00  0.00    +0.000 C 
ATOM     42  C   UNL     1     110.003 127.870 139.836  0.00  0.00    +0.000 C 
BRANCH  38  43
ATOM     43  O   UNL     1     111.889 130.117 138.323  0.00  0.00    +0.000 OA
BRANCH  43  45
ATOM     44  O   UNL     1     111.317 131.280 138.927  0.00  0.00    +0.000 OA
ATOM     45  C   UNL     1     111.633 130.899 138.265  0.00  0.00    +0.000 C 
ATOM     46  C   UNL     1     111.691 131.301 137.548  0.00  0.00    +0.000 C 
ENDBRANCH  43  45
ENDBRANCH  38  43
ENDBRANCH  33  37
ENDBRANCH   4  33
TORSDOF 9
ENDMDL
MODEL 6
REMARK VINA RESULT:      -9.7      1.883      3.767
REMARK  Name = 44258366
REMARK  9 active torsions:
REMARK  status: ('A' for Active; 'I' for Inactive)
REMARK    1  A    between atoms: O_1  and  C_16
REMARK    2  A    between atoms: O_1  and  C_21
REMARK    3  A    between atoms: O_6  and  C_22
REMARK    4  A    between atoms: O_6  and  C_34
REMARK    5  A    between atoms: O_10  and  C_30
REMARK    6  A    between atoms: O_15  and  C_45
REMARK    7  A    between atoms: C_18  and  C_26
REMARK    8  A    between atoms: C_20  and  C_27
REMARK    9  A    between atoms: C_38  and  C_40
REMARK                            x       y       z     vdW  Elec       q    Type
REMARK                         _______ _______ _______ _____ _____    ______ ____
ROOT
ATOM      1  O   UNL     1     111.214 126.099 136.487  0.00  0.00    +0.000 OA
ATOM      2  O   UNL     1     112.107 125.141 138.586  0.00  0.00    +0.000 OA
ATOM      3  O   UNL     1     111.646 124.144 137.355  0.00  0.00    +0.000 OA
ATOM      4  C   UNL     1     111.742 126.278 137.802  0.00  0.00    +0.000 C 
ATOM      5  C   UNL     1     111.809 125.460 137.887  0.00  0.00    +0.000 C 
ATOM      6  C   UNL     1     111.444 126.597 137.103  0.00  0.00    +0.000 C 
ATOM      7  C   UNL     1     111.579 124.961 137.271  0.00  0.00    +0.000 C 
ATOM      8  C   UNL     1     111.281 125.281 136.571  0.00  0.00    +0.000 C 
ENDROOT
BRANCH   6  12
ATOM      9  O   UNL     1     110.003 127.343 137.402  0.00  0.00    +0.000 OA
ATOM     10  O   UNL     1     111.187 129.903 136.755  0.00  0.00    +0.000 OA
ATOM     11  O   UNL     1     109.186 128.530 137.475  0.00  0.00    +0.000 OA
ATOM     12  C   UNL     1     111.377 127.415 137.017  0.00  0.00    +0.000 A 
ATOM     13  C   UNL     1     110.657 127.788 137.167  0.00  0.00    +0.000 A 
ATOM     14  C   UNL     1     112.031 127.860 136.783  0.00  0.00    +0.000 A 
ATOM     15  C   UNL     1     110.590 128.606 137.082  0.00  0.00    +0.000 A 
ATOM     16  C   UNL     1     111.965 128.678 136.697  0.00  0.00    +0.000 A 
ATOM     17  C   UNL     1     111.244 129.051 136.847  0.00  0.00    +0.000 A 
ATOM     18  C   UNL     1     109.834 128.983 137.241  0.00  0.00    +0.000 A 
ATOM     19  C   UNL     1     109.758 129.835 137.154  0.00  0.00    +0.000 A 
ATOM     20  C   UNL     1     110.439 130.298 136.909  0.00  0.00    +0.000 A 
BRANCH  20  21
ATOM     21  C   UNL     1     110.376 131.116 136.823  0.00  0.00    +0.000 A 
ATOM     22  C   UNL     1     110.748 131.618 137.362  0.00  0.00    +0.000 A 
ATOM     23  C   UNL     1     109.941 131.432 136.197  0.00  0.00    +0.000 A 
ATOM     24  C   UNL     1     110.684 132.436 137.276  0.00  0.00    +0.000 A 
ATOM     25  C   UNL     1     109.877 132.250 136.110  0.00  0.00    +0.000 A 
ATOM     26  C   UNL     1     110.249 132.751 136.650  0.00  0.00    +0.000 A 
BRANCH  26  27
ATOM     27  O   UNL     1     110.186 133.569 136.563  0.00  0.00    +0.000 OA
ATOM     28  C   UNL     1     110.864 134.038 136.558  0.00  0.00    +0.000 C 
ENDBRANCH  26  27
ENDBRANCH  20  21
BRANCH  14  29
ATOM     29  O   UNL     1     112.752 127.487 136.633  0.00  0.00    +0.000 OA
ATOM     30  C   UNL     1     113.365 127.904 136.270  0.00  0.00    +0.000 C 
ENDBRANCH  14  29
ENDBRANCH   6  12
BRANCH   8  32
ATOM     31  O   UNL     1     110.544 125.062 135.366  0.00  0.00    +0.000 OA
ATOM     32  C   UNL     1     111.050 124.782 135.955  0.00  0.00    +0.000 C 
ENDBRANCH   8  32
BRANCH   4  33
ATOM     33  O   UNL     1     111.973 126.776 138.417  0.00  0.00    +0.000 OA
BRANCH  33  37
ATOM     34  O   UNL     1     110.930 126.380 139.311  0.00  0.00    +0.000 OA
ATOM     35  O   UNL     1     112.450 126.722 141.235  0.00  0.00    +0.000 OA
ATOM     36  O   UNL     1     110.901 126.212 141.487  0.00  0.00    +0.000 OA
ATOM     37  C   UNL     1     111.705 126.635 139.186  0.00  0.00    +0.000 C 
ATOM     38  C   UNL     1     112.211 126.749 139.827  0.00  0.00    +0.000 C 
ATOM     39  C   UNL     1     111.943 126.608 140.594  0.00  0.00    +0.000 C 
ATOM     40  C   UNL     1     111.170 126.353 140.720  0.00  0.00    +0.000 C 
ATOM     41  C   UNL     1     110.663 126.239 140.079  0.00  0.00    +0.000 C 
ATOM     42  C   UNL     1     109.888 125.984 140.205  0.00  0.00    +0.000 C 
BRANCH  38  43
ATOM     43  O   UNL     1     112.986 127.005 139.700  0.00  0.00    +0.000 OA
BRANCH  43  45
ATOM     44  O   UNL     1     112.825 128.395 139.992  0.00  0.00    +0.000 OA
ATOM     45  C   UNL     1     113.257 127.694 140.062  0.00  0.00    +0.000 C 
ATOM     46  C   UNL     1     113.959 127.685 140.495  0.00  0.00    +0.000 C 
ENDBRANCH  43  45
ENDBRANCH  38  43
ENDBRANCH  33  37
ENDBRANCH   4  33
TORSDOF 9
ENDMDL
MODEL 7
REMARK VINA RESULT:      -9.7      1.374      3.445
REMARK  Name = 44258366
REMARK  9 active torsions:
REMARK  status: ('A' for Active; 'I' for Inactive)
REMARK    1  A    between atoms: O_1  and  C_16
REMARK    2  A    between atoms: O_1  and  C_21
REMARK    3  A    between atoms: O_6  and  C_22
REMARK    4  A    between atoms: O_6  and  C_34
REMARK    5  A    between atoms: O_10  and  C_30
REMARK    6  A    between atoms: O_15  and  C_45
REMARK    7  A    between atoms: C_18  and  C_26
REMARK    8  A    between atoms: C_20  and  C_27
REMARK    9  A    between atoms: C_38  and  C_40
REMARK                            x       y       z     vdW  Elec       q    Type
REMARK                         _______ _______ _______ _____ _____    ______ ____
ROOT
ATOM      1  O   UNL     1     112.951 127.504 138.993  0.00  0.00    +0.000 OA
ATOM      2  O   UNL     1     113.626 128.319 141.230  0.00  0.00    +0.000 OA
ATOM      3  O   UNL     1     114.229 126.895 140.654  0.00  0.00    +0.000 OA
ATOM      4  C   UNL     1     112.874 128.488 140.026  0.00  0.00    +0.000 C 
ATOM      5  C   UNL     1     113.401 128.048 140.485  0.00  0.00    +0.000 C 
ATOM      6  C   UNL     1     112.649 128.216 139.281  0.00  0.00    +0.000 C 
ATOM      7  C   UNL     1     113.702 127.336 140.197  0.00  0.00    +0.000 C 
ATOM      8  C   UNL     1     113.477 127.064 139.451  0.00  0.00    +0.000 C 
ENDROOT
BRANCH   6  12
ATOM      9  O   UNL     1     113.220 129.233 138.113  0.00  0.00    +0.000 OA
ATOM     10  O   UNL     1     110.510 129.987 137.436  0.00  0.00    +0.000 OA
ATOM     11  O   UNL     1     113.005 130.192 137.057  0.00  0.00    +0.000 OA
ATOM     12  C   UNL     1     112.123 128.656 138.823  0.00  0.00    +0.000 A 
ATOM     13  C   UNL     1     112.408 129.164 138.239  0.00  0.00    +0.000 A 
ATOM     14  C   UNL     1     111.310 128.588 138.948  0.00  0.00    +0.000 A 
ATOM     15  C   UNL     1     111.881 129.604 137.780  0.00  0.00    +0.000 A 
ATOM     16  C   UNL     1     110.783 129.027 138.491  0.00  0.00    +0.000 A 
ATOM     17  C   UNL     1     111.069 129.535 137.906  0.00  0.00    +0.000 A 
ATOM     18  C   UNL     1     112.191 130.129 137.176  0.00  0.00    +0.000 A 
ATOM     19  C   UNL     1     111.647 130.590 136.695  0.00  0.00    +0.000 A 
ATOM     20  C   UNL     1     110.801 130.518 136.826  0.00  0.00    +0.000 A 
BRANCH  20  21
ATOM     21  C   UNL     1     110.271 130.957 136.370  0.00  0.00    +0.000 A 
ATOM     22  C   UNL     1     110.042 131.711 136.612  0.00  0.00    +0.000 A 
ATOM     23  C   UNL     1     109.970 130.639 135.670  0.00  0.00    +0.000 A 
ATOM     24  C   UNL     1     109.513 132.148 136.156  0.00  0.00    +0.000 A 
ATOM     25  C   UNL     1     109.440 131.077 135.213  0.00  0.00    +0.000 A 
ATOM     26  C   UNL     1     109.212 131.831 135.457  0.00  0.00    +0.000 A 
BRANCH  26  27
ATOM     27  O   UNL     1     108.682 132.268 135.000  0.00  0.00    +0.000 OA
ATOM     28  C   UNL     1     107.874 132.106 135.036  0.00  0.00    +0.000 C 
ENDBRANCH  26  27
ENDBRANCH  20  21
BRANCH  14  29
ATOM     29  O   UNL     1     111.024 128.079 139.533  0.00  0.00    +0.000 OA
ATOM     30  C   UNL     1     110.221 127.891 139.560  0.00  0.00    +0.000 C 
ENDBRANCH  14  29
ENDBRANCH   6  12
BRANCH   8  32
ATOM     31  O   UNL     1     113.380 125.948 138.563  0.00  0.00    +0.000 OA
ATOM     32  C   UNL     1     113.778 126.352 139.163  0.00  0.00    +0.000 C 
ENDBRANCH   8  32
BRANCH   4  33
ATOM     33  O   UNL     1     112.573 129.200 140.314  0.00  0.00    +0.000 OA
BRANCH  33  37
ATOM     34  O   UNL     1     113.833 129.874 140.302  0.00  0.00    +0.000 OA
ATOM     35  O   UNL     1     113.114 131.250 142.230  0.00  0.00    +0.000 OA
ATOM     36  O   UNL     1     114.613 131.466 141.576  0.00  0.00    +0.000 OA
ATOM     37  C   UNL     1     113.083 129.767 140.630  0.00  0.00    +0.000 C 
ATOM     38  C   UNL     1     112.844 130.225 141.273  0.00  0.00    +0.000 C 
ATOM     39  C   UNL     1     113.353 130.791 141.588  0.00  0.00    +0.000 C 
ATOM     40  C   UNL     1     114.103 130.899 141.261  0.00  0.00    +0.000 C 
ATOM     41  C   UNL     1     114.342 130.441 140.618  0.00  0.00    +0.000 C 
ATOM     42  C   UNL     1     115.092 130.548 140.291  0.00  0.00    +0.000 C 
BRANCH  38  43
ATOM     43  O   UNL     1     112.094 130.117 141.599  0.00  0.00    +0.000 OA
BRANCH  43  45
ATOM     44  O   UNL     1     111.452 131.238 140.986  0.00  0.00    +0.000 OA
ATOM     45  C   UNL     1     111.568 130.751 141.643  0.00  0.00    +0.000 C 
ATOM     46  C   UNL     1     111.157 130.899 142.342  0.00  0.00    +0.000 C 
ENDBRANCH  43  45
ENDBRANCH  38  43
ENDBRANCH  33  37
ENDBRANCH   4  33
TORSDOF 9
ENDMDL
MODEL 8
REMARK VINA RESULT:      -9.6      1.857      5.022
REMARK  Name = 44258366
REMARK  9 active torsions:
REMARK  status: ('A' for Active; 'I' for Inactive)
REMARK    1  A    between atoms: O_1  and  C_16
REMARK    2  A    between atoms: O_1  and  C_21
REMARK    3  A    between atoms: O_6  and  C_22
REMARK    4  A    between atoms: O_6  and  C_34
REMARK    5  A    between atoms: O_10  and  C_30
REMARK    6  A    between atoms: O_15  and  C_45
REMARK    7  A    between atoms: C_18  and  C_26
REMARK    8  A    between atoms: C_20  and  C_27
REMARK    9  A    between atoms: C_38  and  C_40
REMARK                            x       y       z     vdW  Elec       q    Type
REMARK                         _______ _______ _______ _____ _____    ______ ____
ROOT
ATOM      1  O   UNL     1     112.138 129.993 141.902  0.00  0.00    +0.000 OA
ATOM      2  O   UNL     1     110.644 131.793 141.094  0.00  0.00    +0.000 OA
ATOM      3  O   UNL     1     110.983 131.662 142.704  0.00  0.00    +0.000 OA
ATOM      4  C   UNL     1     111.471 130.658 140.828  0.00  0.00    +0.000 C 
ATOM      5  C   UNL     1     111.142 131.193 141.363  0.00  0.00    +0.000 C 
ATOM      6  C   UNL     1     111.969 130.059 141.097  0.00  0.00    +0.000 C 
ATOM      7  C   UNL     1     111.311 131.128 142.168  0.00  0.00    +0.000 C 
ATOM      8  C   UNL     1     111.810 130.528 142.438  0.00  0.00    +0.000 C 
ENDROOT
BRANCH   6  12
ATOM      9  O   UNL     1     111.241 128.602 140.832  0.00  0.00    +0.000 OA
ATOM     10  O   UNL     1     113.309 127.906 138.932  0.00  0.00    +0.000 OA
ATOM     11  O   UNL     1     111.181 127.319 140.173  0.00  0.00    +0.000 OA
ATOM     12  C   UNL     1     112.298 129.523 140.562  0.00  0.00    +0.000 A 
ATOM     13  C   UNL     1     111.934 128.795 140.430  0.00  0.00    +0.000 A 
ATOM     14  C   UNL     1     112.991 129.717 140.159  0.00  0.00    +0.000 A 
ATOM     15  C   UNL     1     112.263 128.260 139.895  0.00  0.00    +0.000 A 
ATOM     16  C   UNL     1     113.321 129.183 139.624  0.00  0.00    +0.000 A 
ATOM     17  C   UNL     1     112.957 128.454 139.492  0.00  0.00    +0.000 A 
ATOM     18  C   UNL     1     111.875 127.505 139.766  0.00  0.00    +0.000 A 
ATOM     19  C   UNL     1     112.213 126.944 139.209  0.00  0.00    +0.000 A 
ATOM     20  C   UNL     1     112.935 127.146 138.790  0.00  0.00    +0.000 A 
BRANCH  20  21
ATOM     21  C   UNL     1     113.267 126.613 138.254  0.00  0.00    +0.000 A 
ATOM     22  C   UNL     1     113.802 126.042 138.516  0.00  0.00    +0.000 A 
ATOM     23  C   UNL     1     113.064 126.652 137.455  0.00  0.00    +0.000 A 
ATOM     24  C   UNL     1     114.134 125.511 137.981  0.00  0.00    +0.000 A 
ATOM     25  C   UNL     1     113.396 126.120 136.919  0.00  0.00    +0.000 A 
ATOM     26  C   UNL     1     113.931 125.550 137.182  0.00  0.00    +0.000 A 
BRANCH  26  27
ATOM     27  O   UNL     1     114.262 125.018 136.646  0.00  0.00    +0.000 OA
ATOM     28  C   UNL     1     114.940 125.225 136.224  0.00  0.00    +0.000 C 
ENDBRANCH  26  27
ENDBRANCH  20  21
BRANCH  14  29
ATOM     29  O   UNL     1     113.356 130.446 140.292  0.00  0.00    +0.000 OA
ATOM     30  C   UNL     1     114.123 130.579 140.020  0.00  0.00    +0.000 C 
ENDBRANCH  14  29
ENDBRANCH   6  12
BRANCH   8  32
ATOM     31  O   UNL     1     112.002 129.719 143.600  0.00  0.00    +0.000 OA
ATOM     32  C   UNL     1     111.980 130.462 143.243  0.00  0.00    +0.000 C 
ENDBRANCH   8  32
BRANCH   4  33
ATOM     33  O   UNL     1     111.301 130.723 140.024  0.00  0.00    +0.000 OA
BRANCH  33  37
ATOM     34  O   UNL     1     109.906 130.457 140.182  0.00  0.00    +0.000 OA
ATOM     35  O   UNL     1     109.414 131.858 138.203  0.00  0.00    +0.000 OA
ATOM     36  O   UNL     1     108.183 131.125 139.021  0.00  0.00    +0.000 OA
ATOM     37  C   UNL     1     110.521 130.824 139.773  0.00  0.00    +0.000 C 
ATOM     38  C   UNL     1     110.357 131.291 139.113  0.00  0.00    +0.000 C 
ATOM     39  C   UNL     1     109.578 131.391 138.863  0.00  0.00    +0.000 C 
ATOM     40  C   UNL     1     108.963 131.025 139.272  0.00  0.00    +0.000 C 
ATOM     41  C   UNL     1     109.127 130.558 139.931  0.00  0.00    +0.000 C 
ATOM     42  C   UNL     1     108.511 130.191 140.341  0.00  0.00    +0.000 C 
BRANCH  38  43
ATOM     43  O   UNL     1     110.973 131.657 138.704  0.00  0.00    +0.000 OA
BRANCH  43  45
ATOM     44  O   UNL     1     111.074 130.742 137.610  0.00  0.00    +0.000 OA
ATOM     45  C   UNL     1     111.073 131.517 137.897  0.00  0.00    +0.000 C 
ATOM     46  C   UNL     1     111.172 132.149 137.376  0.00  0.00    +0.000 C 
ENDBRANCH  43  45
ENDBRANCH  38  43
ENDBRANCH  33  37
ENDBRANCH   4  33
TORSDOF 9
ENDMDL
MODEL 9
REMARK VINA RESULT:      -9.6      3.943      6.886
REMARK  Name = 44258366
REMARK  9 active torsions:
REMARK  status: ('A' for Active; 'I' for Inactive)
REMARK    1  A    between atoms: O_1  and  C_16
REMARK    2  A    between atoms: O_1  and  C_21
REMARK    3  A    between atoms: O_6  and  C_22
REMARK    4  A    between atoms: O_6  and  C_34
REMARK    5  A    between atoms: O_10  and  C_30
REMARK    6  A    between atoms: O_15  and  C_45
REMARK    7  A    between atoms: C_18  and  C_26
REMARK    8  A    between atoms: C_20  and  C_27
REMARK    9  A    between atoms: C_38  and  C_40
REMARK                            x       y       z     vdW  Elec       q    Type
REMARK                         _______ _______ _______ _____ _____    ______ ____
ROOT
ATOM      1  O   UNL     1     110.168 130.876 141.585  0.00  0.00    +0.000 OA
ATOM      2  O   UNL     1     111.942 130.452 139.913  0.00  0.00    +0.000 OA
ATOM      3  O   UNL     1     110.358 130.457 139.451  0.00  0.00    +0.000 OA
ATOM      4  C   UNL     1     111.551 130.733 141.259  0.00  0.00    +0.000 C 
ATOM      5  C   UNL     1     111.351 130.593 140.470  0.00  0.00    +0.000 C 
ATOM      6  C   UNL     1     110.960 130.874 141.815  0.00  0.00    +0.000 C 
ATOM      7  C   UNL     1     110.559 130.596 140.239  0.00  0.00    +0.000 C 
ATOM      8  C   UNL     1     109.967 130.737 140.797  0.00  0.00    +0.000 C 
ENDROOT
BRANCH   6  12
ATOM      9  O   UNL     1     111.539 132.349 142.273  0.00  0.00    +0.000 OA
ATOM     10  O   UNL     1     111.762 131.421 145.005  0.00  0.00    +0.000 OA
ATOM     11  O   UNL     1     112.037 133.255 143.281  0.00  0.00    +0.000 OA
ATOM     12  C   UNL     1     111.159 131.013 142.604  0.00  0.00    +0.000 A 
ATOM     13  C   UNL     1     111.449 131.750 142.833  0.00  0.00    +0.000 A 
ATOM     14  C   UNL     1     111.069 130.414 143.164  0.00  0.00    +0.000 A 
ATOM     15  C   UNL     1     111.649 131.889 143.621  0.00  0.00    +0.000 A 
ATOM     16  C   UNL     1     111.268 130.551 143.952  0.00  0.00    +0.000 A 
ATOM     17  C   UNL     1     111.558 131.290 144.181  0.00  0.00    +0.000 A 
ATOM     18  C   UNL     1     111.949 132.661 143.847  0.00  0.00    +0.000 A 
ATOM     19  C   UNL     1     112.159 132.812 144.667  0.00  0.00    +0.000 A 
ATOM     20  C   UNL     1     112.065 132.188 145.250  0.00  0.00    +0.000 A 
BRANCH  20  21
ATOM     21  C   UNL     1     112.263 132.323 146.040  0.00  0.00    +0.000 A 
ATOM     22  C   UNL     1     112.977 132.040 146.340  0.00  0.00    +0.000 A 
ATOM     23  C   UNL     1     111.747 132.741 146.528  0.00  0.00    +0.000 A 
ATOM     24  C   UNL     1     113.175 132.175 147.129  0.00  0.00    +0.000 A 
ATOM     25  C   UNL     1     111.944 132.877 147.318  0.00  0.00    +0.000 A 
ATOM     26  C   UNL     1     112.659 132.593 147.617  0.00  0.00    +0.000 A 
BRANCH  26  27
ATOM     27  O   UNL     1     112.856 132.729 148.407  0.00  0.00    +0.000 OA
ATOM     28  C   UNL     1     112.271 132.934 148.950  0.00  0.00    +0.000 C 
ENDBRANCH  26  27
ENDBRANCH  20  21
BRANCH  14  29
ATOM     29  O   UNL     1     110.779 129.675 142.935  0.00  0.00    +0.000 OA
ATOM     30  C   UNL     1     110.482 129.155 143.502  0.00  0.00    +0.000 C 
ENDBRANCH  14  29
ENDBRANCH   6  12
BRANCH   8  32
ATOM     31  O   UNL     1     108.631 131.217 140.963  0.00  0.00    +0.000 OA
ATOM     32  C   UNL     1     109.175 130.740 140.566  0.00  0.00    +0.000 C 
ENDBRANCH   8  32
BRANCH   4  33
ATOM     33  O   UNL     1     112.343 130.730 141.490  0.00  0.00    +0.000 OA
BRANCH  33  37
ATOM     34  O   UNL     1     112.566 129.328 141.328  0.00  0.00    +0.000 OA
ATOM     35  O   UNL     1     114.850 129.787 140.493  0.00  0.00    +0.000 OA
ATOM     36  O   UNL     1     114.311 128.232 140.609  0.00  0.00    +0.000 OA
ATOM     37  C   UNL     1     112.835 130.105 141.269  0.00  0.00    +0.000 C 
ATOM     38  C   UNL     1     113.597 130.258 140.991  0.00  0.00    +0.000 C 
ATOM     39  C   UNL     1     114.088 129.634 140.771  0.00  0.00    +0.000 C 
ATOM     40  C   UNL     1     113.819 128.857 140.829  0.00  0.00    +0.000 C 
ATOM     41  C   UNL     1     113.058 128.704 141.107  0.00  0.00    +0.000 C 
ATOM     42  C   UNL     1     112.788 127.926 141.166  0.00  0.00    +0.000 C 
BRANCH  38  43
ATOM     43  O   UNL     1     113.866 131.036 140.933  0.00  0.00    +0.000 OA
BRANCH  43  45
ATOM     44  O   UNL     1     114.636 131.326 142.102  0.00  0.00    +0.000 OA
ATOM     45  C   UNL     1     114.582 131.252 141.281  0.00  0.00    +0.000 C 
ATOM     46  C   UNL     1     115.244 131.393 140.810  0.00  0.00    +0.000 C 
ENDBRANCH  43  45
ENDBRANCH  38  43
ENDBRANCH  33  37
ENDBRANCH   4  33
TORSDOF 9
ENDMDL
MODEL 10
REMARK VINA RESULT:      -9.5      2.065      5.052
REMARK  Name = 44258366
REMARK  9 active torsions:
REMARK  status: ('A' for Active; 'I' for Inactive)
REMARK    1  A    between atoms: O_1  and  C_16
REMARK    2  A    between atoms: O_1  and  C_21
REMARK    3  A    between atoms: O_6  and  C_22
REMARK    4  A    between atoms: O_6  and  C_34
REMARK    5  A    between atoms: O_10  and  C_30
REMARK    6  A    between atoms: O_15  and  C_45
REMARK    7  A    between atoms: C_18  and  C_26
REMARK    8  A    between atoms: C_20  and  C_27
REMARK    9  A    between atoms: C_38  and  C_40
REMARK                            x       y       z     vdW  Elec       q    Type
REMARK                         _______ _______ _______ _____ _____    ______ ____
ROOT
ATOM      1  O   UNL     1     110.033 131.252 137.028  0.00  0.00    +0.000 OA
ATOM      2  O   UNL     1     110.497 132.224 139.255  0.00  0.00    +0.000 OA
ATOM      3  O   UNL     1     109.733 133.126 138.105  0.00  0.00    +0.000 OA
ATOM      4  C   UNL     1     110.570 131.125 138.345  0.00  0.00    +0.000 C 
ATOM      5  C   UNL     1     110.343 131.900 138.513  0.00  0.00    +0.000 C 
ATOM      6  C   UNL     1     110.416 130.801 137.603  0.00  0.00    +0.000 C 
ATOM      7  C   UNL     1     109.960 132.351 137.938  0.00  0.00    +0.000 C 
ATOM      8  C   UNL     1     109.806 132.027 137.194  0.00  0.00    +0.000 C 
ENDROOT
BRANCH   6  12
ATOM      9  O   UNL     1     109.324 129.571 137.741  0.00  0.00    +0.000 OA
ATOM     10  O   UNL     1     111.349 127.673 136.921  0.00  0.00    +0.000 OA
ATOM     11  O   UNL     1     108.976 128.173 137.649  0.00  0.00    +0.000 OA
ATOM     12  C   UNL     1     110.643 130.025 137.435  0.00  0.00    +0.000 A 
ATOM     13  C   UNL     1     110.098 129.411 137.504  0.00  0.00    +0.000 A 
ATOM     14  C   UNL     1     111.417 129.865 137.198  0.00  0.00    +0.000 A 
ATOM     15  C   UNL     1     110.325 128.636 137.336  0.00  0.00    +0.000 A 
ATOM     16  C   UNL     1     111.645 129.091 137.030  0.00  0.00    +0.000 A 
ATOM     17  C   UNL     1     111.099 128.476 137.099  0.00  0.00    +0.000 A 
ATOM     18  C   UNL     1     109.747 128.005 137.411  0.00  0.00    +0.000 A 
ATOM     19  C   UNL     1     109.979 127.195 137.238  0.00  0.00    +0.000 A 
ATOM     20  C   UNL     1     110.784 127.028 136.991  0.00  0.00    +0.000 A 
BRANCH  20  21
ATOM     21  C   UNL     1     111.016 126.254 136.822  0.00  0.00    +0.000 A 
ATOM     22  C   UNL     1     111.318 125.773 137.420  0.00  0.00    +0.000 A 
ATOM     23  C   UNL     1     110.945 125.962 136.053  0.00  0.00    +0.000 A 
ATOM     24  C   UNL     1     111.549 125.000 137.251  0.00  0.00    +0.000 A 
ATOM     25  C   UNL     1     111.177 125.188 135.884  0.00  0.00    +0.000 A 
ATOM     26  C   UNL     1     111.478 124.708 136.483  0.00  0.00    +0.000 A 
BRANCH  26  27
ATOM     27  O   UNL     1     111.710 123.934 136.313  0.00  0.00    +0.000 OA
ATOM     28  C   UNL     1     112.263 123.554 136.791  0.00  0.00    +0.000 C 
ENDBRANCH  26  27
ENDBRANCH  20  21
BRANCH  14  29
ATOM     29  O   UNL     1     111.963 130.480 137.129  0.00  0.00    +0.000 OA
ATOM     30  C   UNL     1     112.683 130.352 136.748  0.00  0.00    +0.000 C 
ENDBRANCH  14  29
ENDBRANCH   6  12
BRANCH   8  32
ATOM     31  O   UNL     1     109.638 132.401 135.826  0.00  0.00    +0.000 OA
ATOM     32  C   UNL     1     109.423 132.478 136.619  0.00  0.00    +0.000 C 
ENDBRANCH   8  32
BRANCH   4  33
ATOM     33  O   UNL     1     110.952 130.673 138.921  0.00  0.00    +0.000 OA
BRANCH  33  37
ATOM     34  O   UNL     1     109.831 130.619 139.805  0.00  0.00    +0.000 OA
ATOM     35  O   UNL     1     111.366 130.570 141.747  0.00  0.00    +0.000 OA
ATOM     36  O   UNL     1     109.734 130.531 141.984  0.00  0.00    +0.000 OA
ATOM     37  C   UNL     1     110.647 130.638 139.687  0.00  0.00    +0.000 C 
ATOM     38  C   UNL     1     111.159 130.622 140.334  0.00  0.00    +0.000 C 
ATOM     39  C   UNL     1     110.854 130.586 141.100  0.00  0.00    +0.000 C 
ATOM     40  C   UNL     1     110.039 130.567 141.218  0.00  0.00    +0.000 C 
ATOM     41  C   UNL     1     109.527 130.583 140.571  0.00  0.00    +0.000 C 
ATOM     42  C   UNL     1     108.710 130.564 140.690  0.00  0.00    +0.000 C 
BRANCH  38  43
ATOM     43  O   UNL     1     111.975 130.641 140.215  0.00  0.00    +0.000 OA
BRANCH  43  45
ATOM     44  O   UNL     1     112.221 129.243 140.383  0.00  0.00    +0.000 OA
ATOM     45  C   UNL     1     112.448 130.028 140.500  0.00  0.00    +0.000 C 
ATOM     46  C   UNL     1     113.147 130.199 140.903  0.00  0.00    +0.000 C 
ENDBRANCH  43  45
ENDBRANCH  38  43
ENDBRANCH  33  37
ENDBRANCH   4  33
TORSDOF 9
ENDMDL
