MODEL 1
REMARK VINA RESULT:     -11.4      0.000      0.000
REMARK  Name = 74976921
REMARK  12 active torsions:
REMARK  status: ('A' for Active; 'I' for Inactive)
REMARK    1  A    between atoms: O_2  and  C_23
REMARK    2  A    between atoms: O_2  and  C_29
REMARK    3  A    between atoms: O_3  and  C_28
REMARK    4  A    between atoms: O_3  and  C_30
REMARK    5  A    between atoms: O_7  and  C_27
REMARK    6  A    between atoms: O_7  and  C_40
REMARK    7  A    between atoms: O_15  and  C_39
REMARK    8  A    between atoms: O_15  and  C_46
REMARK    9  A    between atoms: C_26  and  C_28
REMARK   10  A    between atoms: C_35  and  C_39
REMARK   11  A    between atoms: C_41  and  C_44
REMARK   12  A    between atoms: C_46  and  C_51
REMARK                            x       y       z     vdW  Elec       q    Type
REMARK                         _______ _______ _______ _____ _____    ______ ____
ROOT
ATOM      1  O   UNL     1     110.940 130.318 137.827  0.00  0.00    +0.000 OA
ATOM      2  O   UNL     1     110.040 132.616 137.632  0.00  0.00    +0.000 OA
ATOM      3  O   UNL     1     110.661 132.092 139.068  0.00  0.00    +0.000 OA
ATOM      4  C   UNL     1     110.329 131.346 137.044  0.00  0.00    +0.000 C 
ATOM      5  C   UNL     1     110.340 131.850 137.697  0.00  0.00    +0.000 C 
ATOM      6  C   UNL     1     110.650 131.588 138.415  0.00  0.00    +0.000 C 
ATOM      7  C   UNL     1     110.950 130.823 138.480  0.00  0.00    +0.000 C 
ATOM      8  C   UNL     1     110.629 130.581 137.109  0.00  0.00    +0.000 C 
ENDROOT
BRANCH   4   9
ATOM      9  O   UNL     1     110.019 131.608 136.326  0.00  0.00    +0.000 OA
BRANCH   9  14
ATOM     10  O   UNL     1     108.698 131.328 136.794  0.00  0.00    +0.000 OA
ATOM     11  O   UNL     1     109.397 132.139 134.893  0.00  0.00    +0.000 OA
ATOM     12  O   UNL     1     107.766 132.124 134.645  0.00  0.00    +0.000 OA
ATOM     13  O   UNL     1     106.757 131.578 135.831  0.00  0.00    +0.000 OA
ATOM     14  C   UNL     1     109.203 131.600 136.202  0.00  0.00    +0.000 C 
ATOM     15  C   UNL     1     108.892 131.866 135.485  0.00  0.00    +0.000 C 
ATOM     16  C   UNL     1     108.076 131.859 135.361  0.00  0.00    +0.000 C 
ATOM     17  C   UNL     1     107.572 131.586 135.954  0.00  0.00    +0.000 C 
ATOM     18  C   UNL     1     107.883 131.320 136.671  0.00  0.00    +0.000 C 
ENDBRANCH   9  14
ENDBRANCH   4   9
BRANCH   8  19
ATOM     19  O   UNL     1     110.619 130.076 136.456  0.00  0.00    +0.000 OA
BRANCH  19  23
ATOM     20  O   UNL     1     111.921 128.446 135.817  0.00  0.00    +0.000 OA
ATOM     21  O   UNL     1     113.519 130.809 136.285  0.00  0.00    +0.000 OA
ATOM     22  O   UNL     1     114.803 128.337 135.407  0.00  0.00    +0.000 OA
ATOM     23  C   UNL     1     111.298 129.658 136.247  0.00  0.00    +0.000 A 
ATOM     24  C   UNL     1     111.242 128.865 136.026  0.00  0.00    +0.000 A 
ATOM     25  C   UNL     1     112.032 130.032 136.258  0.00  0.00    +0.000 A 
ATOM     26  C   UNL     1     112.712 129.614 136.048  0.00  0.00    +0.000 A 
ATOM     27  C   UNL     1     112.657 128.821 135.828  0.00  0.00    +0.000 A 
ATOM     28  C   UNL     1     113.472 130.015 136.064  0.00  0.00    +0.000 A 
ATOM     29  C   UNL     1     113.357 128.374 135.608  0.00  0.00    +0.000 A 
ATOM     30  C   UNL     1     114.184 129.585 135.847  0.00  0.00    +0.000 A 
ATOM     31  C   UNL     1     114.125 128.759 135.617  0.00  0.00    +0.000 A 
BRANCH  24  34
ATOM     32  O   UNL     1     109.221 127.338 137.351  0.00  0.00    +0.000 OA
ATOM     33  O   UNL     1     108.302 127.366 135.981  0.00  0.00    +0.000 OA
ATOM     34  C   UNL     1     110.508 128.490 136.015  0.00  0.00    +0.000 A 
ATOM     35  C   UNL     1     110.232 128.101 136.689  0.00  0.00    +0.000 A 
ATOM     36  C   UNL     1     110.048 128.504 135.330  0.00  0.00    +0.000 A 
ATOM     37  C   UNL     1     109.497 127.727 136.677  0.00  0.00    +0.000 A 
ATOM     38  C   UNL     1     109.312 128.129 135.319  0.00  0.00    +0.000 A 
ATOM     39  C   UNL     1     109.038 127.741 135.992  0.00  0.00    +0.000 A 
ENDBRANCH  24  34
ENDBRANCH  19  23
ENDBRANCH   8  19
BRANCH   7  40
ATOM     40  C   UNL     1     111.261 130.560 139.198  0.00  0.00    +0.000 C 
BRANCH  40  41
ATOM     41  O   UNL     1     112.076 130.465 139.285  0.00  0.00    +0.000 OA
BRANCH  41  46
ATOM     42  O   UNL     1     112.210 129.100 139.683  0.00  0.00    +0.000 OA
ATOM     43  O   UNL     1     112.989 130.932 140.577  0.00  0.00    +0.000 OA
ATOM     44  O   UNL     1     113.580 129.800 141.622  0.00  0.00    +0.000 OA
ATOM     45  O   UNL     1     113.258 128.201 141.374  0.00  0.00    +0.000 OA
ATOM     46  C   UNL     1     112.372 129.899 139.807  0.00  0.00    +0.000 C 
ATOM     47  C   UNL     1     112.828 130.132 140.454  0.00  0.00    +0.000 C 
ATOM     48  C   UNL     1     113.123 129.567 140.975  0.00  0.00    +0.000 C 
ATOM     49  C   UNL     1     112.963 128.767 140.852  0.00  0.00    +0.000 C 
ATOM     50  C   UNL     1     112.506 128.533 140.206  0.00  0.00    +0.000 C 
BRANCH  50  51
ATOM     51  C   UNL     1     112.345 127.734 140.081  0.00  0.00    +0.000 C 
BRANCH  51  52
ATOM     52  O   UNL     1     112.576 127.371 139.377  0.00  0.00    +0.000 OA
BRANCH  52  54
ATOM     53  O   UNL     1     111.843 126.194 139.723  0.00  0.00    +0.000 OA
ATOM     54  C   UNL     1     112.393 126.578 139.243  0.00  0.00    +0.000 C 
BRANCH  54  56
ATOM     55  O   UNL     1     113.865 124.939 136.786  0.00  0.00    +0.000 OA
ATOM     56  C   UNL     1     112.761 126.168 138.629  0.00  0.00    +0.000 A 
ATOM     57  C   UNL     1     113.584 126.169 138.566  0.00  0.00    +0.000 A 
ATOM     58  C   UNL     1     112.306 125.757 138.076  0.00  0.00    +0.000 A 
ATOM     59  C   UNL     1     113.951 125.759 137.952  0.00  0.00    +0.000 A 
ATOM     60  C   UNL     1     112.674 125.347 137.462  0.00  0.00    +0.000 A 
ATOM     61  C   UNL     1     113.497 125.349 137.400  0.00  0.00    +0.000 A 
ENDBRANCH  54  56
ENDBRANCH  52  54
ENDBRANCH  51  52
ENDBRANCH  50  51
ENDBRANCH  41  46
ENDBRANCH  40  41
ENDBRANCH   7  40
TORSDOF 12
ENDMDL
MODEL 2
REMARK VINA RESULT:     -11.4      1.502      2.933
REMARK  Name = 74976921
REMARK  12 active torsions:
REMARK  status: ('A' for Active; 'I' for Inactive)
REMARK    1  A    between atoms: O_2  and  C_23
REMARK    2  A    between atoms: O_2  and  C_29
REMARK    3  A    between atoms: O_3  and  C_28
REMARK    4  A    between atoms: O_3  and  C_30
REMARK    5  A    between atoms: O_7  and  C_27
REMARK    6  A    between atoms: O_7  and  C_40
REMARK    7  A    between atoms: O_15  and  C_39
REMARK    8  A    between atoms: O_15  and  C_46
REMARK    9  A    between atoms: C_26  and  C_28
REMARK   10  A    between atoms: C_35  and  C_39
REMARK   11  A    between atoms: C_41  and  C_44
REMARK   12  A    between atoms: C_46  and  C_51
REMARK                            x       y       z     vdW  Elec       q    Type
REMARK                         _______ _______ _______ _____ _____    ______ ____
ROOT
ATOM      1  O   UNL     1     110.144 129.204 138.055  0.00  0.00    +0.000 OA
ATOM      2  O   UNL     1     108.440 130.999 138.069  0.00  0.00    +0.000 OA
ATOM      3  O   UNL     1     108.622 130.025 139.388  0.00  0.00    +0.000 OA
ATOM      4  C   UNL     1     109.484 130.290 137.400  0.00  0.00    +0.000 C 
ATOM      5  C   UNL     1     109.008 130.401 138.065  0.00  0.00    +0.000 C 
ATOM      6  C   UNL     1     109.099 129.914 138.724  0.00  0.00    +0.000 C 
ATOM      7  C   UNL     1     109.667 129.316 138.719  0.00  0.00    +0.000 C 
ATOM      8  C   UNL     1     110.052 129.692 137.396  0.00  0.00    +0.000 C 
ENDROOT
BRANCH   4   9
ATOM      9  O   UNL     1     109.393 130.777 136.741  0.00  0.00    +0.000 OA
BRANCH   9  14
ATOM     10  O   UNL     1     110.240 131.759 137.343  0.00  0.00    +0.000 OA
ATOM     11  O   UNL     1     109.073 131.816 135.499  0.00  0.00    +0.000 OA
ATOM     12  O   UNL     1     109.760 133.316 135.481  0.00  0.00    +0.000 OA
ATOM     13  O   UNL     1     110.766 133.778 136.705  0.00  0.00    +0.000 OA
ATOM     14  C   UNL     1     109.736 131.527 136.732  0.00  0.00    +0.000 C 
ATOM     15  C   UNL     1     109.576 132.047 136.111  0.00  0.00    +0.000 C 
ATOM     16  C   UNL     1     109.920 132.797 136.102  0.00  0.00    +0.000 C 
ATOM     17  C   UNL     1     110.423 133.028 136.714  0.00  0.00    +0.000 C 
ATOM     18  C   UNL     1     110.583 132.509 137.334  0.00  0.00    +0.000 C 
ENDBRANCH   9  14
ENDBRANCH   4   9
BRANCH   8  19
ATOM     19  O   UNL     1     110.529 129.581 136.732  0.00  0.00    +0.000 OA
BRANCH  19  23
ATOM     20  O   UNL     1     111.299 127.823 135.692  0.00  0.00    +0.000 OA
ATOM     21  O   UNL     1     108.467 127.484 136.162  0.00  0.00    +0.000 OA
ATOM     22  O   UNL     1     109.973 125.391 134.790  0.00  0.00    +0.000 OA
ATOM     23  C   UNL     1     110.557 128.844 136.362  0.00  0.00    +0.000 A 
ATOM     24  C   UNL     1     111.271 128.560 136.061  0.00  0.00    +0.000 A 
ATOM     25  C   UNL     1     109.871 128.391 136.293  0.00  0.00    +0.000 A 
ATOM     26  C   UNL     1     109.899 127.654 135.923  0.00  0.00    +0.000 A 
ATOM     27  C   UNL     1     110.612 127.370 135.622  0.00  0.00    +0.000 A 
ATOM     28  C   UNL     1     109.177 127.191 135.858  0.00  0.00    +0.000 A 
ATOM     29  C   UNL     1     110.653 126.604 135.235  0.00  0.00    +0.000 A 
ATOM     30  C   UNL     1     109.199 126.423 135.474  0.00  0.00    +0.000 A 
ATOM     31  C   UNL     1     109.942 126.128 135.161  0.00  0.00    +0.000 A 
BRANCH  24  34
ATOM     32  O   UNL     1     113.589 129.331 137.544  0.00  0.00    +0.000 OA
ATOM     33  O   UNL     1     114.016 130.371 136.336  0.00  0.00    +0.000 OA
ATOM     34  C   UNL     1     111.957 129.012 136.130  0.00  0.00    +0.000 A 
ATOM     35  C   UNL     1     112.430 128.946 136.803  0.00  0.00    +0.000 A 
ATOM     36  C   UNL     1     112.170 129.532 135.526  0.00  0.00    +0.000 A 
ATOM     37  C   UNL     1     113.116 129.398 136.872  0.00  0.00    +0.000 A 
ATOM     38  C   UNL     1     112.857 129.985 135.595  0.00  0.00    +0.000 A 
ATOM     39  C   UNL     1     113.329 129.918 136.268  0.00  0.00    +0.000 A 
ENDBRANCH  24  34
ENDBRANCH  19  23
ENDBRANCH   8  19
BRANCH   7  40
ATOM     40  C   UNL     1     109.758 128.828 139.379  0.00  0.00    +0.000 C 
BRANCH  40  41
ATOM     41  O   UNL     1     110.481 128.802 139.775  0.00  0.00    +0.000 OA
BRANCH  41  46
ATOM     42  O   UNL     1     110.892 127.436 139.693  0.00  0.00    +0.000 OA
ATOM     43  O   UNL     1     110.629 128.748 141.417  0.00  0.00    +0.000 OA
ATOM     44  O   UNL     1     111.114 127.354 142.156  0.00  0.00    +0.000 OA
ATOM     45  O   UNL     1     111.451 126.016 141.253  0.00  0.00    +0.000 OA
ATOM     46  C   UNL     1     110.724 128.105 140.145  0.00  0.00    +0.000 C 
ATOM     47  C   UNL     1     110.798 128.078 140.966  0.00  0.00    +0.000 C 
ATOM     48  C   UNL     1     111.040 127.382 141.335  0.00  0.00    +0.000 C 
ATOM     49  C   UNL     1     111.209 126.712 140.884  0.00  0.00    +0.000 C 
ATOM     50  C   UNL     1     111.135 126.739 140.062  0.00  0.00    +0.000 C 
BRANCH  50  51
ATOM     51  C   UNL     1     111.303 126.070 139.610  0.00  0.00    +0.000 C 
BRANCH  51  52
ATOM     52  O   UNL     1     111.841 126.118 138.986  0.00  0.00    +0.000 OA
BRANCH  52  54
ATOM     53  O   UNL     1     111.256 124.988 138.336  0.00  0.00    +0.000 OA
ATOM     54  C   UNL     1     111.892 125.504 138.438  0.00  0.00    +0.000 C 
BRANCH  54  56
ATOM     55  O   UNL     1     114.638 125.112 136.650  0.00  0.00    +0.000 OA
ATOM     56  C   UNL     1     112.578 125.406 137.991  0.00  0.00    +0.000 A 
ATOM     57  C   UNL     1     112.605 124.837 137.395  0.00  0.00    +0.000 A 
ATOM     58  C   UNL     1     113.239 125.878 138.141  0.00  0.00    +0.000 A 
ATOM     59  C   UNL     1     113.292 124.739 136.948  0.00  0.00    +0.000 A 
ATOM     60  C   UNL     1     113.926 125.780 137.694  0.00  0.00    +0.000 A 
ATOM     61  C   UNL     1     113.951 125.210 137.097  0.00  0.00    +0.000 A 
ENDBRANCH  54  56
ENDBRANCH  52  54
ENDBRANCH  51  52
ENDBRANCH  50  51
ENDBRANCH  41  46
ENDBRANCH  40  41
ENDBRANCH   7  40
TORSDOF 12
ENDMDL
MODEL 3
REMARK VINA RESULT:     -11.1      1.300      5.549
REMARK  Name = 74976921
REMARK  12 active torsions:
REMARK  status: ('A' for Active; 'I' for Inactive)
REMARK    1  A    between atoms: O_2  and  C_23
REMARK    2  A    between atoms: O_2  and  C_29
REMARK    3  A    between atoms: O_3  and  C_28
REMARK    4  A    between atoms: O_3  and  C_30
REMARK    5  A    between atoms: O_7  and  C_27
REMARK    6  A    between atoms: O_7  and  C_40
REMARK    7  A    between atoms: O_15  and  C_39
REMARK    8  A    between atoms: O_15  and  C_46
REMARK    9  A    between atoms: C_26  and  C_28
REMARK   10  A    between atoms: C_35  and  C_39
REMARK   11  A    between atoms: C_41  and  C_44
REMARK   12  A    between atoms: C_46  and  C_51
REMARK                            x       y       z     vdW  Elec       q    Type
REMARK                         _______ _______ _______ _____ _____    ______ ____
ROOT
ATOM      1  O   UNL     1     111.732 127.987 138.531  0.00  0.00    +0.000 OA
ATOM      2  O   UNL     1     111.750 125.552 138.974  0.00  0.00    +0.000 OA
ATOM      3  O   UNL     1     111.426 126.610 140.197  0.00  0.00    +0.000 OA
ATOM      4  C   UNL     1     111.900 126.645 138.067  0.00  0.00    +0.000 C 
ATOM      5  C   UNL     1     111.744 126.364 138.826  0.00  0.00    +0.000 C 
ATOM      6  C   UNL     1     111.582 126.892 139.438  0.00  0.00    +0.000 C 
ATOM      7  C   UNL     1     111.576 127.704 139.290  0.00  0.00    +0.000 C 
ATOM      8  C   UNL     1     111.894 127.457 137.919  0.00  0.00    +0.000 C 
ENDROOT
BRANCH   4   9
ATOM      9  O   UNL     1     112.062 126.117 137.455  0.00  0.00    +0.000 OA
BRANCH   9  14
ATOM     10  O   UNL     1     113.425 126.035 137.878  0.00  0.00    +0.000 OA
ATOM     11  O   UNL     1     112.329 124.909 136.364  0.00  0.00    +0.000 OA
ATOM     12  O   UNL     1     113.825 124.224 136.241  0.00  0.00    +0.000 OA
ATOM     13  O   UNL     1     115.054 124.746 137.210  0.00  0.00    +0.000 OA
ATOM     14  C   UNL     1     112.810 125.774 137.394  0.00  0.00    +0.000 C 
ATOM     15  C   UNL     1     112.944 125.170 136.848  0.00  0.00    +0.000 C 
ATOM     16  C   UNL     1     113.692 124.827 136.786  0.00  0.00    +0.000 C 
ATOM     17  C   UNL     1     114.306 125.089 137.271  0.00  0.00    +0.000 C 
ATOM     18  C   UNL     1     114.173 125.693 137.817  0.00  0.00    +0.000 C 
ENDBRANCH   9  14
ENDBRANCH   4   9
BRANCH   8  19
ATOM     19  O   UNL     1     112.050 127.740 137.160  0.00  0.00    +0.000 OA
BRANCH  19  23
ATOM     20  O   UNL     1     111.175 129.285 135.890  0.00  0.00    +0.000 OA
ATOM     21  O   UNL     1     109.056 127.711 137.067  0.00  0.00    +0.000 OA
ATOM     22  O   UNL     1     108.401 129.920 135.273  0.00  0.00    +0.000 OA
ATOM     23  C   UNL     1     111.490 128.202 136.769  0.00  0.00    +0.000 A 
ATOM     24  C   UNL     1     111.735 128.822 136.282  0.00  0.00    +0.000 A 
ATOM     25  C   UNL     1     110.687 128.045 136.863  0.00  0.00    +0.000 A 
ATOM     26  C   UNL     1     110.127 128.507 136.472  0.00  0.00    +0.000 A 
ATOM     27  C   UNL     1     110.370 129.127 135.985  0.00  0.00    +0.000 A 
ATOM     28  C   UNL     1     109.291 128.333 136.578  0.00  0.00    +0.000 A 
ATOM     29  C   UNL     1     109.797 129.615 135.572  0.00  0.00    +0.000 A 
ATOM     30  C   UNL     1     108.703 128.810 136.173  0.00  0.00    +0.000 A 
ATOM     31  C   UNL     1     108.958 129.456 135.667  0.00  0.00    +0.000 A 
BRANCH  24  34
ATOM     32  O   UNL     1     114.097 130.214 137.091  0.00  0.00    +0.000 OA
ATOM     33  O   UNL     1     114.952 129.453 135.902  0.00  0.00    +0.000 OA
ATOM     34  C   UNL     1     112.539 128.980 136.187  0.00  0.00    +0.000 A 
ATOM     35  C   UNL     1     112.916 129.518 136.687  0.00  0.00    +0.000 A 
ATOM     36  C   UNL     1     112.967 128.600 135.593  0.00  0.00    +0.000 A 
ATOM     37  C   UNL     1     113.720 129.676 136.592  0.00  0.00    +0.000 A 
ATOM     38  C   UNL     1     113.771 128.758 135.498  0.00  0.00    +0.000 A 
ATOM     39  C   UNL     1     114.147 129.296 135.998  0.00  0.00    +0.000 A 
ENDBRANCH  24  34
ENDBRANCH  19  23
ENDBRANCH   8  19
BRANCH   7  40
ATOM     40  C   UNL     1     111.413 128.234 139.902  0.00  0.00    +0.000 C 
BRANCH  40  41
ATOM     41  O   UNL     1     111.970 128.806 140.110  0.00  0.00    +0.000 OA
BRANCH  41  46
ATOM     42  O   UNL     1     111.162 129.983 140.081  0.00  0.00    +0.000 OA
ATOM     43  O   UNL     1     112.604 129.277 141.559  0.00  0.00    +0.000 OA
ATOM     44  O   UNL     1     112.113 130.691 142.254  0.00  0.00    +0.000 OA
ATOM     45  O   UNL     1     110.987 131.633 141.500  0.00  0.00    +0.000 OA
ATOM     46  C   UNL     1     111.724 129.513 140.458  0.00  0.00    +0.000 C 
ATOM     47  C   UNL     1     112.041 129.749 141.182  0.00  0.00    +0.000 C 
ATOM     48  C   UNL     1     111.796 130.455 141.529  0.00  0.00    +0.000 C 
ATOM     49  C   UNL     1     111.233 130.927 141.153  0.00  0.00    +0.000 C 
ATOM     50  C   UNL     1     110.916 130.691 140.429  0.00  0.00    +0.000 C 
BRANCH  50  51
ATOM     51  C   UNL     1     110.353 131.161 140.051  0.00  0.00    +0.000 C 
BRANCH  51  52
ATOM     52  O   UNL     1     110.464 131.389 139.266  0.00  0.00    +0.000 OA
BRANCH  52  54
ATOM     53  O   UNL     1     109.057 131.557 139.083  0.00  0.00    +0.000 OA
ATOM     54  C   UNL     1     109.832 131.689 138.831  0.00  0.00    +0.000 C 
BRANCH  54  56
ATOM     55  O   UNL     1     110.398 133.414 136.075  0.00  0.00    +0.000 OA
ATOM     56  C   UNL     1     109.973 132.120 138.142  0.00  0.00    +0.000 A 
ATOM     57  C   UNL     1     110.746 132.227 137.872  0.00  0.00    +0.000 A 
ATOM     58  C   UNL     1     109.342 132.445 137.721  0.00  0.00    +0.000 A 
ATOM     59  C   UNL     1     110.887 132.658 137.184  0.00  0.00    +0.000 A 
ATOM     60  C   UNL     1     109.483 132.877 137.032  0.00  0.00    +0.000 A 
ATOM     61  C   UNL     1     110.256 132.983 136.764  0.00  0.00    +0.000 A 
ENDBRANCH  54  56
ENDBRANCH  52  54
ENDBRANCH  51  52
ENDBRANCH  50  51
ENDBRANCH  41  46
ENDBRANCH  40  41
ENDBRANCH   7  40
TORSDOF 12
ENDMDL
MODEL 4
REMARK VINA RESULT:     -11.0      1.687      5.281
REMARK  Name = 74976921
REMARK  12 active torsions:
REMARK  status: ('A' for Active; 'I' for Inactive)
REMARK    1  A    between atoms: O_2  and  C_23
REMARK    2  A    between atoms: O_2  and  C_29
REMARK    3  A    between atoms: O_3  and  C_28
REMARK    4  A    between atoms: O_3  and  C_30
REMARK    5  A    between atoms: O_7  and  C_27
REMARK    6  A    between atoms: O_7  and  C_40
REMARK    7  A    between atoms: O_15  and  C_39
REMARK    8  A    between atoms: O_15  and  C_46
REMARK    9  A    between atoms: C_26  and  C_28
REMARK   10  A    between atoms: C_35  and  C_39
REMARK   11  A    between atoms: C_41  and  C_44
REMARK   12  A    between atoms: C_46  and  C_51
REMARK                            x       y       z     vdW  Elec       q    Type
REMARK                         _______ _______ _______ _____ _____    ______ ____
ROOT
ATOM      1  O   UNL     1     111.313 128.013 138.691  0.00  0.00    +0.000 OA
ATOM      2  O   UNL     1     112.507 126.116 139.739  0.00  0.00    +0.000 OA
ATOM      3  O   UNL     1     111.499 127.057 140.645  0.00  0.00    +0.000 OA
ATOM      4  C   UNL     1     112.216 126.909 138.588  0.00  0.00    +0.000 C 
ATOM      5  C   UNL     1     112.109 126.748 139.390  0.00  0.00    +0.000 C 
ATOM      6  C   UNL     1     111.605 127.218 139.842  0.00  0.00    +0.000 C 
ATOM      7  C   UNL     1     111.207 127.851 139.493  0.00  0.00    +0.000 C 
ATOM      8  C   UNL     1     111.817 127.542 138.238  0.00  0.00    +0.000 C 
ENDROOT
BRANCH   4   9
ATOM      9  O   UNL     1     112.719 126.439 138.135  0.00  0.00    +0.000 OA
BRANCH   9  14
ATOM     10  O   UNL     1     111.664 125.498 137.931  0.00  0.00    +0.000 OA
ATOM     11  O   UNL     1     113.771 125.426 137.367  0.00  0.00    +0.000 OA
ATOM     12  O   UNL     1     113.241 123.978 136.779  0.00  0.00    +0.000 OA
ATOM     13  O   UNL     1     111.659 123.544 136.959  0.00  0.00    +0.000 OA
ATOM     14  C   UNL     1     112.454 125.715 137.841  0.00  0.00    +0.000 C 
ATOM     15  C   UNL     1     112.980 125.208 137.457  0.00  0.00    +0.000 C 
ATOM     16  C   UNL     1     112.715 124.484 137.163  0.00  0.00    +0.000 C 
ATOM     17  C   UNL     1     111.924 124.268 137.253  0.00  0.00    +0.000 C 
ATOM     18  C   UNL     1     111.399 124.774 137.637  0.00  0.00    +0.000 C 
ENDBRANCH   9  14
ENDBRANCH   4   9
BRANCH   8  19
ATOM     19  O   UNL     1     111.923 127.704 137.437  0.00  0.00    +0.000 OA
BRANCH  19  23
ATOM     20  O   UNL     1     112.082 129.537 136.261  0.00  0.00    +0.000 OA
ATOM     21  O   UNL     1     113.807 129.738 138.572  0.00  0.00    +0.000 OA
ATOM     22  O   UNL     1     113.661 131.950 136.670  0.00  0.00    +0.000 OA
ATOM     23  C   UNL     1     112.158 128.458 137.195  0.00  0.00    +0.000 A 
ATOM     24  C   UNL     1     111.848 128.783 136.503  0.00  0.00    +0.000 A 
ATOM     25  C   UNL     1     112.701 128.884 137.645  0.00  0.00    +0.000 A 
ATOM     26  C   UNL     1     112.935 129.637 137.404  0.00  0.00    +0.000 A 
ATOM     27  C   UNL     1     112.627 129.964 136.712  0.00  0.00    +0.000 A 
ATOM     28  C   UNL     1     113.503 130.073 137.881  0.00  0.00    +0.000 A 
ATOM     29  C   UNL     1     112.863 130.747 136.450  0.00  0.00    +0.000 A 
ATOM     30  C   UNL     1     113.751 130.857 137.635  0.00  0.00    +0.000 A 
ATOM     31  C   UNL     1     113.429 131.197 136.915  0.00  0.00    +0.000 A 
BRANCH  24  34
ATOM     32  O   UNL     1     109.143 128.099 135.882  0.00  0.00    +0.000 OA
ATOM     33  O   UNL     1     109.673 127.076 134.701  0.00  0.00    +0.000 OA
ATOM     34  C   UNL     1     111.305 128.357 136.053  0.00  0.00    +0.000 A 
ATOM     35  C   UNL     1     110.496 128.441 136.193  0.00  0.00    +0.000 A 
ATOM     36  C   UNL     1     111.570 127.846 135.462  0.00  0.00    +0.000 A 
ATOM     37  C   UNL     1     109.952 128.014 135.743  0.00  0.00    +0.000 A 
ATOM     38  C   UNL     1     111.026 127.418 135.011  0.00  0.00    +0.000 A 
ATOM     39  C   UNL     1     110.217 127.503 135.152  0.00  0.00    +0.000 A 
ENDBRANCH  24  34
ENDBRANCH  19  23
ENDBRANCH   8  19
BRANCH   7  40
ATOM     40  C   UNL     1     110.703 128.322 139.946  0.00  0.00    +0.000 C 
BRANCH  40  41
ATOM     41  O   UNL     1     109.918 128.425 139.715  0.00  0.00    +0.000 OA
BRANCH  41  46
ATOM     42  O   UNL     1     109.771 129.846 139.672  0.00  0.00    +0.000 OA
ATOM     43  O   UNL     1     108.582 128.316 140.678  0.00  0.00    +0.000 OA
ATOM     44  O   UNL     1     107.768 129.682 141.117  0.00  0.00    +0.000 OA
ATOM     45  O   UNL     1     108.288 131.157 140.593  0.00  0.00    +0.000 OA
ATOM     46  C   UNL     1     109.510 129.109 139.935  0.00  0.00    +0.000 C 
ATOM     47  C   UNL     1     108.842 129.054 140.416  0.00  0.00    +0.000 C 
ATOM     48  C   UNL     1     108.435 129.737 140.635  0.00  0.00    +0.000 C 
ATOM     49  C   UNL     1     108.695 130.475 140.374  0.00  0.00    +0.000 C 
ATOM     50  C   UNL     1     109.363 130.530 139.892  0.00  0.00    +0.000 C 
BRANCH  50  51
ATOM     51  C   UNL     1     109.624 131.267 139.630  0.00  0.00    +0.000 C 
BRANCH  51  52
ATOM     52  O   UNL     1     109.750 131.398 138.825  0.00  0.00    +0.000 OA
BRANCH  52  54
ATOM     53  O   UNL     1     110.365 132.659 139.100  0.00  0.00    +0.000 OA
ATOM     54  C   UNL     1     110.022 132.132 138.565  0.00  0.00    +0.000 C 
BRANCH  54  56
ATOM     55  O   UNL     1     109.736 132.963 135.385  0.00  0.00    +0.000 OA
ATOM     56  C   UNL     1     109.950 132.340 137.770  0.00  0.00    +0.000 A 
ATOM     57  C   UNL     1     109.484 131.884 137.265  0.00  0.00    +0.000 A 
ATOM     58  C   UNL     1     110.345 133.004 137.480  0.00  0.00    +0.000 A 
ATOM     59  C   UNL     1     109.413 132.092 136.469  0.00  0.00    +0.000 A 
ATOM     60  C   UNL     1     110.274 133.212 136.685  0.00  0.00    +0.000 A 
ATOM     61  C   UNL     1     109.807 132.755 136.180  0.00  0.00    +0.000 A 
ENDBRANCH  54  56
ENDBRANCH  52  54
ENDBRANCH  51  52
ENDBRANCH  50  51
ENDBRANCH  41  46
ENDBRANCH  40  41
ENDBRANCH   7  40
TORSDOF 12
ENDMDL
MODEL 5
REMARK VINA RESULT:     -11.0      1.512      3.734
REMARK  Name = 74976921
REMARK  12 active torsions:
REMARK  status: ('A' for Active; 'I' for Inactive)
REMARK    1  A    between atoms: O_2  and  C_23
REMARK    2  A    between atoms: O_2  and  C_29
REMARK    3  A    between atoms: O_3  and  C_28
REMARK    4  A    between atoms: O_3  and  C_30
REMARK    5  A    between atoms: O_7  and  C_27
REMARK    6  A    between atoms: O_7  and  C_40
REMARK    7  A    between atoms: O_15  and  C_39
REMARK    8  A    between atoms: O_15  and  C_46
REMARK    9  A    between atoms: C_26  and  C_28
REMARK   10  A    between atoms: C_35  and  C_39
REMARK   11  A    between atoms: C_41  and  C_44
REMARK   12  A    between atoms: C_46  and  C_51
REMARK                            x       y       z     vdW  Elec       q    Type
REMARK                         _______ _______ _______ _____ _____    ______ ____
ROOT
ATOM      1  O   UNL     1     111.145 128.805 136.754  0.00  0.00    +0.000 OA
ATOM      2  O   UNL     1     110.510 129.911 134.634  0.00  0.00    +0.000 OA
ATOM      3  O   UNL     1     111.126 128.381 134.613  0.00  0.00    +0.000 OA
ATOM      4  C   UNL     1     110.625 129.940 136.057  0.00  0.00    +0.000 C 
ATOM      5  C   UNL     1     110.722 129.543 135.340  0.00  0.00    +0.000 C 
ATOM      6  C   UNL     1     111.030 128.778 135.330  0.00  0.00    +0.000 C 
ATOM      7  C   UNL     1     111.241 128.409 136.037  0.00  0.00    +0.000 C 
ATOM      8  C   UNL     1     110.837 129.571 136.764  0.00  0.00    +0.000 C 
ENDROOT
BRANCH   4   9
ATOM      9  O   UNL     1     110.317 130.704 136.068  0.00  0.00    +0.000 OA
BRANCH   9  14
ATOM     10  O   UNL     1     108.987 130.181 136.088  0.00  0.00    +0.000 OA
ATOM     11  O   UNL     1     109.717 132.220 135.813  0.00  0.00    +0.000 OA
ATOM     12  O   UNL     1     108.087 132.454 135.705  0.00  0.00    +0.000 OA
ATOM     13  O   UNL     1     107.058 131.173 135.853  0.00  0.00    +0.000 OA
ATOM     14  C   UNL     1     109.502 130.821 136.014  0.00  0.00    +0.000 C 
ATOM     15  C   UNL     1     109.202 131.580 135.886  0.00  0.00    +0.000 C 
ATOM     16  C   UNL     1     108.387 131.697 135.833  0.00  0.00    +0.000 C 
ATOM     17  C   UNL     1     107.873 131.056 135.906  0.00  0.00    +0.000 C 
ATOM     18  C   UNL     1     108.173 130.298 136.034  0.00  0.00    +0.000 C 
ENDBRANCH   9  14
ENDBRANCH   4   9
BRANCH   8  19
ATOM     19  O   UNL     1     110.741 129.966 137.482  0.00  0.00    +0.000 OA
BRANCH  19  23
ATOM     20  O   UNL     1     111.924 130.225 139.297  0.00  0.00    +0.000 OA
ATOM     21  O   UNL     1     113.676 130.322 137.001  0.00  0.00    +0.000 OA
ATOM     22  O   UNL     1     114.783 130.621 139.686  0.00  0.00    +0.000 OA
ATOM     23  C   UNL     1     111.388 130.080 137.981  0.00  0.00    +0.000 A 
ATOM     24  C   UNL     1     111.277 130.112 138.798  0.00  0.00    +0.000 A 
ATOM     25  C   UNL     1     112.144 130.160 137.663  0.00  0.00    +0.000 A 
ATOM     26  C   UNL     1     112.791 130.274 138.162  0.00  0.00    +0.000 A 
ATOM     27  C   UNL     1     112.682 130.306 138.979  0.00  0.00    +0.000 A 
ATOM     28  C   UNL     1     113.575 130.356 137.819  0.00  0.00    +0.000 A 
ATOM     29  C   UNL     1     113.348 130.424 139.509  0.00  0.00    +0.000 A 
ATOM     30  C   UNL     1     114.253 130.474 138.334  0.00  0.00    +0.000 A 
ATOM     31  C   UNL     1     114.138 130.508 139.184  0.00  0.00    +0.000 A 
BRANCH  24  34
ATOM     32  O   UNL     1     108.856 131.291 139.756  0.00  0.00    +0.000 OA
ATOM     33  O   UNL     1     108.249 129.789 140.070  0.00  0.00    +0.000 OA
ATOM     34  C   UNL     1     110.521 130.031 139.116  0.00  0.00    +0.000 A 
ATOM     35  C   UNL     1     110.066 130.701 139.277  0.00  0.00    +0.000 A 
ATOM     36  C   UNL     1     110.217 129.281 139.273  0.00  0.00    +0.000 A 
ATOM     37  C   UNL     1     109.310 130.621 139.594  0.00  0.00    +0.000 A 
ATOM     38  C   UNL     1     109.460 129.199 139.591  0.00  0.00    +0.000 A 
ATOM     39  C   UNL     1     109.007 129.870 139.751  0.00  0.00    +0.000 A 
ENDBRANCH  24  34
ENDBRANCH  19  23
ENDBRANCH   8  19
BRANCH   7  40
ATOM     40  C   UNL     1     111.550 127.643 136.027  0.00  0.00    +0.000 C 
BRANCH  40  41
ATOM     41  O   UNL     1     111.086 127.009 136.277  0.00  0.00    +0.000 OA
BRANCH  41  46
ATOM     42  O   UNL     1     112.012 126.326 137.124  0.00  0.00    +0.000 OA
ATOM     43  O   UNL     1     110.667 125.574 135.578  0.00  0.00    +0.000 OA
ATOM     44  O   UNL     1     111.385 124.174 136.074  0.00  0.00    +0.000 OA
ATOM     45  O   UNL     1     112.521 124.208 137.271  0.00  0.00    +0.000 OA
ATOM     46  C   UNL     1     111.445 126.308 136.526  0.00  0.00    +0.000 C 
ATOM     47  C   UNL     1     111.235 125.591 136.176  0.00  0.00    +0.000 C 
ATOM     48  C   UNL     1     111.594 124.891 136.424  0.00  0.00    +0.000 C 
ATOM     49  C   UNL     1     112.162 124.908 137.023  0.00  0.00    +0.000 C 
ATOM     50  C   UNL     1     112.371 125.625 137.372  0.00  0.00    +0.000 C 
BRANCH  50  51
ATOM     51  C   UNL     1     112.939 125.643 137.970  0.00  0.00    +0.000 C 
BRANCH  51  52
ATOM     52  O   UNL     1     112.834 126.133 138.625  0.00  0.00    +0.000 OA
BRANCH  52  54
ATOM     53  O   UNL     1     114.246 126.173 138.842  0.00  0.00    +0.000 OA
ATOM     54  C   UNL     1     113.478 126.329 139.102  0.00  0.00    +0.000 C 
BRANCH  54  56
ATOM     55  O   UNL     1     112.986 127.732 142.047  0.00  0.00    +0.000 OA
ATOM     56  C   UNL     1     113.355 126.679 139.838  0.00  0.00    +0.000 A 
ATOM     57  C   UNL     1     113.998 126.937 140.285  0.00  0.00    +0.000 A 
ATOM     58  C   UNL     1     112.587 126.773 140.128  0.00  0.00    +0.000 A 
ATOM     59  C   UNL     1     113.875 127.288 141.022  0.00  0.00    +0.000 A 
ATOM     60  C   UNL     1     112.464 127.124 140.864  0.00  0.00    +0.000 A 
ATOM     61  C   UNL     1     113.109 127.381 141.311  0.00  0.00    +0.000 A 
ENDBRANCH  54  56
ENDBRANCH  52  54
ENDBRANCH  51  52
ENDBRANCH  50  51
ENDBRANCH  41  46
ENDBRANCH  40  41
ENDBRANCH   7  40
TORSDOF 12
ENDMDL
MODEL 6
REMARK VINA RESULT:     -10.9      1.589      4.888
REMARK  Name = 74976921
REMARK  12 active torsions:
REMARK  status: ('A' for Active; 'I' for Inactive)
REMARK    1  A    between atoms: O_2  and  C_23
REMARK    2  A    between atoms: O_2  and  C_29
REMARK    3  A    between atoms: O_3  and  C_28
REMARK    4  A    between atoms: O_3  and  C_30
REMARK    5  A    between atoms: O_7  and  C_27
REMARK    6  A    between atoms: O_7  and  C_40
REMARK    7  A    between atoms: O_15  and  C_39
REMARK    8  A    between atoms: O_15  and  C_46
REMARK    9  A    between atoms: C_26  and  C_28
REMARK   10  A    between atoms: C_35  and  C_39
REMARK   11  A    between atoms: C_41  and  C_44
REMARK   12  A    between atoms: C_46  and  C_51
REMARK                            x       y       z     vdW  Elec       q    Type
REMARK                         _______ _______ _______ _____ _____    ______ ____
ROOT
ATOM      1  O   UNL     1     110.664 130.182 138.898  0.00  0.00    +0.000 OA
ATOM      2  O   UNL     1     110.961 131.491 140.977  0.00  0.00    +0.000 OA
ATOM      3  O   UNL     1     110.009 132.076 139.763  0.00  0.00    +0.000 OA
ATOM      4  C   UNL     1     111.239 130.326 140.199  0.00  0.00    +0.000 C 
ATOM      5  C   UNL     1     110.862 131.055 140.284  0.00  0.00    +0.000 C 
ATOM      6  C   UNL     1     110.386 131.347 139.678  0.00  0.00    +0.000 C 
ATOM      7  C   UNL     1     110.287 130.911 138.985  0.00  0.00    +0.000 C 
ATOM      8  C   UNL     1     111.140 129.889 139.506  0.00  0.00    +0.000 C 
ENDROOT
BRANCH   4   9
ATOM      9  O   UNL     1     111.714 130.033 140.806  0.00  0.00    +0.000 OA
BRANCH   9  14
ATOM     10  O   UNL     1     110.557 129.520 141.469  0.00  0.00    +0.000 OA
ATOM     11  O   UNL     1     112.652 129.561 142.079  0.00  0.00    +0.000 OA
ATOM     12  O   UNL     1     111.964 128.811 143.377  0.00  0.00    +0.000 OA
ATOM     13  O   UNL     1     110.337 128.534 143.403  0.00  0.00    +0.000 OA
ATOM     14  C   UNL     1     111.370 129.658 141.455  0.00  0.00    +0.000 C 
ATOM     15  C   UNL     1     111.839 129.422 142.092  0.00  0.00    +0.000 C 
ATOM     16  C   UNL     1     111.495 129.047 142.741  0.00  0.00    +0.000 C 
ATOM     17  C   UNL     1     110.682 128.909 142.754  0.00  0.00    +0.000 C 
ATOM     18  C   UNL     1     110.213 129.145 142.118  0.00  0.00    +0.000 C 
ENDBRANCH   9  14
ENDBRANCH   4   9
BRANCH   8  19
ATOM     19  O   UNL     1     111.516 129.160 139.420  0.00  0.00    +0.000 OA
BRANCH  19  23
ATOM     20  O   UNL     1     112.454 128.085 137.768  0.00  0.00    +0.000 OA
ATOM     21  O   UNL     1     113.222 130.868 137.646  0.00  0.00    +0.000 OA
ATOM     22  O   UNL     1     114.222 128.996 135.641  0.00  0.00    +0.000 OA
ATOM     23  C   UNL     1     111.967 129.006 138.747  0.00  0.00    +0.000 A 
ATOM     24  C   UNL     1     112.002 128.240 138.441  0.00  0.00    +0.000 A 
ATOM     25  C   UNL     1     112.383 129.616 138.380  0.00  0.00    +0.000 A 
ATOM     26  C   UNL     1     112.834 129.461 137.707  0.00  0.00    +0.000 A 
ATOM     27  C   UNL     1     112.870 128.696 137.401  0.00  0.00    +0.000 A 
ATOM     28  C   UNL     1     113.264 130.106 137.333  0.00  0.00    +0.000 A 
ATOM     29  C   UNL     1     113.336 128.523 136.700  0.00  0.00    +0.000 A 
ATOM     30  C   UNL     1     113.735 129.951 136.632  0.00  0.00    +0.000 A 
ATOM     31  C   UNL     1     113.772 129.154 136.314  0.00  0.00    +0.000 A 
BRANCH  24  34
ATOM     32  O   UNL     1     111.898 126.111 140.345  0.00  0.00    +0.000 OA
ATOM     33  O   UNL     1     110.338 125.797 139.909  0.00  0.00    +0.000 OA
ATOM     34  C   UNL     1     111.587 127.630 138.808  0.00  0.00    +0.000 A 
ATOM     35  C   UNL     1     111.950 127.175 139.393  0.00  0.00    +0.000 A 
ATOM     36  C   UNL     1     110.807 127.473 138.590  0.00  0.00    +0.000 A 
ATOM     37  C   UNL     1     111.535 126.565 139.760  0.00  0.00    +0.000 A 
ATOM     38  C   UNL     1     110.390 126.862 138.957  0.00  0.00    +0.000 A 
ATOM     39  C   UNL     1     110.755 126.408 139.542  0.00  0.00    +0.000 A 
ENDBRANCH  24  34
ENDBRANCH  19  23
ENDBRANCH   8  19
BRANCH   7  40
ATOM     40  C   UNL     1     109.811 131.203 138.377  0.00  0.00    +0.000 C 
BRANCH  40  41
ATOM     41  O   UNL     1     109.166 130.763 138.111  0.00  0.00    +0.000 OA
BRANCH  41  46
ATOM     42  O   UNL     1     109.353 130.335 136.761  0.00  0.00    +0.000 OA
ATOM     43  O   UNL     1     107.920 131.732 137.631  0.00  0.00    +0.000 OA
ATOM     44  O   UNL     1     107.483 131.788 136.041  0.00  0.00    +0.000 OA
ATOM     45  O   UNL     1     108.293 130.876 134.930  0.00  0.00    +0.000 OA
ATOM     46  C   UNL     1     108.948 130.791 137.315  0.00  0.00    +0.000 C 
ATOM     47  C   UNL     1     108.324 131.276 137.075  0.00  0.00    +0.000 C 
ATOM     48  C   UNL     1     108.107 131.304 136.281  0.00  0.00    +0.000 C 
ATOM     49  C   UNL     1     108.511 130.848 135.725  0.00  0.00    +0.000 C 
ATOM     50  C   UNL     1     109.134 130.363 135.965  0.00  0.00    +0.000 C 
BRANCH  50  51
ATOM     51  C   UNL     1     109.540 129.907 135.410  0.00  0.00    +0.000 C 
BRANCH  51  52
ATOM     52  O   UNL     1     109.598 129.090 135.510  0.00  0.00    +0.000 OA
BRANCH  52  54
ATOM     53  O   UNL     1     110.708 129.044 134.612  0.00  0.00    +0.000 OA
ATOM     54  C   UNL     1     110.131 128.656 135.056  0.00  0.00    +0.000 C 
BRANCH  54  56
ATOM     55  O   UNL     1     109.957 125.360 135.009  0.00  0.00    +0.000 OA
ATOM     56  C   UNL     1     110.087 127.832 135.044  0.00  0.00    +0.000 A 
ATOM     57  C   UNL     1     109.436 127.448 135.374  0.00  0.00    +0.000 A 
ATOM     58  C   UNL     1     110.696 127.391 134.701  0.00  0.00    +0.000 A 
ATOM     59  C   UNL     1     109.393 126.624 135.363  0.00  0.00    +0.000 A 
ATOM     60  C   UNL     1     110.652 126.567 134.690  0.00  0.00    +0.000 A 
ATOM     61  C   UNL     1     110.001 126.184 135.020  0.00  0.00    +0.000 A 
ENDBRANCH  54  56
ENDBRANCH  52  54
ENDBRANCH  51  52
ENDBRANCH  50  51
ENDBRANCH  41  46
ENDBRANCH  40  41
ENDBRANCH   7  40
TORSDOF 12
ENDMDL
MODEL 7
REMARK VINA RESULT:     -10.8      1.570      4.454
REMARK  Name = 74976921
REMARK  12 active torsions:
REMARK  status: ('A' for Active; 'I' for Inactive)
REMARK    1  A    between atoms: O_2  and  C_23
REMARK    2  A    between atoms: O_2  and  C_29
REMARK    3  A    between atoms: O_3  and  C_28
REMARK    4  A    between atoms: O_3  and  C_30
REMARK    5  A    between atoms: O_7  and  C_27
REMARK    6  A    between atoms: O_7  and  C_40
REMARK    7  A    between atoms: O_15  and  C_39
REMARK    8  A    between atoms: O_15  and  C_46
REMARK    9  A    between atoms: C_26  and  C_28
REMARK   10  A    between atoms: C_35  and  C_39
REMARK   11  A    between atoms: C_41  and  C_44
REMARK   12  A    between atoms: C_46  and  C_51
REMARK                            x       y       z     vdW  Elec       q    Type
REMARK                         _______ _______ _______ _____ _____    ______ ____
ROOT
ATOM      1  O   UNL     1     110.722 128.459 138.334  0.00  0.00    +0.000 OA
ATOM      2  O   UNL     1     111.155 128.044 140.736  0.00  0.00    +0.000 OA
ATOM      3  O   UNL     1     110.523 126.847 139.793  0.00  0.00    +0.000 OA
ATOM      4  C   UNL     1     111.183 128.920 139.607  0.00  0.00    +0.000 C 
ATOM      5  C   UNL     1     111.011 128.182 139.935  0.00  0.00    +0.000 C 
ATOM      6  C   UNL     1     110.695 127.584 139.464  0.00  0.00    +0.000 C 
ATOM      7  C   UNL     1     110.550 127.722 138.664  0.00  0.00    +0.000 C 
ATOM      8  C   UNL     1     111.038 129.058 138.806  0.00  0.00    +0.000 C 
ENDROOT
BRANCH   4   9
ATOM      9  O   UNL     1     111.499 129.518 140.078  0.00  0.00    +0.000 OA
BRANCH   9  14
ATOM     10  O   UNL     1     110.191 129.824 140.567  0.00  0.00    +0.000 OA
ATOM     11  O   UNL     1     112.129 130.725 141.009  0.00  0.00    +0.000 OA
ATOM     12  O   UNL     1     111.137 131.634 141.964  0.00  0.00    +0.000 OA
ATOM     13  O   UNL     1     109.514 131.336 141.987  0.00  0.00    +0.000 OA
ATOM     14  C   UNL     1     111.003 129.972 140.555  0.00  0.00    +0.000 C 
ATOM     15  C   UNL     1     111.318 130.577 141.021  0.00  0.00    +0.000 C 
ATOM     16  C   UNL     1     110.822 131.031 141.499  0.00  0.00    +0.000 C 
ATOM     17  C   UNL     1     110.010 130.881 141.510  0.00  0.00    +0.000 C 
ATOM     18  C   UNL     1     109.695 130.278 141.044  0.00  0.00    +0.000 C 
ENDBRANCH   9  14
ENDBRANCH   4   9
BRANCH   8  19
ATOM     19  O   UNL     1     111.210 129.794 138.477  0.00  0.00    +0.000 OA
BRANCH  19  23
ATOM     20  O   UNL     1     111.842 130.464 136.498  0.00  0.00    +0.000 OA
ATOM     21  O   UNL     1     113.492 128.238 137.317  0.00  0.00    +0.000 OA
ATOM     22  O   UNL     1     113.941 129.502 134.724  0.00  0.00    +0.000 OA
ATOM     23  C   UNL     1     111.626 129.842 137.766  0.00  0.00    +0.000 A 
ATOM     24  C   UNL     1     111.425 130.417 137.209  0.00  0.00    +0.000 A 
ATOM     25  C   UNL     1     112.242 129.316 137.613  0.00  0.00    +0.000 A 
ATOM     26  C   UNL     1     112.658 129.364 136.903  0.00  0.00    +0.000 A 
ATOM     27  C   UNL     1     112.458 129.938 136.345  0.00  0.00    +0.000 A 
ATOM     28  C   UNL     1     113.299 128.809 136.754  0.00  0.00    +0.000 A 
ATOM     29  C   UNL     1     112.884 129.997 135.601  0.00  0.00    +0.000 A 
ATOM     30  C   UNL     1     113.736 128.854 136.016  0.00  0.00    +0.000 A 
ATOM     31  C   UNL     1     113.527 129.452 135.436  0.00  0.00    +0.000 A 
BRANCH  24  34
ATOM     32  O   UNL     1     110.501 132.904 138.270  0.00  0.00    +0.000 OA
ATOM     33  O   UNL     1     108.960 132.523 137.821  0.00  0.00    +0.000 OA
ATOM     34  C   UNL     1     110.810 130.943 137.362  0.00  0.00    +0.000 A 
ATOM     35  C   UNL     1     110.963 131.660 137.740  0.00  0.00    +0.000 A 
ATOM     36  C   UNL     1     110.039 130.752 137.138  0.00  0.00    +0.000 A 
ATOM     37  C   UNL     1     110.347 132.187 137.893  0.00  0.00    +0.000 A 
ATOM     38  C   UNL     1     109.422 131.279 137.291  0.00  0.00    +0.000 A 
ATOM     39  C   UNL     1     109.577 131.996 137.668  0.00  0.00    +0.000 A 
ENDBRANCH  24  34
ENDBRANCH  19  23
ENDBRANCH   8  19
BRANCH   7  40
ATOM     40  C   UNL     1     110.234 127.123 138.192  0.00  0.00    +0.000 C 
BRANCH  40  41
ATOM     41  O   UNL     1     109.755 127.316 137.549  0.00  0.00    +0.000 OA
BRANCH  41  46
ATOM     42  O   UNL     1     110.339 126.256 136.789  0.00  0.00    +0.000 OA
ATOM     43  O   UNL     1     108.645 127.562 136.352  0.00  0.00    +0.000 OA
ATOM     44  O   UNL     1     108.675 126.625 134.995  0.00  0.00    +0.000 OA
ATOM     45  O   UNL     1     109.814 125.442 134.833  0.00  0.00    +0.000 OA
ATOM     46  C   UNL     1     109.769 126.847 136.869  0.00  0.00    +0.000 C 
ATOM     47  C   UNL     1     109.215 126.970 136.271  0.00  0.00    +0.000 C 
ATOM     48  C   UNL     1     109.229 126.502 135.593  0.00  0.00    +0.000 C 
ATOM     49  C   UNL     1     109.799 125.910 135.511  0.00  0.00    +0.000 C 
ATOM     50  C   UNL     1     110.354 125.787 136.109  0.00  0.00    +0.000 C 
BRANCH  50  51
ATOM     51  C   UNL     1     110.923 125.196 136.029  0.00  0.00    +0.000 C 
BRANCH  51  52
ATOM     52  O   UNL     1     111.660 125.280 136.391  0.00  0.00    +0.000 OA
BRANCH  52  54
ATOM     53  O   UNL     1     111.915 123.885 136.213  0.00  0.00    +0.000 OA
ATOM     54  C   UNL     1     112.174 124.637 136.434  0.00  0.00    +0.000 C 
BRANCH  54  56
ATOM     55  O   UNL     1     115.271 125.068 137.489  0.00  0.00    +0.000 OA
ATOM     56  C   UNL     1     112.948 124.745 136.698  0.00  0.00    +0.000 A 
ATOM     57  C   UNL     1     113.109 124.769 137.506  0.00  0.00    +0.000 A 
ATOM     58  C   UNL     1     113.562 124.828 136.152  0.00  0.00    +0.000 A 
ATOM     59  C   UNL     1     113.883 124.877 137.770  0.00  0.00    +0.000 A 
ATOM     60  C   UNL     1     114.336 124.936 136.416  0.00  0.00    +0.000 A 
ATOM     61  C   UNL     1     114.496 124.961 137.225  0.00  0.00    +0.000 A 
ENDBRANCH  54  56
ENDBRANCH  52  54
ENDBRANCH  51  52
ENDBRANCH  50  51
ENDBRANCH  41  46
ENDBRANCH  40  41
ENDBRANCH   7  40
TORSDOF 12
ENDMDL
MODEL 8
REMARK VINA RESULT:     -10.7      1.346      5.158
REMARK  Name = 74976921
REMARK  12 active torsions:
REMARK  status: ('A' for Active; 'I' for Inactive)
REMARK    1  A    between atoms: O_2  and  C_23
REMARK    2  A    between atoms: O_2  and  C_29
REMARK    3  A    between atoms: O_3  and  C_28
REMARK    4  A    between atoms: O_3  and  C_30
REMARK    5  A    between atoms: O_7  and  C_27
REMARK    6  A    between atoms: O_7  and  C_40
REMARK    7  A    between atoms: O_15  and  C_39
REMARK    8  A    between atoms: O_15  and  C_46
REMARK    9  A    between atoms: C_26  and  C_28
REMARK   10  A    between atoms: C_35  and  C_39
REMARK   11  A    between atoms: C_41  and  C_44
REMARK   12  A    between atoms: C_46  and  C_51
REMARK                            x       y       z     vdW  Elec       q    Type
REMARK                         _______ _______ _______ _____ _____    ______ ____
ROOT
ATOM      1  O   UNL     1     111.080 128.705 138.159  0.00  0.00    +0.000 OA
ATOM      2  O   UNL     1     111.216 128.414 140.613  0.00  0.00    +0.000 OA
ATOM      3  O   UNL     1     110.588 127.212 139.673  0.00  0.00    +0.000 OA
ATOM      4  C   UNL     1     111.439 129.209 139.448  0.00  0.00    +0.000 C 
ATOM      5  C   UNL     1     111.171 128.511 139.795  0.00  0.00    +0.000 C 
ATOM      6  C   UNL     1     110.857 127.910 139.326  0.00  0.00    +0.000 C 
ATOM      7  C   UNL     1     110.812 128.007 138.508  0.00  0.00    +0.000 C 
ATOM      8  C   UNL     1     111.394 129.306 138.629  0.00  0.00    +0.000 C 
ENDROOT
BRANCH   4   9
ATOM      9  O   UNL     1     111.753 129.810 139.917  0.00  0.00    +0.000 OA
BRANCH   9  14
ATOM     10  O   UNL     1     113.028 129.166 139.893  0.00  0.00    +0.000 OA
ATOM     11  O   UNL     1     112.357 130.967 140.927  0.00  0.00    +0.000 OA
ATOM     12  O   UNL     1     113.934 130.900 141.408  0.00  0.00    +0.000 OA
ATOM     13  O   UNL     1     114.906 129.677 140.879  0.00  0.00    +0.000 OA
ATOM     14  C   UNL     1     112.541 129.777 140.157  0.00  0.00    +0.000 C 
ATOM     15  C   UNL     1     112.843 130.356 140.663  0.00  0.00    +0.000 C 
ATOM     16  C   UNL     1     113.632 130.322 140.903  0.00  0.00    +0.000 C 
ATOM     17  C   UNL     1     114.118 129.710 140.638  0.00  0.00    +0.000 C 
ATOM     18  C   UNL     1     113.816 129.133 140.134  0.00  0.00    +0.000 C 
ENDBRANCH   9  14
ENDBRANCH   4   9
BRANCH   8  19
ATOM     19  O   UNL     1     111.662 130.004 138.281  0.00  0.00    +0.000 OA
BRANCH  19  23
ATOM     20  O   UNL     1     110.985 131.196 136.583  0.00  0.00    +0.000 OA
ATOM     21  O   UNL     1     108.742 130.669 138.328  0.00  0.00    +0.000 OA
ATOM     22  O   UNL     1     108.353 132.238 135.895  0.00  0.00    +0.000 OA
ATOM     23  C   UNL     1     111.169 130.429 137.774  0.00  0.00    +0.000 A 
ATOM     24  C   UNL     1     111.478 130.771 137.089  0.00  0.00    +0.000 A 
ATOM     25  C   UNL     1     110.368 130.511 137.952  0.00  0.00    +0.000 A 
ATOM     26  C   UNL     1     109.875 130.936 137.445  0.00  0.00    +0.000 A 
ATOM     27  C   UNL     1     110.183 131.278 136.760  0.00  0.00    +0.000 A 
ATOM     28  C   UNL     1     109.041 131.015 137.640  0.00  0.00    +0.000 A 
ATOM     29  C   UNL     1     109.679 131.723 136.225  0.00  0.00    +0.000 A 
ATOM     30  C   UNL     1     108.522 131.456 137.117  0.00  0.00    +0.000 A 
ATOM     31  C   UNL     1     108.844 131.812 136.404  0.00  0.00    +0.000 A 
BRANCH  24  34
ATOM     32  O   UNL     1     113.596 129.335 135.818  0.00  0.00    +0.000 OA
ATOM     33  O   UNL     1     114.684 130.442 136.378  0.00  0.00    +0.000 OA
ATOM     34  C   UNL     1     112.279 130.688 136.912  0.00  0.00    +0.000 A 
ATOM     35  C   UNL     1     112.537 130.053 136.453  0.00  0.00    +0.000 A 
ATOM     36  C   UNL     1     112.822 131.242 137.192  0.00  0.00    +0.000 A 
ATOM     37  C   UNL     1     113.338 129.970 136.276  0.00  0.00    +0.000 A 
ATOM     38  C   UNL     1     113.624 131.160 137.014  0.00  0.00    +0.000 A 
ATOM     39  C   UNL     1     113.882 130.524 136.556  0.00  0.00    +0.000 A 
ENDBRANCH  24  34
ENDBRANCH  19  23
ENDBRANCH   8  19
BRANCH   7  40
ATOM     40  C   UNL     1     110.498 127.405 138.037  0.00  0.00    +0.000 C 
BRANCH  40  41
ATOM     41  O   UNL     1     109.976 127.591 137.426  0.00  0.00    +0.000 OA
BRANCH  41  46
ATOM     42  O   UNL     1     110.409 126.444 136.691  0.00  0.00    +0.000 OA
ATOM     43  O   UNL     1     108.724 127.794 136.371  0.00  0.00    +0.000 OA
ATOM     44  O   UNL     1     108.531 126.749 135.108  0.00  0.00    +0.000 OA
ATOM     45  O   UNL     1     109.590 125.501 134.901  0.00  0.00    +0.000 OA
ATOM     46  C   UNL     1     109.879 127.068 136.794  0.00  0.00    +0.000 C 
ATOM     47  C   UNL     1     109.253 127.170 136.267  0.00  0.00    +0.000 C 
ATOM     48  C   UNL     1     109.157 126.648 135.636  0.00  0.00    +0.000 C 
ATOM     49  C   UNL     1     109.686 126.023 135.532  0.00  0.00    +0.000 C 
ATOM     50  C   UNL     1     110.312 125.921 136.059  0.00  0.00    +0.000 C 
BRANCH  50  51
ATOM     51  C   UNL     1     110.842 125.297 135.956  0.00  0.00    +0.000 C 
BRANCH  51  52
ATOM     52  O   UNL     1     111.608 125.352 136.256  0.00  0.00    +0.000 OA
BRANCH  52  54
ATOM     53  O   UNL     1     111.828 123.974 135.948  0.00  0.00    +0.000 OA
ATOM     54  C   UNL     1     112.101 124.692 136.250  0.00  0.00    +0.000 C 
BRANCH  54  56
ATOM     55  O   UNL     1     115.172 124.916 137.438  0.00  0.00    +0.000 OA
ATOM     56  C   UNL     1     112.869 124.748 136.547  0.00  0.00    +0.000 A 
ATOM     57  C   UNL     1     113.125 124.225 137.131  0.00  0.00    +0.000 A 
ATOM     58  C   UNL     1     113.382 125.328 136.260  0.00  0.00    +0.000 A 
ATOM     59  C   UNL     1     113.893 124.281 137.428  0.00  0.00    +0.000 A 
ATOM     60  C   UNL     1     114.149 125.384 136.557  0.00  0.00    +0.000 A 
ATOM     61  C   UNL     1     114.404 124.860 137.141  0.00  0.00    +0.000 A 
ENDBRANCH  54  56
ENDBRANCH  52  54
ENDBRANCH  51  52
ENDBRANCH  50  51
ENDBRANCH  41  46
ENDBRANCH  40  41
ENDBRANCH   7  40
TORSDOF 12
ENDMDL
MODEL 9
REMARK VINA RESULT:     -10.7      1.707      5.471
REMARK  Name = 74976921
REMARK  12 active torsions:
REMARK  status: ('A' for Active; 'I' for Inactive)
REMARK    1  A    between atoms: O_2  and  C_23
REMARK    2  A    between atoms: O_2  and  C_29
REMARK    3  A    between atoms: O_3  and  C_28
REMARK    4  A    between atoms: O_3  and  C_30
REMARK    5  A    between atoms: O_7  and  C_27
REMARK    6  A    between atoms: O_7  and  C_40
REMARK    7  A    between atoms: O_15  and  C_39
REMARK    8  A    between atoms: O_15  and  C_46
REMARK    9  A    between atoms: C_26  and  C_28
REMARK   10  A    between atoms: C_35  and  C_39
REMARK   11  A    between atoms: C_41  and  C_44
REMARK   12  A    between atoms: C_46  and  C_51
REMARK                            x       y       z     vdW  Elec       q    Type
REMARK                         _______ _______ _______ _____ _____    ______ ____
ROOT
ATOM      1  O   UNL     1     112.102 128.128 139.350  0.00  0.00    +0.000 OA
ATOM      2  O   UNL     1     113.413 127.687 141.403  0.00  0.00    +0.000 OA
ATOM      3  O   UNL     1     113.355 126.556 140.202  0.00  0.00    +0.000 OA
ATOM      4  C   UNL     1     112.568 128.546 140.635  0.00  0.00    +0.000 C 
ATOM      5  C   UNL     1     112.976 127.834 140.718  0.00  0.00    +0.000 C 
ATOM      6  C   UNL     1     112.947 127.269 140.119  0.00  0.00    +0.000 C 
ATOM      7  C   UNL     1     112.510 127.416 139.435  0.00  0.00    +0.000 C 
ATOM      8  C   UNL     1     112.131 128.693 139.951  0.00  0.00    +0.000 C 
ENDROOT
BRANCH   4   9
ATOM      9  O   UNL     1     112.597 129.112 141.235  0.00  0.00    +0.000 OA
BRANCH   9  14
ATOM     10  O   UNL     1     111.543 128.437 141.924  0.00  0.00    +0.000 OA
ATOM     11  O   UNL     1     112.722 130.187 142.480  0.00  0.00    +0.000 OA
ATOM     12  O   UNL     1     111.730 130.050 143.791  0.00  0.00    +0.000 OA
ATOM     13  O   UNL     1     110.613 128.837 143.857  0.00  0.00    +0.000 OA
ATOM     14  C   UNL     1     112.101 129.043 141.890  0.00  0.00    +0.000 C 
ATOM     15  C   UNL     1     112.164 129.581 142.513  0.00  0.00    +0.000 C 
ATOM     16  C   UNL     1     111.667 129.513 143.169  0.00  0.00    +0.000 C 
ATOM     17  C   UNL     1     111.109 128.906 143.201  0.00  0.00    +0.000 C 
ATOM     18  C   UNL     1     111.046 128.369 142.579  0.00  0.00    +0.000 C 
ENDBRANCH   9  14
ENDBRANCH   4   9
BRANCH   8  19
ATOM     19  O   UNL     1     111.723 129.405 139.866  0.00  0.00    +0.000 OA
BRANCH  19  23
ATOM     20  O   UNL     1     111.398 130.805 138.224  0.00  0.00    +0.000 OA
ATOM     21  O   UNL     1     114.186 130.045 138.286  0.00  0.00    +0.000 OA
ATOM     22  O   UNL     1     113.235 131.916 136.255  0.00  0.00    +0.000 OA
ATOM     23  C   UNL     1     111.869 129.890 139.215  0.00  0.00    +0.000 A 
ATOM     24  C   UNL     1     111.252 130.320 138.875  0.00  0.00    +0.000 A 
ATOM     25  C   UNL     1     112.631 129.945 138.905  0.00  0.00    +0.000 A 
ATOM     26  C   UNL     1     112.777 130.430 138.254  0.00  0.00    +0.000 A 
ATOM     27  C   UNL     1     112.161 130.860 137.913  0.00  0.00    +0.000 A 
ATOM     28  C   UNL     1     113.576 130.479 137.938  0.00  0.00    +0.000 A 
ATOM     29  C   UNL     1     112.301 131.368 137.234  0.00  0.00    +0.000 A 
ATOM     30  C   UNL     1     113.735 130.982 137.261  0.00  0.00    +0.000 A 
ATOM     31  C   UNL     1     113.093 131.430 136.906  0.00  0.00    +0.000 A 
BRANCH  24  34
ATOM     32  O   UNL     1     109.226 131.281 140.646  0.00  0.00    +0.000 OA
ATOM     33  O   UNL     1     108.203 130.100 140.117  0.00  0.00    +0.000 OA
ATOM     34  C   UNL     1     110.491 130.265 139.185  0.00  0.00    +0.000 A 
ATOM     35  C   UNL     1     110.239 130.800 139.761  0.00  0.00    +0.000 A 
ATOM     36  C   UNL     1     109.979 129.674 138.920  0.00  0.00    +0.000 A 
ATOM     37  C   UNL     1     109.477 130.746 140.071  0.00  0.00    +0.000 A 
ATOM     38  C   UNL     1     109.216 129.619 139.231  0.00  0.00    +0.000 A 
ATOM     39  C   UNL     1     108.966 130.155 139.806  0.00  0.00    +0.000 A 
ENDBRANCH  24  34
ENDBRANCH  19  23
ENDBRANCH   8  19
BRANCH   7  40
ATOM     40  C   UNL     1     112.481 126.850 138.834  0.00  0.00    +0.000 C 
BRANCH  40  41
ATOM     41  O   UNL     1     111.760 126.507 138.626  0.00  0.00    +0.000 OA
BRANCH  41  46
ATOM     42  O   UNL     1     111.618 126.798 137.234  0.00  0.00    +0.000 OA
ATOM     43  O   UNL     1     111.540 124.902 138.313  0.00  0.00    +0.000 OA
ATOM     44  O   UNL     1     111.288 124.390 136.765  0.00  0.00    +0.000 OA
ATOM     45  O   UNL     1     111.256 125.484 135.530  0.00  0.00    +0.000 OA
ATOM     46  C   UNL     1     111.634 126.251 137.851  0.00  0.00    +0.000 C 
ATOM     47  C   UNL     1     111.524 125.448 137.695  0.00  0.00    +0.000 C 
ATOM     48  C   UNL     1     111.398 125.193 136.922  0.00  0.00    +0.000 C 
ATOM     49  C   UNL     1     111.382 125.739 136.303  0.00  0.00    +0.000 C 
ATOM     50  C   UNL     1     111.491 126.542 136.460  0.00  0.00    +0.000 C 
BRANCH  50  51
ATOM     51  C   UNL     1     111.475 127.089 135.843  0.00  0.00    +0.000 C 
BRANCH  51  52
ATOM     52  O   UNL     1     111.005 127.764 135.901  0.00  0.00    +0.000 OA
BRANCH  52  54
ATOM     53  O   UNL     1     111.691 128.371 134.804  0.00  0.00    +0.000 OA
ATOM     54  C   UNL     1     111.047 128.347 135.320  0.00  0.00    +0.000 C 
BRANCH  54  56
ATOM     55  O   UNL     1     108.639 130.588 135.056  0.00  0.00    +0.000 OA
ATOM     56  C   UNL     1     110.445 128.907 135.254  0.00  0.00    +0.000 A 
ATOM     57  C   UNL     1     109.698 128.749 135.565  0.00  0.00    +0.000 A 
ATOM     58  C   UNL     1     110.591 129.627 134.877  0.00  0.00    +0.000 A 
ATOM     59  C   UNL     1     109.096 129.310 135.499  0.00  0.00    +0.000 A 
ATOM     60  C   UNL     1     109.989 130.188 134.810  0.00  0.00    +0.000 A 
ATOM     61  C   UNL     1     109.241 130.028 135.122  0.00  0.00    +0.000 A 
ENDBRANCH  54  56
ENDBRANCH  52  54
ENDBRANCH  51  52
ENDBRANCH  50  51
ENDBRANCH  41  46
ENDBRANCH  40  41
ENDBRANCH   7  40
TORSDOF 12
ENDMDL
MODEL 10
REMARK VINA RESULT:     -10.7      2.307      5.509
REMARK  Name = 74976921
REMARK  12 active torsions:
REMARK  status: ('A' for Active; 'I' for Inactive)
REMARK    1  A    between atoms: O_2  and  C_23
REMARK    2  A    between atoms: O_2  and  C_29
REMARK    3  A    between atoms: O_3  and  C_28
REMARK    4  A    between atoms: O_3  and  C_30
REMARK    5  A    between atoms: O_7  and  C_27
REMARK    6  A    between atoms: O_7  and  C_40
REMARK    7  A    between atoms: O_15  and  C_39
REMARK    8  A    between atoms: O_15  and  C_46
REMARK    9  A    between atoms: C_26  and  C_28
REMARK   10  A    between atoms: C_35  and  C_39
REMARK   11  A    between atoms: C_41  and  C_44
REMARK   12  A    between atoms: C_46  and  C_51
REMARK                            x       y       z     vdW  Elec       q    Type
REMARK                         _______ _______ _______ _____ _____    ______ ____
ROOT
ATOM      1  O   UNL     1     111.397 128.095 139.133  0.00  0.00    +0.000 OA
ATOM      2  O   UNL     1     111.304 125.643 139.457  0.00  0.00    +0.000 OA
ATOM      3  O   UNL     1     110.184 126.614 140.182  0.00  0.00    +0.000 OA
ATOM      4  C   UNL     1     111.926 126.791 138.878  0.00  0.00    +0.000 C 
ATOM      5  C   UNL     1     111.335 126.460 139.349  0.00  0.00    +0.000 C 
ATOM      6  C   UNL     1     110.775 126.945 139.712  0.00  0.00    +0.000 C 
ATOM      7  C   UNL     1     110.806 127.762 139.604  0.00  0.00    +0.000 C 
ATOM      8  C   UNL     1     111.957 127.609 138.770  0.00  0.00    +0.000 C 
ENDROOT
BRANCH   4   9
ATOM      9  O   UNL     1     112.485 126.306 138.516  0.00  0.00    +0.000 OA
BRANCH   9  14
ATOM     10  O   UNL     1     111.555 126.004 137.474  0.00  0.00    +0.000 OA
ATOM     11  O   UNL     1     113.550 125.218 137.880  0.00  0.00    +0.000 OA
ATOM     12  O   UNL     1     113.151 124.372 136.521  0.00  0.00    +0.000 OA
ATOM     13  O   UNL     1     111.688 124.614 135.798  0.00  0.00    +0.000 OA
ATOM     14  C   UNL     1     112.286 125.883 137.836  0.00  0.00    +0.000 C 
ATOM     15  C   UNL     1     112.819 125.338 137.518  0.00  0.00    +0.000 C 
ATOM     16  C   UNL     1     112.619 124.915 136.838  0.00  0.00    +0.000 C 
ATOM     17  C   UNL     1     111.887 125.037 136.477  0.00  0.00    +0.000 C 
ATOM     18  C   UNL     1     111.355 125.581 136.795  0.00  0.00    +0.000 C 
ENDBRANCH   9  14
ENDBRANCH   4   9
BRANCH   8  19
ATOM     19  O   UNL     1     112.547 127.941 138.300  0.00  0.00    +0.000 OA
BRANCH  19  23
ATOM     20  O   UNL     1     113.614 129.845 138.330  0.00  0.00    +0.000 OA
ATOM     21  O   UNL     1     113.656 128.692 140.980  0.00  0.00    +0.000 OA
ATOM     22  O   UNL     1     114.958 131.260 140.492  0.00  0.00    +0.000 OA
ATOM     23  C   UNL     1     112.978 128.589 138.574  0.00  0.00    +0.000 A 
ATOM     24  C   UNL     1     113.183 129.197 138.056  0.00  0.00    +0.000 A 
ATOM     25  C   UNL     1     113.204 128.628 139.366  0.00  0.00    +0.000 A 
ATOM     26  C   UNL     1     113.635 129.276 139.640  0.00  0.00    +0.000 A 
ATOM     27  C   UNL     1     113.840 129.884 139.123  0.00  0.00    +0.000 A 
ATOM     28  C   UNL     1     113.865 129.305 140.469  0.00  0.00    +0.000 A 
ATOM     29  C   UNL     1     114.289 130.564 139.397  0.00  0.00    +0.000 A 
ATOM     30  C   UNL     1     114.314 129.977 140.761  0.00  0.00    +0.000 A 
ATOM     31  C   UNL     1     114.527 130.610 140.221  0.00  0.00    +0.000 A 
BRANCH  24  34
ATOM     32  O   UNL     1     111.307 129.796 135.984  0.00  0.00    +0.000 OA
ATOM     33  O   UNL     1     112.279 129.040 134.885  0.00  0.00    +0.000 OA
ATOM     34  C   UNL     1     112.957 129.158 137.264  0.00  0.00    +0.000 A 
ATOM     35  C   UNL     1     112.245 129.496 137.020  0.00  0.00    +0.000 A 
ATOM     36  C   UNL     1     113.443 128.780 136.714  0.00  0.00    +0.000 A 
ATOM     37  C   UNL     1     112.019 129.457 136.228  0.00  0.00    +0.000 A 
ATOM     38  C   UNL     1     113.217 128.741 135.921  0.00  0.00    +0.000 A 
ATOM     39  C   UNL     1     112.505 129.079 135.679  0.00  0.00    +0.000 A 
ENDBRANCH  24  34
ENDBRANCH  19  23
ENDBRANCH   8  19
BRANCH   7  40
ATOM     40  C   UNL     1     110.246 128.248 139.966  0.00  0.00    +0.000 C 
BRANCH  40  41
ATOM     41  O   UNL     1     110.018 128.954 139.606  0.00  0.00    +0.000 OA
BRANCH  41  46
ATOM     42  O   UNL     1     110.170 129.857 140.703  0.00  0.00    +0.000 OA
ATOM     43  O   UNL     1     108.560 129.638 139.245  0.00  0.00    +0.000 OA
ATOM     44  O   UNL     1     107.983 130.883 140.162  0.00  0.00    +0.000 OA
ATOM     45  O   UNL     1     108.864 131.443 141.440  0.00  0.00    +0.000 OA
ATOM     46  C   UNL     1     109.729 129.577 140.064  0.00  0.00    +0.000 C 
ATOM     47  C   UNL     1     109.000 129.919 139.884  0.00  0.00    +0.000 C 
ATOM     48  C   UNL     1     108.712 130.541 140.342  0.00  0.00    +0.000 C 
ATOM     49  C   UNL     1     109.152 130.822 140.981  0.00  0.00    +0.000 C 
ATOM     50  C   UNL     1     109.881 130.480 141.162  0.00  0.00    +0.000 C 
BRANCH  50  51
ATOM     51  C   UNL     1     110.322 130.760 141.800  0.00  0.00    +0.000 C 
BRANCH  51  52
ATOM     52  O   UNL     1     110.711 130.229 142.298  0.00  0.00    +0.000 OA
BRANCH  52  54
ATOM     53  O   UNL     1     111.610 131.236 142.765  0.00  0.00    +0.000 OA
ATOM     54  C   UNL     1     111.236 130.509 142.869  0.00  0.00    +0.000 C 
BRANCH  54  56
ATOM     55  O   UNL     1     111.839 128.716 145.573  0.00  0.00    +0.000 OA
ATOM     56  C   UNL     1     111.386 130.061 143.545  0.00  0.00    +0.000 A 
ATOM     57  C   UNL     1     111.632 129.276 143.474  0.00  0.00    +0.000 A 
ATOM     58  C   UNL     1     111.292 130.397 144.293  0.00  0.00    +0.000 A 
ATOM     59  C   UNL     1     111.783 128.828 144.151  0.00  0.00    +0.000 A 
ATOM     60  C   UNL     1     111.442 129.949 144.969  0.00  0.00    +0.000 A 
ATOM     61  C   UNL     1     111.688 129.165 144.897  0.00  0.00    +0.000 A 
ENDBRANCH  54  56
ENDBRANCH  52  54
ENDBRANCH  51  52
ENDBRANCH  50  51
ENDBRANCH  41  46
ENDBRANCH  40  41
ENDBRANCH   7  40
TORSDOF 12
ENDMDL
