MODEL 1
REMARK VINA RESULT:      -9.3      0.000      0.000
REMARK  Name = 75614571
REMARK  5 active torsions:
REMARK  status: ('A' for Active; 'I' for Inactive)
REMARK    1  A    between atoms: O_2  and  C_14
REMARK    2  A    between atoms: O_2  and  C_16
REMARK    3  A    between atoms: O_9  and  C_30
REMARK    4  A    between atoms: C_13  and  C_15
REMARK    5  A    between atoms: C_17  and  C_25
REMARK                            x       y       z     vdW  Elec       q    Type
REMARK                         _______ _______ _______ _____ _____    ______ ____
ROOT
ATOM      1  O   UNL     1     104.862 124.367 139.518  0.00  0.00    +0.000 OA
ATOM      2  O   UNL     1     104.608 122.741 141.368  0.00  0.00    +0.000 OA
ATOM      3  C   UNL     1     106.323 125.205 140.986  0.00  0.00    +0.000 A 
ATOM      4  C   UNL     1     104.332 123.739 139.446  0.00  0.00    +0.000 C 
ATOM      5  C   UNL     1     104.248 123.197 140.062  0.00  0.00    +0.000 C 
ATOM      6  C   UNL     1     105.308 124.453 140.207  0.00  0.00    +0.000 A 
ATOM      7  C   UNL     1     105.223 123.911 140.824  0.00  0.00    +0.000 A 
ATOM      8  C   UNL     1     105.857 125.111 140.271  0.00  0.00    +0.000 A 
ATOM      9  C   UNL     1     104.693 123.283 140.751  0.00  0.00    +0.000 C 
ATOM     10  C   UNL     1     106.235 124.642 141.628  0.00  0.00    +0.000 A 
ATOM     11  C   UNL     1     105.682 123.990 141.546  0.00  0.00    +0.000 A 
ENDROOT
BRANCH   4  12
ATOM     12  C   UNL     1     103.886 123.653 138.757  0.00  0.00    +0.000 A 
ATOM     13  C   UNL     1     103.078 123.816 138.765  0.00  0.00    +0.000 A 
ATOM     14  C   UNL     1     104.249 123.403 138.059  0.00  0.00    +0.000 A 
ATOM     15  C   UNL     1     102.632 123.730 138.076  0.00  0.00    +0.000 A 
ATOM     16  C   UNL     1     103.805 123.316 137.370  0.00  0.00    +0.000 A 
ATOM     17  C   UNL     1     102.996 123.480 137.379  0.00  0.00    +0.000 A 
BRANCH  17  18
ATOM     18  O   UNL     1     102.550 123.394 136.690  0.00  0.00    +0.000 OA
ATOM     19  C   UNL     1     102.919 123.183 135.983  0.00  0.00    +0.000 C 
ENDBRANCH  17  18
ENDBRANCH   4  12
BRANCH   3  20
ATOM     20  O   UNL     1     106.853 125.834 141.056  0.00  0.00    +0.000 OA
BRANCH  20  29
ATOM     21  O   UNL     1     105.971 126.869 141.495  0.00  0.00    +0.000 OA
ATOM     22  O   UNL     1     107.606 127.525 143.233  0.00  0.00    +0.000 OA
ATOM     23  O   UNL     1     106.180 128.341 143.093  0.00  0.00    +0.000 OA
ATOM     24  O   UNL     1     107.943 126.272 142.214  0.00  0.00    +0.000 OA
ATOM     25  C   UNL     1     107.061 127.307 142.654  0.00  0.00    +0.000 C 
ATOM     26  C   UNL     1     106.348 127.715 142.584  0.00  0.00    +0.000 C 
ATOM     27  C   UNL     1     107.230 126.680 142.145  0.00  0.00    +0.000 C 
ATOM     28  C   UNL     1     105.803 127.496 142.004  0.00  0.00    +0.000 C 
ATOM     29  C   UNL     1     106.685 126.461 141.565  0.00  0.00    +0.000 C 
BRANCH  28  31
ATOM     30  O   UNL     1     104.853 128.196 141.199  0.00  0.00    +0.000 OA
ATOM     31  C   UNL     1     105.090 127.904 141.934  0.00  0.00    +0.000 C 
ENDBRANCH  28  31
ENDBRANCH  20  29
ENDBRANCH   3  20
TORSDOF 5
ENDMDL
MODEL 2
REMARK VINA RESULT:      -9.1      7.069      8.251
REMARK  Name = 75614571
REMARK  5 active torsions:
REMARK  status: ('A' for Active; 'I' for Inactive)
REMARK    1  A    between atoms: O_2  and  C_14
REMARK    2  A    between atoms: O_2  and  C_16
REMARK    3  A    between atoms: O_9  and  C_30
REMARK    4  A    between atoms: C_13  and  C_15
REMARK    5  A    between atoms: C_17  and  C_25
REMARK                            x       y       z     vdW  Elec       q    Type
REMARK                         _______ _______ _______ _____ _____    ______ ____
ROOT
ATOM      1  O   UNL     1     110.924 126.326 136.509  0.00  0.00    +0.000 OA
ATOM      2  O   UNL     1     109.687 125.325 134.613  0.00  0.00    +0.000 OA
ATOM      3  C   UNL     1     109.238 127.781 136.324  0.00  0.00    +0.000 A 
ATOM      4  C   UNL     1     111.201 125.634 136.155  0.00  0.00    +0.000 C 
ATOM      5  C   UNL     1     110.788 125.301 135.523  0.00  0.00    +0.000 C 
ATOM      6  C   UNL     1     110.234 126.684 136.232  0.00  0.00    +0.000 A 
ATOM      7  C   UNL     1     109.822 126.350 135.599  0.00  0.00    +0.000 A 
ATOM      8  C   UNL     1     109.956 127.404 136.609  0.00  0.00    +0.000 A 
ATOM      9  C   UNL     1     110.099 125.658 135.245  0.00  0.00    +0.000 C 
ATOM     10  C   UNL     1     108.809 127.434 135.666  0.00  0.00    +0.000 A 
ATOM     11  C   UNL     1     109.103 126.714 135.301  0.00  0.00    +0.000 A 
ENDROOT
BRANCH   4  12
ATOM     12  C   UNL     1     111.890 125.276 136.432  0.00  0.00    +0.000 A 
ATOM     13  C   UNL     1     111.848 124.558 136.837  0.00  0.00    +0.000 A 
ATOM     14  C   UNL     1     112.622 125.635 136.305  0.00  0.00    +0.000 A 
ATOM     15  C   UNL     1     112.537 124.200 137.115  0.00  0.00    +0.000 A 
ATOM     16  C   UNL     1     113.311 125.278 136.582  0.00  0.00    +0.000 A 
ATOM     17  C   UNL     1     113.269 124.560 136.987  0.00  0.00    +0.000 A 
BRANCH  17  18
ATOM     18  O   UNL     1     113.958 124.202 137.264  0.00  0.00    +0.000 OA
ATOM     19  C   UNL     1     114.644 124.649 137.366  0.00  0.00    +0.000 C 
ENDBRANCH  17  18
ENDBRANCH   4  12
BRANCH   3  20
ATOM     20  O   UNL     1     108.964 128.473 136.680  0.00  0.00    +0.000 OA
BRANCH  20  29
ATOM     21  O   UNL     1     109.932 129.441 136.273  0.00  0.00    +0.000 OA
ATOM     22  O   UNL     1     108.115 130.942 135.518  0.00  0.00    +0.000 OA
ATOM     23  O   UNL     1     109.689 131.409 135.363  0.00  0.00    +0.000 OA
ATOM     24  O   UNL     1     107.752 129.473 136.177  0.00  0.00    +0.000 OA
ATOM     25  C   UNL     1     108.721 130.442 135.769  0.00  0.00    +0.000 C 
ATOM     26  C   UNL     1     109.507 130.676 135.692  0.00  0.00    +0.000 C 
ATOM     27  C   UNL     1     108.538 129.707 136.099  0.00  0.00    +0.000 C 
ATOM     28  C   UNL     1     110.113 130.175 135.943  0.00  0.00    +0.000 C 
ATOM     29  C   UNL     1     109.144 129.207 136.351  0.00  0.00    +0.000 C 
BRANCH  28  31
ATOM     30  O   UNL     1     111.406 130.375 136.518  0.00  0.00    +0.000 OA
ATOM     31  C   UNL     1     110.900 130.409 135.866  0.00  0.00    +0.000 C 
ENDBRANCH  28  31
ENDBRANCH  20  29
ENDBRANCH   3  20
TORSDOF 5
ENDMDL
MODEL 3
REMARK VINA RESULT:      -8.9      4.054      6.339
REMARK  Name = 75614571
REMARK  5 active torsions:
REMARK  status: ('A' for Active; 'I' for Inactive)
REMARK    1  A    between atoms: O_2  and  C_14
REMARK    2  A    between atoms: O_2  and  C_16
REMARK    3  A    between atoms: O_9  and  C_30
REMARK    4  A    between atoms: C_13  and  C_15
REMARK    5  A    between atoms: C_17  and  C_25
REMARK                            x       y       z     vdW  Elec       q    Type
REMARK                         _______ _______ _______ _____ _____    ______ ____
ROOT
ATOM      1  O   UNL     1     103.148 130.257 141.995  0.00  0.00    +0.000 OA
ATOM      2  O   UNL     1     102.755 129.022 139.887  0.00  0.00    +0.000 OA
ATOM      3  C   UNL     1     104.516 128.516 142.296  0.00  0.00    +0.000 A 
ATOM      4  C   UNL     1     102.618 130.553 141.437  0.00  0.00    +0.000 C 
ATOM      5  C   UNL     1     102.487 130.141 140.734  0.00  0.00    +0.000 C 
ATOM      6  C   UNL     1     103.548 129.550 141.851  0.00  0.00    +0.000 A 
ATOM      7  C   UNL     1     103.416 129.138 141.148  0.00  0.00    +0.000 A 
ATOM      8  C   UNL     1     104.098 129.253 142.441  0.00  0.00    +0.000 A 
ATOM      9  C   UNL     1     102.886 129.434 140.589  0.00  0.00    +0.000 C 
ATOM     10  C   UNL     1     104.380 128.088 141.564  0.00  0.00    +0.000 A 
ATOM     11  C   UNL     1     103.827 128.401 140.987  0.00  0.00    +0.000 A 
ENDROOT
BRANCH   4  12
ATOM     12  C   UNL     1     102.219 131.260 141.581  0.00  0.00    +0.000 A 
ATOM     13  C   UNL     1     102.582 131.981 141.412  0.00  0.00    +0.000 A 
ATOM     14  C   UNL     1     101.455 131.247 141.893  0.00  0.00    +0.000 A 
ATOM     15  C   UNL     1     102.183 132.689 141.556  0.00  0.00    +0.000 A 
ATOM     16  C   UNL     1     101.055 131.953 142.037  0.00  0.00    +0.000 A 
ATOM     17  C   UNL     1     101.419 132.674 141.869  0.00  0.00    +0.000 A 
BRANCH  17  18
ATOM     18  O   UNL     1     101.020 133.382 142.013  0.00  0.00    +0.000 OA
ATOM     19  C   UNL     1     101.212 134.060 141.585  0.00  0.00    +0.000 C 
ENDBRANCH  17  18
ENDBRANCH   4  12
BRANCH   3  20
ATOM     20  O   UNL     1     105.046 128.223 142.856  0.00  0.00    +0.000 OA
BRANCH  20  29
ATOM     21  O   UNL     1     106.214 128.843 142.312  0.00  0.00    +0.000 OA
ATOM     22  O   UNL     1     107.558 126.863 142.943  0.00  0.00    +0.000 OA
ATOM     23  O   UNL     1     108.276 128.142 142.190  0.00  0.00    +0.000 OA
ATOM     24  O   UNL     1     105.943 126.903 143.276  0.00  0.00    +0.000 OA
ATOM     25  C   UNL     1     107.110 127.523 142.733  0.00  0.00    +0.000 C 
ATOM     26  C   UNL     1     107.469 128.162 142.356  0.00  0.00    +0.000 C 
ATOM     27  C   UNL     1     106.302 127.543 142.900  0.00  0.00    +0.000 C 
ATOM     28  C   UNL     1     107.021 128.822 142.146  0.00  0.00    +0.000 C 
ATOM     29  C   UNL     1     105.854 128.203 142.690  0.00  0.00    +0.000 C 
BRANCH  28  31
ATOM     30  O   UNL     1     107.183 129.644 140.988  0.00  0.00    +0.000 OA
ATOM     31  C   UNL     1     107.380 129.462 141.769  0.00  0.00    +0.000 C 
ENDBRANCH  28  31
ENDBRANCH  20  29
ENDBRANCH   3  20
TORSDOF 5
ENDMDL
MODEL 4
REMARK VINA RESULT:      -8.7      7.942      9.885
REMARK  Name = 75614571
REMARK  5 active torsions:
REMARK  status: ('A' for Active; 'I' for Inactive)
REMARK    1  A    between atoms: O_2  and  C_14
REMARK    2  A    between atoms: O_2  and  C_16
REMARK    3  A    between atoms: O_9  and  C_30
REMARK    4  A    between atoms: C_13  and  C_15
REMARK    5  A    between atoms: C_17  and  C_25
REMARK                            x       y       z     vdW  Elec       q    Type
REMARK                         _______ _______ _______ _____ _____    ______ ____
ROOT
ATOM      1  O   UNL     1     112.240 129.147 136.935  0.00  0.00    +0.000 OA
ATOM      2  O   UNL     1     113.927 129.305 135.130  0.00  0.00    +0.000 OA
ATOM      3  C   UNL     1     113.146 127.109 137.060  0.00  0.00    +0.000 A 
ATOM      4  C   UNL     1     112.314 129.844 136.499  0.00  0.00    +0.000 C 
ATOM      5  C   UNL     1     112.877 129.896 135.898  0.00  0.00    +0.000 C 
ATOM      6  C   UNL     1     112.727 128.503 136.769  0.00  0.00    +0.000 A 
ATOM      7  C   UNL     1     113.290 128.556 136.167  0.00  0.00    +0.000 A 
ATOM      8  C   UNL     1     112.640 127.783 137.229  0.00  0.00    +0.000 A 
ATOM      9  C   UNL     1     113.365 129.253 135.731  0.00  0.00    +0.000 C 
ATOM     10  C   UNL     1     113.731 127.163 136.435  0.00  0.00    +0.000 A 
ATOM     11  C   UNL     1     113.804 127.891 135.985  0.00  0.00    +0.000 A 
ENDROOT
BRANCH   4  12
ATOM     12  C   UNL     1     111.827 130.489 136.665  0.00  0.00    +0.000 A 
ATOM     13  C   UNL     1     111.070 130.528 136.338  0.00  0.00    +0.000 A 
ATOM     14  C   UNL     1     112.095 131.094 137.157  0.00  0.00    +0.000 A 
ATOM     15  C   UNL     1     110.582 131.173 136.504  0.00  0.00    +0.000 A 
ATOM     16  C   UNL     1     111.609 131.738 137.323  0.00  0.00    +0.000 A 
ATOM     17  C   UNL     1     110.852 131.778 136.997  0.00  0.00    +0.000 A 
BRANCH  17  18
ATOM     18  O   UNL     1     110.364 132.422 137.163  0.00  0.00    +0.000 OA
ATOM     19  C   UNL     1     110.509 133.152 136.808  0.00  0.00    +0.000 C 
ENDBRANCH  17  18
ENDBRANCH   4  12
BRANCH   3  20
ATOM     20  O   UNL     1     113.069 126.413 137.498  0.00  0.00    +0.000 OA
BRANCH  20  29
ATOM     21  O   UNL     1     112.028 125.813 136.724  0.00  0.00    +0.000 OA
ATOM     22  O   UNL     1     113.114 123.603 136.979  0.00  0.00    +0.000 OA
ATOM     23  O   UNL     1     111.713 123.740 136.120  0.00  0.00    +0.000 OA
ATOM     24  O   UNL     1     113.792 124.940 137.668  0.00  0.00    +0.000 OA
ATOM     25  C   UNL     1     112.752 124.340 136.894  0.00  0.00    +0.000 C 
ATOM     26  C   UNL     1     112.052 124.407 136.464  0.00  0.00    +0.000 C 
ATOM     27  C   UNL     1     113.092 125.008 137.238  0.00  0.00    +0.000 C 
ATOM     28  C   UNL     1     111.690 125.144 136.379  0.00  0.00    +0.000 C 
ATOM     29  C   UNL     1     112.730 125.744 137.153  0.00  0.00    +0.000 C 
BRANCH  28  31
ATOM     30  O   UNL     1     110.341 125.606 136.279  0.00  0.00    +0.000 OA
ATOM     31  C   UNL     1     110.989 125.213 135.950  0.00  0.00    +0.000 C 
ENDBRANCH  28  31
ENDBRANCH  20  29
ENDBRANCH   3  20
TORSDOF 5
ENDMDL
MODEL 5
REMARK VINA RESULT:      -8.7      7.064      8.207
REMARK  Name = 75614571
REMARK  5 active torsions:
REMARK  status: ('A' for Active; 'I' for Inactive)
REMARK    1  A    between atoms: O_2  and  C_14
REMARK    2  A    between atoms: O_2  and  C_16
REMARK    3  A    between atoms: O_9  and  C_30
REMARK    4  A    between atoms: C_13  and  C_15
REMARK    5  A    between atoms: C_17  and  C_25
REMARK                            x       y       z     vdW  Elec       q    Type
REMARK                         _______ _______ _______ _____ _____    ______ ____
ROOT
ATOM      1  O   UNL     1     110.513 127.299 136.011  0.00  0.00    +0.000 OA
ATOM      2  O   UNL     1     112.418 128.514 134.999  0.00  0.00    +0.000 OA
ATOM      3  C   UNL     1     109.504 129.206 135.432  0.00  0.00    +0.000 A 
ATOM      4  C   UNL     1     111.258 126.945 135.978  0.00  0.00    +0.000 C 
ATOM      5  C   UNL     1     111.892 127.350 135.641  0.00  0.00    +0.000 C 
ATOM      6  C   UNL     1     110.403 128.058 135.707  0.00  0.00    +0.000 A 
ATOM      7  C   UNL     1     111.039 128.463 135.370  0.00  0.00    +0.000 A 
ATOM      8  C   UNL     1     109.623 128.416 135.747  0.00  0.00    +0.000 A 
ATOM      9  C   UNL     1     111.783 128.109 135.336  0.00  0.00    +0.000 C 
ATOM     10  C   UNL     1     110.164 129.628 135.081  0.00  0.00    +0.000 A 
ATOM     11  C   UNL     1     110.937 129.254 135.050  0.00  0.00    +0.000 A 
ENDROOT
BRANCH   4  12
ATOM     12  C   UNL     1     111.367 126.186 136.282  0.00  0.00    +0.000 A 
ATOM     13  C   UNL     1     111.688 126.085 137.035  0.00  0.00    +0.000 A 
ATOM     14  C   UNL     1     111.157 125.527 135.832  0.00  0.00    +0.000 A 
ATOM     15  C   UNL     1     111.798 125.326 137.339  0.00  0.00    +0.000 A 
ATOM     16  C   UNL     1     111.266 124.768 136.135  0.00  0.00    +0.000 A 
ATOM     17  C   UNL     1     111.587 124.668 136.889  0.00  0.00    +0.000 A 
BRANCH  17  18
ATOM     18  O   UNL     1     111.696 123.908 137.193  0.00  0.00    +0.000 OA
ATOM     19  C   UNL     1     112.352 123.463 136.965  0.00  0.00    +0.000 C 
ENDBRANCH  17  18
ENDBRANCH   4  12
BRANCH   3  20
ATOM     20  O   UNL     1     108.758 129.558 135.466  0.00  0.00    +0.000 OA
BRANCH  20  29
ATOM     21  O   UNL     1     108.875 130.100 136.783  0.00  0.00    +0.000 OA
ATOM     22  O   UNL     1     107.656 132.128 136.056  0.00  0.00    +0.000 OA
ATOM     23  O   UNL     1     108.179 131.994 137.614  0.00  0.00    +0.000 OA
ATOM     24  O   UNL     1     107.945 130.910 134.981  0.00  0.00    +0.000 OA
ATOM     25  C   UNL     1     108.062 131.452 136.298  0.00  0.00    +0.000 C 
ATOM     26  C   UNL     1     108.324 131.386 137.077  0.00  0.00    +0.000 C 
ATOM     27  C   UNL     1     108.207 130.843 135.760  0.00  0.00    +0.000 C 
ATOM     28  C   UNL     1     108.730 130.710 137.320  0.00  0.00    +0.000 C 
ATOM     29  C   UNL     1     108.613 130.167 136.003  0.00  0.00    +0.000 C 
BRANCH  28  31
ATOM     30  O   UNL     1     108.745 130.006 138.563  0.00  0.00    +0.000 OA
ATOM     31  C   UNL     1     108.992 130.642 138.099  0.00  0.00    +0.000 C 
ENDBRANCH  28  31
ENDBRANCH  20  29
ENDBRANCH   3  20
TORSDOF 5
ENDMDL
MODEL 6
REMARK VINA RESULT:      -8.6      7.242      8.330
REMARK  Name = 75614571
REMARK  5 active torsions:
REMARK  status: ('A' for Active; 'I' for Inactive)
REMARK    1  A    between atoms: O_2  and  C_14
REMARK    2  A    between atoms: O_2  and  C_16
REMARK    3  A    between atoms: O_9  and  C_30
REMARK    4  A    between atoms: C_13  and  C_15
REMARK    5  A    between atoms: C_17  and  C_25
REMARK                            x       y       z     vdW  Elec       q    Type
REMARK                         _______ _______ _______ _____ _____    ______ ____
ROOT
ATOM      1  O   UNL     1     112.139 126.751 137.767  0.00  0.00    +0.000 OA
ATOM      2  O   UNL     1     114.107 125.293 138.129  0.00  0.00    +0.000 OA
ATOM      3  C   UNL     1     113.000 127.695 139.600  0.00  0.00    +0.000 A 
ATOM      4  C   UNL     1     112.289 126.125 137.251  0.00  0.00    +0.000 C 
ATOM      5  C   UNL     1     112.945 125.640 137.372  0.00  0.00    +0.000 C 
ATOM      6  C   UNL     1     112.644 126.891 138.404  0.00  0.00    +0.000 A 
ATOM      7  C   UNL     1     113.300 126.404 138.524  0.00  0.00    +0.000 A 
ATOM      8  C   UNL     1     112.476 127.545 138.935  0.00  0.00    +0.000 A 
ATOM      9  C   UNL     1     113.451 125.779 138.008  0.00  0.00    +0.000 C 
ATOM     10  C   UNL     1     113.682 127.190 139.726  0.00  0.00    +0.000 A 
ATOM     11  C   UNL     1     113.833 126.540 139.185  0.00  0.00    +0.000 A 
ENDROOT
BRANCH   4  12
ATOM     12  C   UNL     1     111.784 125.986 136.614  0.00  0.00    +0.000 A 
ATOM     13  C   UNL     1     111.277 125.335 136.624  0.00  0.00    +0.000 A 
ATOM     14  C   UNL     1     111.786 126.497 135.966  0.00  0.00    +0.000 A 
ATOM     15  C   UNL     1     110.772 125.195 135.987  0.00  0.00    +0.000 A 
ATOM     16  C   UNL     1     111.281 126.357 135.329  0.00  0.00    +0.000 A 
ATOM     17  C   UNL     1     110.774 125.707 135.339  0.00  0.00    +0.000 A 
BRANCH  17  18
ATOM     18  O   UNL     1     110.269 125.567 134.702  0.00  0.00    +0.000 OA
ATOM     19  C   UNL     1     109.479 125.802 134.742  0.00  0.00    +0.000 C 
ENDBRANCH  17  18
ENDBRANCH   4  12
BRANCH   3  20
ATOM     20  O   UNL     1     112.846 128.322 140.115  0.00  0.00    +0.000 OA
BRANCH  20  29
ATOM     21  O   UNL     1     113.401 129.359 139.304  0.00  0.00    +0.000 OA
ATOM     22  O   UNL     1     114.290 130.468 141.330  0.00  0.00    +0.000 OA
ATOM     23  O   UNL     1     114.548 131.135 139.844  0.00  0.00    +0.000 OA
ATOM     24  O   UNL     1     113.439 129.061 141.466  0.00  0.00    +0.000 OA
ATOM     25  C   UNL     1     113.994 130.099 140.655  0.00  0.00    +0.000 C 
ATOM     26  C   UNL     1     114.123 130.432 139.912  0.00  0.00    +0.000 C 
ATOM     27  C   UNL     1     113.568 129.395 140.723  0.00  0.00    +0.000 C 
ATOM     28  C   UNL     1     113.827 130.062 139.237  0.00  0.00    +0.000 C 
ATOM     29  C   UNL     1     113.272 129.025 140.048  0.00  0.00    +0.000 C 
BRANCH  28  31
ATOM     30  O   UNL     1     113.315 130.573 138.004  0.00  0.00    +0.000 OA
ATOM     31  C   UNL     1     113.956 130.395 138.493  0.00  0.00    +0.000 C 
ENDBRANCH  28  31
ENDBRANCH  20  29
ENDBRANCH   3  20
TORSDOF 5
ENDMDL
MODEL 7
REMARK VINA RESULT:      -8.6      3.910      5.417
REMARK  Name = 75614571
REMARK  5 active torsions:
REMARK  status: ('A' for Active; 'I' for Inactive)
REMARK    1  A    between atoms: O_2  and  C_14
REMARK    2  A    between atoms: O_2  and  C_16
REMARK    3  A    between atoms: O_9  and  C_30
REMARK    4  A    between atoms: C_13  and  C_15
REMARK    5  A    between atoms: C_17  and  C_25
REMARK                            x       y       z     vdW  Elec       q    Type
REMARK                         _______ _______ _______ _____ _____    ______ ____
ROOT
ATOM      1  O   UNL     1     104.941 127.769 142.424  0.00  0.00    +0.000 OA
ATOM      2  O   UNL     1     107.151 128.831 142.083  0.00  0.00    +0.000 OA
ATOM      3  C   UNL     1     106.285 126.056 142.924  0.00  0.00    +0.000 A 
ATOM      4  C   UNL     1     104.988 128.558 142.187  0.00  0.00    +0.000 C 
ATOM      5  C   UNL     1     105.725 128.912 142.073  0.00  0.00    +0.000 C 
ATOM      6  C   UNL     1     105.631 127.334 142.547  0.00  0.00    +0.000 A 
ATOM      7  C   UNL     1     106.368 127.688 142.434  0.00  0.00    +0.000 A 
ATOM      8  C   UNL     1     105.569 126.513 142.794  0.00  0.00    +0.000 A 
ATOM      9  C   UNL     1     106.415 128.477 142.197  0.00  0.00    +0.000 C 
ATOM     10  C   UNL     1     107.051 126.424 142.806  0.00  0.00    +0.000 A 
ATOM     11  C   UNL     1     107.093 127.245 142.559  0.00  0.00    +0.000 A 
ENDROOT
BRANCH   4  12
ATOM     12  C   UNL     1     104.298 128.993 142.063  0.00  0.00    +0.000 A 
ATOM     13  C   UNL     1     103.891 128.927 141.348  0.00  0.00    +0.000 A 
ATOM     14  C   UNL     1     104.015 129.495 142.654  0.00  0.00    +0.000 A 
ATOM     15  C   UNL     1     103.201 129.363 141.225  0.00  0.00    +0.000 A 
ATOM     16  C   UNL     1     103.326 129.930 142.531  0.00  0.00    +0.000 A 
ATOM     17  C   UNL     1     102.919 129.864 141.816  0.00  0.00    +0.000 A 
BRANCH  17  18
ATOM     18  O   UNL     1     102.229 130.299 141.693  0.00  0.00    +0.000 OA
ATOM     19  C   UNL     1     102.261 131.020 141.293  0.00  0.00    +0.000 C 
ENDBRANCH  17  18
ENDBRANCH   4  12
BRANCH   3  20
ATOM     20  O   UNL     1     106.235 125.267 143.161  0.00  0.00    +0.000 OA
BRANCH  20  29
ATOM     21  O   UNL     1     106.347 125.487 144.569  0.00  0.00    +0.000 OA
ATOM     22  O   UNL     1     104.671 123.713 144.980  0.00  0.00    +0.000 OA
ATOM     23  O   UNL     1     105.341 124.525 146.249  0.00  0.00    +0.000 OA
ATOM     24  O   UNL     1     105.118 124.084 143.436  0.00  0.00    +0.000 OA
ATOM     25  C   UNL     1     105.229 124.304 144.843  0.00  0.00    +0.000 C 
ATOM     26  C   UNL     1     105.564 124.710 145.478  0.00  0.00    +0.000 C 
ATOM     27  C   UNL     1     105.453 124.490 144.070  0.00  0.00    +0.000 C 
ATOM     28  C   UNL     1     106.123 125.302 145.341  0.00  0.00    +0.000 C 
ATOM     29  C   UNL     1     106.011 125.081 143.933  0.00  0.00    +0.000 C 
BRANCH  28  31
ATOM     30  O   UNL     1     107.273 125.672 146.103  0.00  0.00    +0.000 OA
ATOM     31  C   UNL     1     106.458 125.708 145.975  0.00  0.00    +0.000 C 
ENDBRANCH  28  31
ENDBRANCH  20  29
ENDBRANCH   3  20
TORSDOF 5
ENDMDL
MODEL 8
REMARK VINA RESULT:      -8.6      3.754      7.224
REMARK  Name = 75614571
REMARK  5 active torsions:
REMARK  status: ('A' for Active; 'I' for Inactive)
REMARK    1  A    between atoms: O_2  and  C_14
REMARK    2  A    between atoms: O_2  and  C_16
REMARK    3  A    between atoms: O_9  and  C_30
REMARK    4  A    between atoms: C_13  and  C_15
REMARK    5  A    between atoms: C_17  and  C_25
REMARK                            x       y       z     vdW  Elec       q    Type
REMARK                         _______ _______ _______ _____ _____    ______ ____
ROOT
ATOM      1  O   UNL     1     106.538 125.909 146.036  0.00  0.00    +0.000 OA
ATOM      2  O   UNL     1     106.532 128.368 146.321  0.00  0.00    +0.000 OA
ATOM      3  C   UNL     1     105.730 126.536 144.049  0.00  0.00    +0.000 A 
ATOM      4  C   UNL     1     106.799 126.242 146.744  0.00  0.00    +0.000 C 
ATOM      5  C   UNL     1     106.797 127.062 146.838  0.00  0.00    +0.000 C 
ATOM      6  C   UNL     1     106.274 126.394 145.423  0.00  0.00    +0.000 A 
ATOM      7  C   UNL     1     106.273 127.214 145.519  0.00  0.00    +0.000 A 
ATOM      8  C   UNL     1     106.005 126.035 144.691  0.00  0.00    +0.000 A 
ATOM      9  C   UNL     1     106.534 127.548 146.226  0.00  0.00    +0.000 C 
ATOM     10  C   UNL     1     105.728 127.389 144.148  0.00  0.00    +0.000 A 
ATOM     11  C   UNL     1     106.001 127.730 144.887  0.00  0.00    +0.000 A 
ENDROOT
BRANCH   4  12
ATOM     12  C   UNL     1     107.062 125.757 147.357  0.00  0.00    +0.000 A 
ATOM     13  C   UNL     1     107.856 125.535 147.395  0.00  0.00    +0.000 A 
ATOM     14  C   UNL     1     106.531 125.493 147.931  0.00  0.00    +0.000 A 
ATOM     15  C   UNL     1     108.119 125.049 148.008  0.00  0.00    +0.000 A 
ATOM     16  C   UNL     1     106.794 125.008 148.544  0.00  0.00    +0.000 A 
ATOM     17  C   UNL     1     107.587 124.786 148.582  0.00  0.00    +0.000 A 
BRANCH  17  18
ATOM     18  O   UNL     1     107.850 124.300 149.195  0.00  0.00    +0.000 OA
ATOM     19  C   UNL     1     107.313 123.832 149.611  0.00  0.00    +0.000 C 
ENDBRANCH  17  18
ENDBRANCH   4  12
BRANCH   3  20
ATOM     20  O   UNL     1     105.469 126.199 143.342  0.00  0.00    +0.000 OA
BRANCH  20  29
ATOM     21  O   UNL     1     106.600 126.499 142.521  0.00  0.00    +0.000 OA
ATOM     22  O   UNL     1     106.486 124.232 141.536  0.00  0.00    +0.000 OA
ATOM     23  O   UNL     1     107.653 125.288 141.044  0.00  0.00    +0.000 OA
ATOM     24  O   UNL     1     105.393 124.688 142.685  0.00  0.00    +0.000 OA
ATOM     25  C   UNL     1     106.524 124.988 141.864  0.00  0.00    +0.000 C 
ATOM     26  C   UNL     1     107.108 125.515 141.618  0.00  0.00    +0.000 C 
ATOM     27  C   UNL     1     105.977 125.215 142.439  0.00  0.00    +0.000 C 
ATOM     28  C   UNL     1     107.145 126.271 141.947  0.00  0.00    +0.000 C 
ATOM     29  C   UNL     1     106.015 125.971 142.768  0.00  0.00    +0.000 C 
BRANCH  28  31
ATOM     30  O   UNL     1     107.516 127.507 141.333  0.00  0.00    +0.000 OA
ATOM     31  C   UNL     1     107.729 126.799 141.701  0.00  0.00    +0.000 C 
ENDBRANCH  28  31
ENDBRANCH  20  29
ENDBRANCH   3  20
TORSDOF 5
ENDMDL
MODEL 9
REMARK VINA RESULT:      -8.5      8.001      9.321
REMARK  Name = 75614571
REMARK  5 active torsions:
REMARK  status: ('A' for Active; 'I' for Inactive)
REMARK    1  A    between atoms: O_2  and  C_14
REMARK    2  A    between atoms: O_2  and  C_16
REMARK    3  A    between atoms: O_9  and  C_30
REMARK    4  A    between atoms: C_13  and  C_15
REMARK    5  A    between atoms: C_17  and  C_25
REMARK                            x       y       z     vdW  Elec       q    Type
REMARK                         _______ _______ _______ _____ _____    ______ ____
ROOT
ATOM      1  O   UNL     1     113.001 127.587 137.299  0.00  0.00    +0.000 OA
ATOM      2  O   UNL     1     114.266 128.766 135.527  0.00  0.00    +0.000 OA
ATOM      3  C   UNL     1     112.689 129.707 137.933  0.00  0.00    +0.000 A 
ATOM      4  C   UNL     1     113.378 127.156 136.705  0.00  0.00    +0.000 C 
ATOM      5  C   UNL     1     113.800 127.549 136.115  0.00  0.00    +0.000 C 
ATOM      6  C   UNL     1     113.044 128.411 137.302  0.00  0.00    +0.000 A 
ATOM      7  C   UNL     1     113.466 128.804 136.711  0.00  0.00    +0.000 A 
ATOM      8  C   UNL     1     112.647 128.849 137.925  0.00  0.00    +0.000 A 
ATOM      9  C   UNL     1     113.844 128.373 136.117  0.00  0.00    +0.000 C 
ATOM     10  C   UNL     1     113.128 130.116 137.318  0.00  0.00    +0.000 A 
ATOM     11  C   UNL     1     113.519 129.661 136.703  0.00  0.00    +0.000 A 
ENDROOT
BRANCH   4  12
ATOM     12  C   UNL     1     113.335 126.332 136.702  0.00  0.00    +0.000 A 
ATOM     13  C   UNL     1     113.967 125.885 136.986  0.00  0.00    +0.000 A 
ATOM     14  C   UNL     1     112.659 125.956 136.415  0.00  0.00    +0.000 A 
ATOM     15  C   UNL     1     113.923 125.061 136.983  0.00  0.00    +0.000 A 
ATOM     16  C   UNL     1     112.614 125.133 136.412  0.00  0.00    +0.000 A 
ATOM     17  C   UNL     1     113.246 124.685 136.696  0.00  0.00    +0.000 A 
BRANCH  17  18
ATOM     18  O   UNL     1     113.203 123.861 136.693  0.00  0.00    +0.000 OA
ATOM     19  C   UNL     1     112.496 123.484 136.890  0.00  0.00    +0.000 C 
ENDBRANCH  17  18
ENDBRANCH   4  12
BRANCH   3  20
ATOM     20  O   UNL     1     112.311 130.136 138.528  0.00  0.00    +0.000 OA
BRANCH  20  29
ATOM     21  O   UNL     1     113.421 130.294 139.413  0.00  0.00    +0.000 OA
ATOM     22  O   UNL     1     111.941 129.851 141.347  0.00  0.00    +0.000 OA
ATOM     23  O   UNL     1     113.543 130.157 141.588  0.00  0.00    +0.000 OA
ATOM     24  O   UNL     1     111.324 129.841 139.817  0.00  0.00    +0.000 OA
ATOM     25  C   UNL     1     112.434 129.999 140.703  0.00  0.00    +0.000 C 
ATOM     26  C   UNL     1     113.235 130.151 140.823  0.00  0.00    +0.000 C 
ATOM     27  C   UNL     1     112.125 129.993 139.937  0.00  0.00    +0.000 C 
ATOM     28  C   UNL     1     113.728 130.299 140.179  0.00  0.00    +0.000 C 
ATOM     29  C   UNL     1     112.618 130.141 139.293  0.00  0.00    +0.000 C 
BRANCH  28  31
ATOM     30  O   UNL     1     114.853 131.172 140.056  0.00  0.00    +0.000 OA
ATOM     31  C   UNL     1     114.530 130.452 140.299  0.00  0.00    +0.000 C 
ENDBRANCH  28  31
ENDBRANCH  20  29
ENDBRANCH   3  20
TORSDOF 5
ENDMDL
MODEL 10
REMARK VINA RESULT:      -8.5      6.974      7.904
REMARK  Name = 75614571
REMARK  5 active torsions:
REMARK  status: ('A' for Active; 'I' for Inactive)
REMARK    1  A    between atoms: O_2  and  C_14
REMARK    2  A    between atoms: O_2  and  C_16
REMARK    3  A    between atoms: O_9  and  C_30
REMARK    4  A    between atoms: C_13  and  C_15
REMARK    5  A    between atoms: C_17  and  C_25
REMARK                            x       y       z     vdW  Elec       q    Type
REMARK                         _______ _______ _______ _____ _____    ______ ____
ROOT
ATOM      1  O   UNL     1     110.332 127.941 136.018  0.00  0.00    +0.000 OA
ATOM      2  O   UNL     1     107.878 128.064 135.717  0.00  0.00    +0.000 OA
ATOM      3  C   UNL     1     110.038 130.155 136.071  0.00  0.00    +0.000 A 
ATOM      4  C   UNL     1     109.892 127.249 135.935  0.00  0.00    +0.000 C 
ATOM      5  C   UNL     1     109.074 127.290 135.835  0.00  0.00    +0.000 C 
ATOM      6  C   UNL     1     109.955 128.675 136.001  0.00  0.00    +0.000 A 
ATOM      7  C   UNL     1     109.137 128.715 135.900  0.00  0.00    +0.000 A 
ATOM      8  C   UNL     1     110.425 129.389 136.088  0.00  0.00    +0.000 A 
ATOM      9  C   UNL     1     108.696 128.023 135.817  0.00  0.00    +0.000 C 
ATOM     10  C   UNL     1     109.187 130.198 135.967  0.00  0.00    +0.000 A 
ATOM     11  C   UNL     1     108.733 129.474 135.881  0.00  0.00    +0.000 A 
ENDROOT
BRANCH   4  12
ATOM     12  C   UNL     1     110.269 126.515 135.952  0.00  0.00    +0.000 A 
ATOM     13  C   UNL     1     110.462 126.167 136.675  0.00  0.00    +0.000 A 
ATOM     14  C   UNL     1     110.452 126.129 135.247  0.00  0.00    +0.000 A 
ATOM     15  C   UNL     1     110.839 125.434 136.693  0.00  0.00    +0.000 A 
ATOM     16  C   UNL     1     110.829 125.395 135.263  0.00  0.00    +0.000 A 
ATOM     17  C   UNL     1     111.022 125.048 135.986  0.00  0.00    +0.000 A 
BRANCH  17  18
ATOM     18  O   UNL     1     111.399 124.314 136.003  0.00  0.00    +0.000 OA
ATOM     19  C   UNL     1     112.034 124.188 136.515  0.00  0.00    +0.000 C 
ENDBRANCH  17  18
ENDBRANCH   4  12
BRANCH   3  20
ATOM     20  O   UNL     1     110.481 130.846 136.154  0.00  0.00    +0.000 OA
BRANCH  20  29
ATOM     21  O   UNL     1     110.609 130.849 137.578  0.00  0.00    +0.000 OA
ATOM     22  O   UNL     1     110.209 133.291 137.609  0.00  0.00    +0.000 OA
ATOM     23  O   UNL     1     110.470 132.479 139.021  0.00  0.00    +0.000 OA
ATOM     24  O   UNL     1     110.214 132.474 136.175  0.00  0.00    +0.000 OA
ATOM     25  C   UNL     1     110.342 132.477 137.599  0.00  0.00    +0.000 C 
ATOM     26  C   UNL     1     110.473 132.071 138.305  0.00  0.00    +0.000 C 
ATOM     27  C   UNL     1     110.345 132.069 136.881  0.00  0.00    +0.000 C 
ATOM     28  C   UNL     1     110.606 131.257 138.294  0.00  0.00    +0.000 C 
ATOM     29  C   UNL     1     110.478 131.255 136.871  0.00  0.00    +0.000 C 
BRANCH  28  31
ATOM     30  O   UNL     1     111.406 130.374 139.083  0.00  0.00    +0.000 OA
ATOM     31  C   UNL     1     110.737 130.851 139.000  0.00  0.00    +0.000 C 
ENDBRANCH  28  31
ENDBRANCH  20  29
ENDBRANCH   3  20
TORSDOF 5
ENDMDL
