MODEL 1
REMARK VINA RESULT:      -9.4      0.000      0.000
REMARK  Name = 44260008
REMARK  5 active torsions:
REMARK  status: ('A' for Active; 'I' for Inactive)
REMARK    1  A    between atoms: O_2  and  C_17
REMARK    2  A    between atoms: O_2  and  C_19
REMARK    3  A    between atoms: O_8  and  C_26
REMARK    4  A    between atoms: O_11  and  C_31
REMARK    5  A    between atoms: C_20  and  C_24
REMARK                            x       y       z     vdW  Elec       q    Type
REMARK                         _______ _______ _______ _____ _____    ______ ____
ROOT
ATOM      1  O   UNL     1     103.972 124.369 148.089  0.00  0.00    +0.000 OA
ATOM      2  O   UNL     1     104.215 124.219 145.631  0.00  0.00    +0.000 OA
ATOM      3  O   UNL     1     102.818 123.889 145.485  0.00  0.00    +0.000 OA
ATOM      4  O   UNL     1     101.145 123.706 147.871  0.00  0.00    +0.000 OA
ATOM      5  C   UNL     1     104.787 124.457 146.918  0.00  0.00    +0.000 A 
ATOM      6  C   UNL     1     104.706 124.507 147.738  0.00  0.00    +0.000 A 
ATOM      7  C   UNL     1     104.134 124.269 146.450  0.00  0.00    +0.000 A 
ATOM      8  C   UNL     1     103.400 124.131 146.802  0.00  0.00    +0.000 A 
ATOM      9  C   UNL     1     103.320 124.181 147.621  0.00  0.00    +0.000 A 
ATOM     10  C   UNL     1     102.728 123.936 146.304  0.00  0.00    +0.000 A 
ATOM     11  C   UNL     1     102.562 124.040 147.999  0.00  0.00    +0.000 A 
ATOM     12  C   UNL     1     101.877 123.843 147.517  0.00  0.00    +0.000 A 
ATOM     13  C   UNL     1     101.962 123.791 146.663  0.00  0.00    +0.000 A 
ENDROOT
BRANCH   6  15
ATOM     14  O   UNL     1     107.317 125.259 149.610  0.00  0.00    +0.000 OA
ATOM     15  C   UNL     1     105.359 124.695 148.206  0.00  0.00    +0.000 A 
ATOM     16  C   UNL     1     105.402 125.431 148.576  0.00  0.00    +0.000 A 
ATOM     17  C   UNL     1     105.968 124.147 148.304  0.00  0.00    +0.000 A 
ATOM     18  C   UNL     1     106.056 125.619 149.045  0.00  0.00    +0.000 A 
ATOM     19  C   UNL     1     106.621 124.335 148.771  0.00  0.00    +0.000 A 
ATOM     20  C   UNL     1     106.665 125.071 149.142  0.00  0.00    +0.000 A 
BRANCH  18  21
ATOM     21  O   UNL     1     106.099 126.355 149.415  0.00  0.00    +0.000 OA
ATOM     22  C   UNL     1     105.409 126.779 149.571  0.00  0.00    +0.000 C 
ENDBRANCH  18  21
ENDBRANCH   6  15
BRANCH  11  23
ATOM     23  O   UNL     1     102.489 124.091 148.819  0.00  0.00    +0.000 OA
ATOM     24  C   UNL     1     102.146 123.473 149.244  0.00  0.00    +0.000 C 
ENDBRANCH  11  23
BRANCH   5  25
ATOM     25  O   UNL     1     105.521 124.595 146.567  0.00  0.00    +0.000 OA
BRANCH  25  34
ATOM     26  O   UNL     1     105.205 125.925 146.149  0.00  0.00    +0.000 OA
ATOM     27  O   UNL     1     106.694 125.663 144.190  0.00  0.00    +0.000 OA
ATOM     28  O   UNL     1     105.882 127.080 144.425  0.00  0.00    +0.000 OA
ATOM     29  O   UNL     1     106.514 124.421 145.261  0.00  0.00    +0.000 OA
ATOM     30  C   UNL     1     106.198 125.750 144.843  0.00  0.00    +0.000 C 
ATOM     31  C   UNL     1     105.791 126.458 144.961  0.00  0.00    +0.000 C 
ATOM     32  C   UNL     1     106.107 125.130 145.379  0.00  0.00    +0.000 C 
ATOM     33  C   UNL     1     105.295 126.545 145.614  0.00  0.00    +0.000 C 
ATOM     34  C   UNL     1     105.611 125.217 146.032  0.00  0.00    +0.000 C 
ATOM     35  C   UNL     1     104.889 127.254 145.731  0.00  0.00    +0.000 C 
ENDBRANCH  25  34
ENDBRANCH   5  25
TORSDOF 5
ENDMDL
MODEL 2
REMARK VINA RESULT:      -9.4      1.557      2.835
REMARK  Name = 44260008
REMARK  5 active torsions:
REMARK  status: ('A' for Active; 'I' for Inactive)
REMARK    1  A    between atoms: O_2  and  C_17
REMARK    2  A    between atoms: O_2  and  C_19
REMARK    3  A    between atoms: O_8  and  C_26
REMARK    4  A    between atoms: O_11  and  C_31
REMARK    5  A    between atoms: C_20  and  C_24
REMARK                            x       y       z     vdW  Elec       q    Type
REMARK                         _______ _______ _______ _____ _____    ______ ____
ROOT
ATOM      1  O   UNL     1     103.759 125.688 147.458  0.00  0.00    +0.000 OA
ATOM      2  O   UNL     1     105.732 124.553 146.485  0.00  0.00    +0.000 OA
ATOM      3  O   UNL     1     104.906 123.479 145.991  0.00  0.00    +0.000 OA
ATOM      4  O   UNL     1     102.029 123.554 146.490  0.00  0.00    +0.000 OA
ATOM      5  C   UNL     1     105.166 125.647 147.211  0.00  0.00    +0.000 A 
ATOM      6  C   UNL     1     104.508 126.024 147.535  0.00  0.00    +0.000 A 
ATOM      7  C   UNL     1     105.074 124.931 146.809  0.00  0.00    +0.000 A 
ATOM      8  C   UNL     1     104.325 124.595 146.732  0.00  0.00    +0.000 A 
ATOM      9  C   UNL     1     103.668 124.973 147.057  0.00  0.00    +0.000 A 
ATOM     10  C   UNL     1     104.242 123.850 146.312  0.00  0.00    +0.000 A 
ATOM     11  C   UNL     1     102.882 124.633 146.983  0.00  0.00    +0.000 A 
ATOM     12  C   UNL     1     102.780 123.888 146.566  0.00  0.00    +0.000 A 
ATOM     13  C   UNL     1     103.465 123.495 146.228  0.00  0.00    +0.000 A 
ENDROOT
BRANCH   6  15
ATOM     14  O   UNL     1     104.876 128.884 149.140  0.00  0.00    +0.000 OA
ATOM     15  C   UNL     1     104.600 126.740 147.937  0.00  0.00    +0.000 A 
ATOM     16  C   UNL     1     104.713 127.438 147.513  0.00  0.00    +0.000 A 
ATOM     17  C   UNL     1     104.580 126.755 148.761  0.00  0.00    +0.000 A 
ATOM     18  C   UNL     1     104.805 128.154 147.915  0.00  0.00    +0.000 A 
ATOM     19  C   UNL     1     104.672 127.470 149.162  0.00  0.00    +0.000 A 
ATOM     20  C   UNL     1     104.784 128.170 148.739  0.00  0.00    +0.000 A 
BRANCH  18  21
ATOM     21  O   UNL     1     104.917 128.853 147.491  0.00  0.00    +0.000 OA
ATOM     22  C   UNL     1     104.474 128.998 146.810  0.00  0.00    +0.000 C 
ENDBRANCH  18  21
ENDBRANCH   6  15
BRANCH  11  23
ATOM     23  O   UNL     1     102.230 125.018 147.310  0.00  0.00    +0.000 OA
ATOM     24  C   UNL     1     101.652 124.585 147.710  0.00  0.00    +0.000 C 
ENDBRANCH  11  23
BRANCH   5  25
ATOM     25  O   UNL     1     105.915 125.983 147.288  0.00  0.00    +0.000 OA
BRANCH  25  34
ATOM     26  O   UNL     1     106.332 125.088 148.321  0.00  0.00    +0.000 OA
ATOM     27  O   UNL     1     108.677 125.300 147.560  0.00  0.00    +0.000 OA
ATOM     28  O   UNL     1     108.312 124.334 148.847  0.00  0.00    +0.000 OA
ATOM     29  O   UNL     1     107.479 126.124 146.780  0.00  0.00    +0.000 OA
ATOM     30  C   UNL     1     107.895 125.229 147.814  0.00  0.00    +0.000 C 
ATOM     31  C   UNL     1     107.712 124.747 148.457  0.00  0.00    +0.000 C 
ATOM     32  C   UNL     1     107.296 125.641 147.424  0.00  0.00    +0.000 C 
ATOM     33  C   UNL     1     106.930 124.676 148.711  0.00  0.00    +0.000 C 
ATOM     34  C   UNL     1     106.514 125.570 147.678  0.00  0.00    +0.000 C 
ATOM     35  C   UNL     1     106.748 124.193 149.355  0.00  0.00    +0.000 C 
ENDBRANCH  25  34
ENDBRANCH   5  25
TORSDOF 5
ENDMDL
MODEL 3
REMARK VINA RESULT:      -9.3      1.274      3.559
REMARK  Name = 44260008
REMARK  5 active torsions:
REMARK  status: ('A' for Active; 'I' for Inactive)
REMARK    1  A    between atoms: O_2  and  C_17
REMARK    2  A    between atoms: O_2  and  C_19
REMARK    3  A    between atoms: O_8  and  C_26
REMARK    4  A    between atoms: O_11  and  C_31
REMARK    5  A    between atoms: C_20  and  C_24
REMARK                            x       y       z     vdW  Elec       q    Type
REMARK                         _______ _______ _______ _____ _____    ______ ____
ROOT
ATOM      1  O   UNL     1     105.674 124.440 147.688  0.00  0.00    +0.000 OA
ATOM      2  O   UNL     1     107.079 125.632 146.035  0.00  0.00    +0.000 OA
ATOM      3  O   UNL     1     108.183 125.676 146.962  0.00  0.00    +0.000 OA
ATOM      4  O   UNL     1     107.860 124.491 149.612  0.00  0.00    +0.000 OA
ATOM      5  C   UNL     1     105.837 125.021 146.392  0.00  0.00    +0.000 A 
ATOM      6  C   UNL     1     105.370 124.624 146.943  0.00  0.00    +0.000 A 
ATOM      7  C   UNL     1     106.611 125.235 146.586  0.00  0.00    +0.000 A 
ATOM      8  C   UNL     1     106.916 125.051 147.330  0.00  0.00    +0.000 A 
ATOM      9  C   UNL     1     106.447 124.653 147.881  0.00  0.00    +0.000 A 
ATOM     10  C   UNL     1     107.722 125.279 147.520  0.00  0.00    +0.000 A 
ATOM     11  C   UNL     1     106.753 124.457 148.659  0.00  0.00    +0.000 A 
ATOM     12  C   UNL     1     107.558 124.676 148.867  0.00  0.00    +0.000 A 
ATOM     13  C   UNL     1     108.045 125.090 148.293  0.00  0.00    +0.000 A 
ENDROOT
BRANCH   6  15
ATOM     14  O   UNL     1     102.277 123.770 146.169  0.00  0.00    +0.000 OA
ATOM     15  C   UNL     1     104.596 124.410 146.750  0.00  0.00    +0.000 A 
ATOM     16  C   UNL     1     103.961 124.840 147.054  0.00  0.00    +0.000 A 
ATOM     17  C   UNL     1     104.458 123.767 146.251  0.00  0.00    +0.000 A 
ATOM     18  C   UNL     1     103.188 124.626 146.861  0.00  0.00    +0.000 A 
ATOM     19  C   UNL     1     103.685 123.554 146.058  0.00  0.00    +0.000 A 
ATOM     20  C   UNL     1     103.050 123.983 146.362  0.00  0.00    +0.000 A 
BRANCH  18  21
ATOM     21  O   UNL     1     102.553 125.056 147.165  0.00  0.00    +0.000 OA
ATOM     22  C   UNL     1     102.557 125.295 147.955  0.00  0.00    +0.000 C 
ENDBRANCH  18  21
ENDBRANCH   6  15
BRANCH  11  23
ATOM     23  O   UNL     1     106.278 124.059 149.204  0.00  0.00    +0.000 OA
ATOM     24  C   UNL     1     106.574 123.406 149.612  0.00  0.00    +0.000 C 
ENDBRANCH  11  23
BRANCH   5  25
ATOM     25  O   UNL     1     105.533 125.205 145.648  0.00  0.00    +0.000 OA
BRANCH  25  34
ATOM     26  O   UNL     1     105.384 126.596 145.937  0.00  0.00    +0.000 OA
ATOM     27  O   UNL     1     105.703 127.128 143.541  0.00  0.00    +0.000 OA
ATOM     28  O   UNL     1     105.448 128.343 144.629  0.00  0.00    +0.000 OA
ATOM     29  O   UNL     1     105.746 125.559 144.051  0.00  0.00    +0.000 OA
ATOM     30  C   UNL     1     105.597 126.951 144.340  0.00  0.00    +0.000 C 
ATOM     31  C   UNL     1     105.469 127.558 144.884  0.00  0.00    +0.000 C 
ATOM     32  C   UNL     1     105.618 126.167 144.595  0.00  0.00    +0.000 C 
ATOM     33  C   UNL     1     105.363 127.380 145.683  0.00  0.00    +0.000 C 
ATOM     34  C   UNL     1     105.511 125.990 145.394  0.00  0.00    +0.000 C 
ATOM     35  C   UNL     1     105.235 127.988 146.226  0.00  0.00    +0.000 C 
ENDBRANCH  25  34
ENDBRANCH   5  25
TORSDOF 5
ENDMDL
MODEL 4
REMARK VINA RESULT:      -9.1      9.944     13.292
REMARK  Name = 44260008
REMARK  5 active torsions:
REMARK  status: ('A' for Active; 'I' for Inactive)
REMARK    1  A    between atoms: O_2  and  C_17
REMARK    2  A    between atoms: O_2  and  C_19
REMARK    3  A    between atoms: O_8  and  C_26
REMARK    4  A    between atoms: O_11  and  C_31
REMARK    5  A    between atoms: C_20  and  C_24
REMARK                            x       y       z     vdW  Elec       q    Type
REMARK                         _______ _______ _______ _____ _____    ______ ____
ROOT
ATOM      1  O   UNL     1     113.084 127.406 136.509  0.00  0.00    +0.000 OA
ATOM      2  O   UNL     1     111.822 128.295 138.443  0.00  0.00    +0.000 OA
ATOM      3  O   UNL     1     112.121 129.651 138.051  0.00  0.00    +0.000 OA
ATOM      4  O   UNL     1     113.728 130.116 135.657  0.00  0.00    +0.000 OA
ATOM      5  C   UNL     1     112.297 127.184 137.681  0.00  0.00    +0.000 A 
ATOM      6  C   UNL     1     112.718 126.888 137.036  0.00  0.00    +0.000 A 
ATOM      7  C   UNL     1     112.242 127.999 137.798  0.00  0.00    +0.000 A 
ATOM      8  C   UNL     1     112.608 128.517 137.271  0.00  0.00    +0.000 A 
ATOM      9  C   UNL     1     113.029 128.220 136.626  0.00  0.00    +0.000 A 
ATOM     10  C   UNL     1     112.544 129.363 137.403  0.00  0.00    +0.000 A 
ATOM     11  C   UNL     1     113.414 128.750 136.070  0.00  0.00    +0.000 A 
ATOM     12  C   UNL     1     113.361 129.600 136.186  0.00  0.00    +0.000 A 
ATOM     13  C   UNL     1     112.923 129.908 136.858  0.00  0.00    +0.000 A 
ENDROOT
BRANCH   6  15
ATOM     14  O   UNL     1     112.939 123.628 136.568  0.00  0.00    +0.000 OA
ATOM     15  C   UNL     1     112.773 126.072 136.919  0.00  0.00    +0.000 A 
ATOM     16  C   UNL     1     113.469 125.674 137.115  0.00  0.00    +0.000 A 
ATOM     17  C   UNL     1     112.133 125.656 136.607  0.00  0.00    +0.000 A 
ATOM     18  C   UNL     1     113.524 124.859 136.997  0.00  0.00    +0.000 A 
ATOM     19  C   UNL     1     112.188 124.842 136.490  0.00  0.00    +0.000 A 
ATOM     20  C   UNL     1     112.883 124.443 136.685  0.00  0.00    +0.000 A 
BRANCH  18  21
ATOM     21  O   UNL     1     114.219 124.461 137.193  0.00  0.00    +0.000 OA
ATOM     22  C   UNL     1     114.937 124.867 137.212  0.00  0.00    +0.000 C 
ENDBRANCH  18  21
ENDBRANCH   6  15
BRANCH  11  23
ATOM     23  O   UNL     1     113.833 128.445 135.428  0.00  0.00    +0.000 OA
ATOM     24  C   UNL     1     114.585 128.735 135.249  0.00  0.00    +0.000 C 
ENDBRANCH  11  23
BRANCH   5  25
ATOM     25  O   UNL     1     111.932 126.665 138.208  0.00  0.00    +0.000 OA
BRANCH  25  34
ATOM     26  O   UNL     1     112.910 126.862 139.231  0.00  0.00    +0.000 OA
ATOM     27  O   UNL     1     111.214 126.335 140.955  0.00  0.00    +0.000 OA
ATOM     28  O   UNL     1     112.758 126.707 141.403  0.00  0.00    +0.000 OA
ATOM     29  O   UNL     1     110.801 126.314 139.358  0.00  0.00    +0.000 OA
ATOM     30  C   UNL     1     111.779 126.511 140.380  0.00  0.00    +0.000 C 
ATOM     31  C   UNL     1     112.551 126.697 140.604  0.00  0.00    +0.000 C 
ATOM     32  C   UNL     1     111.573 126.501 139.582  0.00  0.00    +0.000 C 
ATOM     33  C   UNL     1     113.117 126.872 140.029  0.00  0.00    +0.000 C 
ATOM     34  C   UNL     1     112.139 126.676 139.007  0.00  0.00    +0.000 C 
ATOM     35  C   UNL     1     113.888 127.058 140.254  0.00  0.00    +0.000 C 
ENDBRANCH  25  34
ENDBRANCH   5  25
TORSDOF 5
ENDMDL
MODEL 5
REMARK VINA RESULT:      -9.1     11.556     13.471
REMARK  Name = 44260008
REMARK  5 active torsions:
REMARK  status: ('A' for Active; 'I' for Inactive)
REMARK    1  A    between atoms: O_2  and  C_17
REMARK    2  A    between atoms: O_2  and  C_19
REMARK    3  A    between atoms: O_8  and  C_26
REMARK    4  A    between atoms: O_11  and  C_31
REMARK    5  A    between atoms: C_20  and  C_24
REMARK                            x       y       z     vdW  Elec       q    Type
REMARK                         _______ _______ _______ _____ _____    ______ ____
ROOT
ATOM      1  O   UNL     1     113.077 126.604 136.664  0.00  0.00    +0.000 OA
ATOM      2  O   UNL     1     110.896 126.388 135.513  0.00  0.00    +0.000 OA
ATOM      3  O   UNL     1     110.882 124.964 135.746  0.00  0.00    +0.000 OA
ATOM      4  O   UNL     1     113.117 123.736 137.169  0.00  0.00    +0.000 OA
ATOM      5  C   UNL     1     111.981 127.200 135.967  0.00  0.00    +0.000 A 
ATOM      6  C   UNL     1     112.707 127.272 136.350  0.00  0.00    +0.000 A 
ATOM      7  C   UNL     1     111.623 126.459 135.897  0.00  0.00    +0.000 A 
ATOM      8  C   UNL     1     111.992 125.791 136.210  0.00  0.00    +0.000 A 
ATOM      9  C   UNL     1     112.719 125.864 136.594  0.00  0.00    +0.000 A 
ATOM     10  C   UNL     1     111.610 125.027 136.131  0.00  0.00    +0.000 A 
ATOM     11  C   UNL     1     113.113 125.176 136.924  0.00  0.00    +0.000 A 
ATOM     12  C   UNL     1     112.746 124.402 136.855  0.00  0.00    +0.000 A 
ATOM     13  C   UNL     1     111.989 124.327 136.455  0.00  0.00    +0.000 A 
ENDROOT
BRANCH   6  15
ATOM     14  O   UNL     1     114.138 130.232 136.631  0.00  0.00    +0.000 OA
ATOM     15  C   UNL     1     113.065 128.012 136.420  0.00  0.00    +0.000 A 
ATOM     16  C   UNL     1     113.042 128.415 137.140  0.00  0.00    +0.000 A 
ATOM     17  C   UNL     1     113.446 128.350 135.771  0.00  0.00    +0.000 A 
ATOM     18  C   UNL     1     113.400 129.156 137.210  0.00  0.00    +0.000 A 
ATOM     19  C   UNL     1     113.803 129.089 135.841  0.00  0.00    +0.000 A 
ATOM     20  C   UNL     1     113.780 129.493 136.561  0.00  0.00    +0.000 A 
BRANCH  18  21
ATOM     21  O   UNL     1     113.376 129.558 137.930  0.00  0.00    +0.000 OA
ATOM     22  C   UNL     1     113.315 129.137 138.637  0.00  0.00    +0.000 C 
ENDBRANCH  18  21
ENDBRANCH   6  15
BRANCH  11  23
ATOM     23  O   UNL     1     113.840 125.257 137.306  0.00  0.00    +0.000 OA
ATOM     24  C   UNL     1     114.475 124.774 137.094  0.00  0.00    +0.000 C 
ENDBRANCH  11  23
BRANCH   5  25
ATOM     25  O   UNL     1     111.612 127.868 135.653  0.00  0.00    +0.000 OA
BRANCH  25  34
ATOM     26  O   UNL     1     110.647 127.955 136.704  0.00  0.00    +0.000 OA
ATOM     27  O   UNL     1     109.041 129.008 135.142  0.00  0.00    +0.000 OA
ATOM     28  O   UNL     1     108.612 128.745 136.713  0.00  0.00    +0.000 OA
ATOM     29  O   UNL     1     110.541 128.570 134.612  0.00  0.00    +0.000 OA
ATOM     30  C   UNL     1     109.576 128.657 135.662  0.00  0.00    +0.000 C 
ATOM     31  C   UNL     1     109.362 128.525 136.448  0.00  0.00    +0.000 C 
ATOM     32  C   UNL     1     110.326 128.438 135.398  0.00  0.00    +0.000 C 
ATOM     33  C   UNL     1     109.897 128.174 136.969  0.00  0.00    +0.000 C 
ATOM     34  C   UNL     1     110.862 128.087 135.919  0.00  0.00    +0.000 C 
ATOM     35  C   UNL     1     109.682 128.043 137.754  0.00  0.00    +0.000 C 
ENDBRANCH  25  34
ENDBRANCH   5  25
TORSDOF 5
ENDMDL
MODEL 6
REMARK VINA RESULT:      -8.9     11.198     13.321
REMARK  Name = 44260008
REMARK  5 active torsions:
REMARK  status: ('A' for Active; 'I' for Inactive)
REMARK    1  A    between atoms: O_2  and  C_17
REMARK    2  A    between atoms: O_2  and  C_19
REMARK    3  A    between atoms: O_8  and  C_26
REMARK    4  A    between atoms: O_11  and  C_31
REMARK    5  A    between atoms: C_20  and  C_24
REMARK                            x       y       z     vdW  Elec       q    Type
REMARK                         _______ _______ _______ _____ _____    ______ ____
ROOT
ATOM      1  O   UNL     1     112.991 128.419 138.248  0.00  0.00    +0.000 OA
ATOM      2  O   UNL     1     112.210 126.127 138.758  0.00  0.00    +0.000 OA
ATOM      3  O   UNL     1     112.658 126.247 140.124  0.00  0.00    +0.000 OA
ATOM      4  O   UNL     1     113.920 128.734 140.991  0.00  0.00    +0.000 OA
ATOM      5  C   UNL     1     112.375 127.200 137.829  0.00  0.00    +0.000 A 
ATOM      6  C   UNL     1     112.635 127.965 137.660  0.00  0.00    +0.000 A 
ATOM      7  C   UNL     1     112.471 126.891 138.588  0.00  0.00    +0.000 A 
ATOM      8  C   UNL     1     112.827 127.346 139.177  0.00  0.00    +0.000 A 
ATOM      9  C   UNL     1     113.087 128.110 139.006  0.00  0.00    +0.000 A 
ATOM     10  C   UNL     1     112.922 127.013 139.963  0.00  0.00    +0.000 A 
ATOM     11  C   UNL     1     113.460 128.593 139.611  0.00  0.00    +0.000 A 
ATOM     12  C   UNL     1     113.563 128.277 140.404  0.00  0.00    +0.000 A 
ATOM     13  C   UNL     1     113.292 127.481 140.581  0.00  0.00    +0.000 A 
ENDROOT
BRANCH   6  15
ATOM     14  O   UNL     1     112.251 129.201 134.624  0.00  0.00    +0.000 OA
ATOM     15  C   UNL     1     112.539 128.274 136.900  0.00  0.00    +0.000 A 
ATOM     16  C   UNL     1     113.189 128.339 136.396  0.00  0.00    +0.000 A 
ATOM     17  C   UNL     1     111.793 128.518 136.646  0.00  0.00    +0.000 A 
ATOM     18  C   UNL     1     113.093 128.648 135.637  0.00  0.00    +0.000 A 
ATOM     19  C   UNL     1     111.697 128.827 135.887  0.00  0.00    +0.000 A 
ATOM     20  C   UNL     1     112.347 128.892 135.382  0.00  0.00    +0.000 A 
BRANCH  18  21
ATOM     21  O   UNL     1     113.743 128.713 135.133  0.00  0.00    +0.000 OA
ATOM     22  C   UNL     1     114.497 128.834 135.445  0.00  0.00    +0.000 C 
ENDBRANCH  18  21
ENDBRANCH   6  15
BRANCH  11  23
ATOM     23  O   UNL     1     113.718 129.357 139.433  0.00  0.00    +0.000 OA
ATOM     24  C   UNL     1     113.480 129.993 139.901  0.00  0.00    +0.000 C 
ENDBRANCH  11  23
BRANCH   5  25
ATOM     25  O   UNL     1     112.018 126.746 137.240  0.00  0.00    +0.000 OA
BRANCH  25  34
ATOM     26  O   UNL     1     113.163 125.916 137.036  0.00  0.00    +0.000 OA
ATOM     27  O   UNL     1     111.689 124.046 136.361  0.00  0.00    +0.000 OA
ATOM     28  O   UNL     1     113.326 123.840 136.382  0.00  0.00    +0.000 OA
ATOM     29  O   UNL     1     111.035 125.499 136.790  0.00  0.00    +0.000 OA
ATOM     30  C   UNL     1     112.180 124.669 136.586  0.00  0.00    +0.000 C 
ATOM     31  C   UNL     1     112.999 124.567 136.597  0.00  0.00    +0.000 C 
ATOM     32  C   UNL     1     111.854 125.396 136.800  0.00  0.00    +0.000 C 
ATOM     33  C   UNL     1     113.490 125.190 136.822  0.00  0.00    +0.000 C 
ATOM     34  C   UNL     1     112.346 126.019 137.026  0.00  0.00    +0.000 C 
ATOM     35  C   UNL     1     114.309 125.086 136.832  0.00  0.00    +0.000 C 
ENDBRANCH  25  34
ENDBRANCH   5  25
TORSDOF 5
ENDMDL
MODEL 7
REMARK VINA RESULT:      -8.9      9.508     12.657
REMARK  Name = 44260008
REMARK  5 active torsions:
REMARK  status: ('A' for Active; 'I' for Inactive)
REMARK    1  A    between atoms: O_2  and  C_17
REMARK    2  A    between atoms: O_2  and  C_19
REMARK    3  A    between atoms: O_8  and  C_26
REMARK    4  A    between atoms: O_11  and  C_31
REMARK    5  A    between atoms: C_20  and  C_24
REMARK                            x       y       z     vdW  Elec       q    Type
REMARK                         _______ _______ _______ _____ _____    ______ ____
ROOT
ATOM      1  O   UNL     1     111.925 128.257 138.236  0.00  0.00    +0.000 OA
ATOM      2  O   UNL     1     113.728 127.306 136.833  0.00  0.00    +0.000 OA
ATOM      3  O   UNL     1     113.528 128.327 135.834  0.00  0.00    +0.000 OA
ATOM      4  O   UNL     1     111.465 130.349 136.263  0.00  0.00    +0.000 OA
ATOM      5  C   UNL     1     112.936 127.270 138.022  0.00  0.00    +0.000 A 
ATOM      6  C   UNL     1     112.335 127.587 138.489  0.00  0.00    +0.000 A 
ATOM      7  C   UNL     1     113.127 127.623 137.300  0.00  0.00    +0.000 A 
ATOM      8  C   UNL     1     112.717 128.293 137.047  0.00  0.00    +0.000 A 
ATOM      9  C   UNL     1     112.116 128.609 137.516  0.00  0.00    +0.000 A 
ATOM     10  C   UNL     1     112.925 128.651 136.295  0.00  0.00    +0.000 A 
ATOM     11  C   UNL     1     111.682 129.306 137.263  0.00  0.00    +0.000 A 
ATOM     12  C   UNL     1     111.876 129.679 136.513  0.00  0.00    +0.000 A 
ATOM     13  C   UNL     1     112.502 129.349 136.026  0.00  0.00    +0.000 A 
ENDROOT
BRANCH   6  15
ATOM     14  O   UNL     1     111.570 126.175 141.372  0.00  0.00    +0.000 OA
ATOM     15  C   UNL     1     112.144 127.234 139.210  0.00  0.00    +0.000 A 
ATOM     16  C   UNL     1     111.465 126.769 139.274  0.00  0.00    +0.000 A 
ATOM     17  C   UNL     1     112.631 127.345 139.866  0.00  0.00    +0.000 A 
ATOM     18  C   UNL     1     111.274 126.416 139.996  0.00  0.00    +0.000 A 
ATOM     19  C   UNL     1     112.440 126.992 140.587  0.00  0.00    +0.000 A 
ATOM     20  C   UNL     1     111.761 126.528 140.652  0.00  0.00    +0.000 A 
BRANCH  18  21
ATOM     21  O   UNL     1     110.595 125.952 140.060  0.00  0.00    +0.000 OA
ATOM     22  C   UNL     1     109.948 126.096 139.568  0.00  0.00    +0.000 C 
ENDBRANCH  18  21
ENDBRANCH   6  15
BRANCH  11  23
ATOM     23  O   UNL     1     111.082 129.617 137.737  0.00  0.00    +0.000 OA
ATOM     24  C   UNL     1     111.097 130.413 137.954  0.00  0.00    +0.000 C 
ENDBRANCH  11  23
BRANCH   5  25
ATOM     25  O   UNL     1     113.346 126.600 138.275  0.00  0.00    +0.000 OA
BRANCH  25  34
ATOM     26  O   UNL     1     112.682 125.720 137.365  0.00  0.00    +0.000 OA
ATOM     27  O   UNL     1     114.687 124.269 137.307  0.00  0.00    +0.000 OA
ATOM     28  O   UNL     1     113.355 123.872 136.417  0.00  0.00    +0.000 OA
ATOM     29  O   UNL     1     114.682 125.633 138.236  0.00  0.00    +0.000 OA
ATOM     30  C   UNL     1     114.019 124.753 137.326  0.00  0.00    +0.000 C 
ATOM     31  C   UNL     1     113.353 124.555 136.882  0.00  0.00    +0.000 C 
ATOM     32  C   UNL     1     114.016 125.435 137.790  0.00  0.00    +0.000 C 
ATOM     33  C   UNL     1     112.684 125.039 136.901  0.00  0.00    +0.000 C 
ATOM     34  C   UNL     1     113.347 125.918 137.810  0.00  0.00    +0.000 C 
ATOM     35  C   UNL     1     112.019 124.840 136.456  0.00  0.00    +0.000 C 
ENDBRANCH  25  34
ENDBRANCH   5  25
TORSDOF 5
ENDMDL
MODEL 8
REMARK VINA RESULT:      -8.8     10.429     13.278
REMARK  Name = 44260008
REMARK  5 active torsions:
REMARK  status: ('A' for Active; 'I' for Inactive)
REMARK    1  A    between atoms: O_2  and  C_17
REMARK    2  A    between atoms: O_2  and  C_19
REMARK    3  A    between atoms: O_8  and  C_26
REMARK    4  A    between atoms: O_11  and  C_31
REMARK    5  A    between atoms: C_20  and  C_24
REMARK                            x       y       z     vdW  Elec       q    Type
REMARK                         _______ _______ _______ _____ _____    ______ ____
ROOT
ATOM      1  O   UNL     1     111.807 125.610 136.705  0.00  0.00    +0.000 OA
ATOM      2  O   UNL     1     113.470 127.368 136.186  0.00  0.00    +0.000 OA
ATOM      3  O   UNL     1     114.558 126.461 136.465  0.00  0.00    +0.000 OA
ATOM      4  O   UNL     1     113.950 123.725 137.285  0.00  0.00    +0.000 OA
ATOM      5  C   UNL     1     112.109 126.948 136.304  0.00  0.00    +0.000 A 
ATOM      6  C   UNL     1     111.556 126.362 136.477  0.00  0.00    +0.000 A 
ATOM      7  C   UNL     1     112.916 126.782 136.359  0.00  0.00    +0.000 A 
ATOM      8  C   UNL     1     113.168 126.030 136.587  0.00  0.00    +0.000 A 
ATOM      9  C   UNL     1     112.613 125.444 136.760  0.00  0.00    +0.000 A 
ATOM     10  C   UNL     1     114.010 125.869 136.640  0.00  0.00    +0.000 A 
ATOM     11  C   UNL     1     112.863 124.658 136.998  0.00  0.00    +0.000 A 
ATOM     12  C   UNL     1     113.701 124.478 137.057  0.00  0.00    +0.000 A 
ATOM     13  C   UNL     1     114.279 125.088 136.877  0.00  0.00    +0.000 A 
ENDROOT
BRANCH   6  15
ATOM     14  O   UNL     1     108.330 127.027 136.259  0.00  0.00    +0.000 OA
ATOM     15  C   UNL     1     110.749 126.528 136.423  0.00  0.00    +0.000 A 
ATOM     16  C   UNL     1     110.298 126.611 137.108  0.00  0.00    +0.000 A 
ATOM     17  C   UNL     1     110.394 126.611 135.682  0.00  0.00    +0.000 A 
ATOM     18  C   UNL     1     109.491 126.778 137.054  0.00  0.00    +0.000 A 
ATOM     19  C   UNL     1     109.588 126.777 135.628  0.00  0.00    +0.000 A 
ATOM     20  C   UNL     1     109.136 126.861 136.313  0.00  0.00    +0.000 A 
BRANCH  18  21
ATOM     21  O   UNL     1     109.040 126.861 137.739  0.00  0.00    +0.000 OA
ATOM     22  C   UNL     1     109.287 126.506 138.442  0.00  0.00    +0.000 C 
ENDBRANCH  18  21
ENDBRANCH   6  15
BRANCH  11  23
ATOM     23  O   UNL     1     112.302 124.077 137.170  0.00  0.00    +0.000 OA
ATOM     24  C   UNL     1     112.320 123.354 136.773  0.00  0.00    +0.000 C 
ENDBRANCH  11  23
BRANCH   5  25
ATOM     25  O   UNL     1     111.858 127.700 136.076  0.00  0.00    +0.000 OA
BRANCH  25  34
ATOM     26  O   UNL     1     112.148 128.296 137.342  0.00  0.00    +0.000 OA
ATOM     27  O   UNL     1     112.564 130.465 136.225  0.00  0.00    +0.000 OA
ATOM     28  O   UNL     1     112.715 130.339 137.863  0.00  0.00    +0.000 OA
ATOM     29  O   UNL     1     112.135 129.146 135.331  0.00  0.00    +0.000 OA
ATOM     30  C   UNL     1     112.425 129.742 136.597  0.00  0.00    +0.000 C 
ATOM     31  C   UNL     1     112.501 129.678 137.416  0.00  0.00    +0.000 C 
ATOM     32  C   UNL     1     112.211 129.082 136.151  0.00  0.00    +0.000 C 
ATOM     33  C   UNL     1     112.362 128.955 137.789  0.00  0.00    +0.000 C 
ATOM     34  C   UNL     1     112.072 128.359 136.524  0.00  0.00    +0.000 C 
ATOM     35  C   UNL     1     112.438 128.893 138.608  0.00  0.00    +0.000 C 
ENDBRANCH  25  34
ENDBRANCH   5  25
TORSDOF 5
ENDMDL
MODEL 9
REMARK VINA RESULT:      -8.8     12.002     14.104
REMARK  Name = 44260008
REMARK  5 active torsions:
REMARK  status: ('A' for Active; 'I' for Inactive)
REMARK    1  A    between atoms: O_2  and  C_17
REMARK    2  A    between atoms: O_2  and  C_19
REMARK    3  A    between atoms: O_8  and  C_26
REMARK    4  A    between atoms: O_11  and  C_31
REMARK    5  A    between atoms: C_20  and  C_24
REMARK                            x       y       z     vdW  Elec       q    Type
REMARK                         _______ _______ _______ _____ _____    ______ ____
ROOT
ATOM      1  O   UNL     1     111.916 129.151 135.450  0.00  0.00    +0.000 OA
ATOM      2  O   UNL     1     111.864 126.751 136.053  0.00  0.00    +0.000 OA
ATOM      3  O   UNL     1     110.450 126.683 135.773  0.00  0.00    +0.000 OA
ATOM      4  O   UNL     1     109.064 129.087 134.866  0.00  0.00    +0.000 OA
ATOM      5  C   UNL     1     112.590 127.971 135.894  0.00  0.00    +0.000 A 
ATOM      6  C   UNL     1     112.607 128.771 135.692  0.00  0.00    +0.000 A 
ATOM      7  C   UNL     1     111.881 127.551 135.852  0.00  0.00    +0.000 A 
ATOM      8  C   UNL     1     111.190 127.931 135.609  0.00  0.00    +0.000 A 
ATOM      9  C   UNL     1     111.208 128.731 135.408  0.00  0.00    +0.000 A 
ATOM     10  C   UNL     1     110.458 127.483 135.570  0.00  0.00    +0.000 A 
ATOM     11  C   UNL     1     110.495 129.137 135.154  0.00  0.00    +0.000 A 
ATOM     12  C   UNL     1     109.753 128.705 135.109  0.00  0.00    +0.000 A 
ATOM     13  C   UNL     1     109.735 127.872 135.318  0.00  0.00    +0.000 A 
ENDROOT
BRANCH   6  15
ATOM     14  O   UNL     1     115.442 130.452 135.859  0.00  0.00    +0.000 OA
ATOM     15  C   UNL     1     113.317 129.191 135.734  0.00  0.00    +0.000 A 
ATOM     16  C   UNL     1     113.451 129.711 136.360  0.00  0.00    +0.000 A 
ATOM     17  C   UNL     1     113.890 129.092 135.149  0.00  0.00    +0.000 A 
ATOM     18  C   UNL     1     114.161 130.131 136.402  0.00  0.00    +0.000 A 
ATOM     19  C   UNL     1     114.598 129.512 135.191  0.00  0.00    +0.000 A 
ATOM     20  C   UNL     1     114.734 130.032 135.817  0.00  0.00    +0.000 A 
BRANCH  18  21
ATOM     21  O   UNL     1     114.295 130.651 137.029  0.00  0.00    +0.000 OA
ATOM     22  C   UNL     1     113.659 131.012 137.410  0.00  0.00    +0.000 C 
ENDBRANCH  18  21
ENDBRANCH   6  15
BRANCH  11  23
ATOM     23  O   UNL     1     110.521 129.937 134.955  0.00  0.00    +0.000 OA
ATOM     24  C   UNL     1     109.970 130.462 135.274  0.00  0.00    +0.000 C 
ENDBRANCH  11  23
BRANCH   5  25
ATOM     25  O   UNL     1     113.281 127.592 136.136  0.00  0.00    +0.000 OA
BRANCH  25  34
ATOM     26  O   UNL     1     112.919 127.570 137.519  0.00  0.00    +0.000 OA
ATOM     27  O   UNL     1     114.212 125.482 137.824  0.00  0.00    +0.000 OA
ATOM     28  O   UNL     1     113.419 126.156 139.104  0.00  0.00    +0.000 OA
ATOM     29  O   UNL     1     114.143 126.199 136.340  0.00  0.00    +0.000 OA
ATOM     30  C   UNL     1     113.781 126.178 137.722  0.00  0.00    +0.000 C 
ATOM     31  C   UNL     1     113.385 126.515 138.362  0.00  0.00    +0.000 C 
ATOM     32  C   UNL     1     113.746 126.537 136.981  0.00  0.00    +0.000 C 
ATOM     33  C   UNL     1     112.954 127.211 138.260  0.00  0.00    +0.000 C 
ATOM     34  C   UNL     1     113.315 127.233 136.879  0.00  0.00    +0.000 C 
ATOM     35  C   UNL     1     112.557 127.548 138.901  0.00  0.00    +0.000 C 
ENDBRANCH  25  34
ENDBRANCH   5  25
TORSDOF 5
ENDMDL
MODEL 10
REMARK VINA RESULT:      -8.8     11.157     13.435
REMARK  Name = 44260008
REMARK  5 active torsions:
REMARK  status: ('A' for Active; 'I' for Inactive)
REMARK    1  A    between atoms: O_2  and  C_17
REMARK    2  A    between atoms: O_2  and  C_19
REMARK    3  A    between atoms: O_8  and  C_26
REMARK    4  A    between atoms: O_11  and  C_31
REMARK    5  A    between atoms: C_20  and  C_24
REMARK                            x       y       z     vdW  Elec       q    Type
REMARK                         _______ _______ _______ _____ _____    ______ ____
ROOT
ATOM      1  O   UNL     1     111.499 126.766 136.759  0.00  0.00    +0.000 OA
ATOM      2  O   UNL     1     112.020 128.720 135.332  0.00  0.00    +0.000 OA
ATOM      3  O   UNL     1     110.616 128.978 135.123  0.00  0.00    +0.000 OA
ATOM      4  O   UNL     1     108.648 127.226 136.381  0.00  0.00    +0.000 OA
ATOM      5  C   UNL     1     112.458 127.627 136.141  0.00  0.00    +0.000 A 
ATOM      6  C   UNL     1     112.284 126.975 136.616  0.00  0.00    +0.000 A 
ATOM      7  C   UNL     1     111.846 128.069 135.808  0.00  0.00    +0.000 A 
ATOM      8  C   UNL     1     111.061 127.860 135.950  0.00  0.00    +0.000 A 
ATOM      9  C   UNL     1     110.888 127.208 136.426  0.00  0.00    +0.000 A 
ATOM     10  C   UNL     1     110.433 128.328 135.598  0.00  0.00    +0.000 A 
ATOM     11  C   UNL     1     110.074 126.981 136.581  0.00  0.00    +0.000 A 
ATOM     12  C   UNL     1     109.432 127.437 136.237  0.00  0.00    +0.000 A 
ATOM     13  C   UNL     1     109.613 128.116 135.742  0.00  0.00    +0.000 A 
ENDROOT
BRANCH   6  15
ATOM     14  O   UNL     1     114.731 125.207 137.949  0.00  0.00    +0.000 OA
ATOM     15  C   UNL     1     112.896 126.533 136.950  0.00  0.00    +0.000 A 
ATOM     16  C   UNL     1     113.073 126.614 137.751  0.00  0.00    +0.000 A 
ATOM     17  C   UNL     1     113.330 126.011 136.481  0.00  0.00    +0.000 A 
ATOM     18  C   UNL     1     113.685 126.171 138.085  0.00  0.00    +0.000 A 
ATOM     19  C   UNL     1     113.942 125.569 136.814  0.00  0.00    +0.000 A 
ATOM     20  C   UNL     1     114.120 125.649 137.616  0.00  0.00    +0.000 A 
BRANCH  18  21
ATOM     21  O   UNL     1     113.862 126.252 138.886  0.00  0.00    +0.000 OA
ATOM     22  C   UNL     1     113.285 126.517 139.412  0.00  0.00    +0.000 C 
ENDBRANCH  18  21
ENDBRANCH   6  15
BRANCH  11  23
ATOM     23  O   UNL     1     109.909 126.328 137.058  0.00  0.00    +0.000 OA
ATOM     24  C   UNL     1     109.442 126.416 137.733  0.00  0.00    +0.000 C 
ENDBRANCH  11  23
BRANCH   5  25
ATOM     25  O   UNL     1     113.243 127.836 135.999  0.00  0.00    +0.000 OA
BRANCH  25  34
ATOM     26  O   UNL     1     113.221 128.956 136.886  0.00  0.00    +0.000 OA
ATOM     27  O   UNL     1     114.920 130.094 135.493  0.00  0.00    +0.000 OA
ATOM     28  O   UNL     1     114.331 130.834 136.845  0.00  0.00    +0.000 OA
ATOM     29  O   UNL     1     114.376 128.595 135.070  0.00  0.00    +0.000 OA
ATOM     30  C   UNL     1     114.354 129.715 135.957  0.00  0.00    +0.000 C 
ATOM     31  C   UNL     1     114.059 130.084 136.633  0.00  0.00    +0.000 C 
ATOM     32  C   UNL     1     114.082 128.965 135.746  0.00  0.00    +0.000 C 
ATOM     33  C   UNL     1     113.493 129.705 137.098  0.00  0.00    +0.000 C 
ATOM     34  C   UNL     1     113.515 128.586 136.211  0.00  0.00    +0.000 C 
ATOM     35  C   UNL     1     113.198 130.075 137.774  0.00  0.00    +0.000 C 
ENDBRANCH  25  34
ENDBRANCH   5  25
TORSDOF 5
ENDMDL
