MODEL 1
REMARK VINA RESULT:      -9.7      0.000      0.000
REMARK  Name = 131752460
REMARK  8 active torsions:
REMARK  status: ('A' for Active; 'I' for Inactive)
REMARK    1  A    between atoms: O_2  and  C_16
REMARK    2  A    between atoms: O_2  and  C_21
REMARK    3  A    between atoms: O_3  and  C_18
REMARK    4  A    between atoms: O_3  and  C_20
REMARK    5  A    between atoms: C_17  and  C_19
REMARK    6  A    between atoms: C_21  and  C_27
REMARK    7  A    between atoms: C_22  and  C_26
REMARK    8  A    between atoms: C_32  and  C_37
REMARK                            x       y       z     vdW  Elec       q    Type
REMARK                         _______ _______ _______ _____ _____    ______ ____
ROOT
ATOM      1  O   UNL     1     113.337 129.952 138.972  0.00  0.00    +0.000 OA
ATOM      2  O   UNL     1     113.254 127.701 139.997  0.00  0.00    +0.000 OA
ATOM      3  O   UNL     1     113.939 128.957 140.818  0.00  0.00    +0.000 OA
ATOM      4  C   UNL     1     113.281 128.452 139.655  0.00  0.00    +0.000 C 
ATOM      5  C   UNL     1     113.624 129.079 140.066  0.00  0.00    +0.000 C 
ATOM      6  C   UNL     1     112.966 128.573 138.903  0.00  0.00    +0.000 C 
ATOM      7  C   UNL     1     113.652 129.829 139.724  0.00  0.00    +0.000 C 
ATOM      8  C   UNL     1     112.994 129.323 138.561  0.00  0.00    +0.000 C 
ENDROOT
BRANCH   7  10
ATOM      9  O   UNL     1     114.595 130.902 139.782  0.00  0.00    +0.000 OA
ATOM     10  C   UNL     1     113.995 130.457 140.134  0.00  0.00    +0.000 C 
ENDBRANCH   7  10
BRANCH   6  11
ATOM     11  O   UNL     1     112.624 127.946 138.492  0.00  0.00    +0.000 OA
BRANCH  11  13
ATOM     12  O   UNL     1     113.917 127.411 138.200  0.00  0.00    +0.000 OA
ATOM     13  C   UNL     1     113.096 127.331 138.210  0.00  0.00    +0.000 C 
BRANCH  13  14
ATOM     14  C   UNL     1     112.747 126.634 137.936  0.00  0.00    +0.000 C 
ATOM     15  C   UNL     1     113.047 126.258 137.267  0.00  0.00    +0.000 C 
BRANCH  15  17
ATOM     16  O   UNL     1     111.651 123.474 136.175  0.00  0.00    +0.000 OA
ATOM     17  C   UNL     1     112.698 125.562 136.994  0.00  0.00    +0.000 A 
ATOM     18  C   UNL     1     113.040 124.832 137.171  0.00  0.00    +0.000 A 
ATOM     19  C   UNL     1     112.008 125.596 136.544  0.00  0.00    +0.000 A 
ATOM     20  C   UNL     1     112.691 124.136 136.898  0.00  0.00    +0.000 A 
ATOM     21  C   UNL     1     111.658 124.900 136.271  0.00  0.00    +0.000 A 
ATOM     22  C   UNL     1     112.000 124.170 136.448  0.00  0.00    +0.000 A 
ENDBRANCH  15  17
ENDBRANCH  13  14
ENDBRANCH  11  13
ENDBRANCH   6  11
BRANCH   8  23
ATOM     23  O   UNL     1     112.680 129.446 137.808  0.00  0.00    +0.000 OA
BRANCH  23  28
ATOM     24  O   UNL     1     112.194 131.325 136.809  0.00  0.00    +0.000 OA
ATOM     25  O   UNL     1     111.411 129.968 138.725  0.00  0.00    +0.000 OA
ATOM     26  O   UNL     1     110.384 130.935 139.029  0.00  0.00    +0.000 OA
ATOM     27  O   UNL     1     110.145 133.321 137.361  0.00  0.00    +0.000 OA
ATOM     28  C   UNL     1     112.306 130.160 137.628  0.00  0.00    +0.000 A 
ATOM     29  C   UNL     1     112.567 130.612 136.989  0.00  0.00    +0.000 A 
ATOM     30  C   UNL     1     111.672 130.420 138.086  0.00  0.00    +0.000 A 
ATOM     31  C   UNL     1     111.299 131.133 137.906  0.00  0.00    +0.000 A 
ATOM     32  C   UNL     1     111.559 131.586 137.268  0.00  0.00    +0.000 A 
ATOM     33  C   UNL     1     110.638 131.394 138.391  0.00  0.00    +0.000 A 
ATOM     34  C   UNL     1     111.179 132.330 137.070  0.00  0.00    +0.000 A 
ATOM     35  C   UNL     1     110.246 132.136 138.209  0.00  0.00    +0.000 A 
ATOM     36  C   UNL     1     110.517 132.608 137.543  0.00  0.00    +0.000 A 
BRANCH  29  38
ATOM     37  O   UNL     1     115.105 129.570 135.155  0.00  0.00    +0.000 OA
ATOM     38  C   UNL     1     113.201 130.351 136.531  0.00  0.00    +0.000 A 
ATOM     39  C   UNL     1     113.955 130.664 136.654  0.00  0.00    +0.000 A 
ATOM     40  C   UNL     1     113.083 129.779 135.949  0.00  0.00    +0.000 A 
ATOM     41  C   UNL     1     114.590 130.403 136.195  0.00  0.00    +0.000 A 
ATOM     42  C   UNL     1     113.717 129.519 135.490  0.00  0.00    +0.000 A 
ATOM     43  C   UNL     1     114.470 129.831 135.614  0.00  0.00    +0.000 A 
ENDBRANCH  29  38
ENDBRANCH  23  28
ENDBRANCH   8  23
TORSDOF 8
ENDMDL
MODEL 2
REMARK VINA RESULT:      -9.6      2.243      3.125
REMARK  Name = 131752460
REMARK  8 active torsions:
REMARK  status: ('A' for Active; 'I' for Inactive)
REMARK    1  A    between atoms: O_2  and  C_16
REMARK    2  A    between atoms: O_2  and  C_21
REMARK    3  A    between atoms: O_3  and  C_18
REMARK    4  A    between atoms: O_3  and  C_20
REMARK    5  A    between atoms: C_17  and  C_19
REMARK    6  A    between atoms: C_21  and  C_27
REMARK    7  A    between atoms: C_22  and  C_26
REMARK    8  A    between atoms: C_32  and  C_37
REMARK                            x       y       z     vdW  Elec       q    Type
REMARK                         _______ _______ _______ _____ _____    ______ ____
ROOT
ATOM      1  O   UNL     1     111.051 128.265 140.911  0.00  0.00    +0.000 OA
ATOM      2  O   UNL     1     111.145 125.847 140.391  0.00  0.00    +0.000 OA
ATOM      3  O   UNL     1     110.403 126.366 141.769  0.00  0.00    +0.000 OA
ATOM      4  C   UNL     1     111.114 126.653 140.565  0.00  0.00    +0.000 C 
ATOM      5  C   UNL     1     110.743 126.912 141.253  0.00  0.00    +0.000 C 
ATOM      6  C   UNL     1     111.454 127.199 140.048  0.00  0.00    +0.000 C 
ATOM      7  C   UNL     1     110.711 127.718 141.427  0.00  0.00    +0.000 C 
ATOM      8  C   UNL     1     111.423 128.005 140.221  0.00  0.00    +0.000 C 
ENDROOT
BRANCH   7  10
ATOM      9  O   UNL     1     110.790 128.293 142.732  0.00  0.00    +0.000 OA
ATOM     10  C   UNL     1     110.340 127.978 142.116  0.00  0.00    +0.000 C 
ENDBRANCH   7  10
BRANCH   6  11
ATOM     11  O   UNL     1     111.826 126.940 139.359  0.00  0.00    +0.000 OA
BRANCH  11  13
ATOM     12  O   UNL     1     112.952 126.502 140.121  0.00  0.00    +0.000 OA
ATOM     13  C   UNL     1     112.547 126.543 139.404  0.00  0.00    +0.000 C 
BRANCH  13  14
ATOM     14  C   UNL     1     112.865 126.186 138.730  0.00  0.00    +0.000 C 
ATOM     15  C   UNL     1     113.665 126.281 138.552  0.00  0.00    +0.000 C 
BRANCH  15  17
ATOM     16  O   UNL     1     114.933 124.853 135.860  0.00  0.00    +0.000 OA
ATOM     17  C   UNL     1     113.982 125.924 137.879  0.00  0.00    +0.000 A 
ATOM     18  C   UNL     1     113.881 126.275 137.139  0.00  0.00    +0.000 A 
ATOM     19  C   UNL     1     114.399 125.216 137.946  0.00  0.00    +0.000 A 
ATOM     20  C   UNL     1     114.198 125.919 136.467  0.00  0.00    +0.000 A 
ATOM     21  C   UNL     1     114.717 124.859 137.273  0.00  0.00    +0.000 A 
ATOM     22  C   UNL     1     114.616 125.211 136.533  0.00  0.00    +0.000 A 
ENDBRANCH  15  17
ENDBRANCH  13  14
ENDBRANCH  11  13
ENDBRANCH   6  11
BRANCH   8  23
ATOM     23  O   UNL     1     111.763 128.552 139.706  0.00  0.00    +0.000 OA
BRANCH  23  28
ATOM     24  O   UNL     1     111.416 130.701 139.544  0.00  0.00    +0.000 OA
ATOM     25  O   UNL     1     110.204 128.576 139.164  0.00  0.00    +0.000 OA
ATOM     26  O   UNL     1     109.025 129.291 138.741  0.00  0.00    +0.000 OA
ATOM     27  O   UNL     1     109.072 132.211 138.701  0.00  0.00    +0.000 OA
ATOM     28  C   UNL     1     111.387 129.272 139.561  0.00  0.00    +0.000 A 
ATOM     29  C   UNL     1     111.792 129.980 139.688  0.00  0.00    +0.000 A 
ATOM     30  C   UNL     1     110.609 129.284 139.291  0.00  0.00    +0.000 A 
ATOM     31  C   UNL     1     110.233 130.005 139.147  0.00  0.00    +0.000 A 
ATOM     32  C   UNL     1     110.636 130.713 139.273  0.00  0.00    +0.000 A 
ATOM     33  C   UNL     1     109.421 130.005 138.865  0.00  0.00    +0.000 A 
ATOM     34  C   UNL     1     110.257 131.470 139.127  0.00  0.00    +0.000 A 
ATOM     35  C   UNL     1     109.025 130.752 138.713  0.00  0.00    +0.000 A 
ATOM     36  C   UNL     1     109.445 131.490 138.845  0.00  0.00    +0.000 A 
BRANCH  29  38
ATOM     37  O   UNL     1     114.908 129.933 140.773  0.00  0.00    +0.000 OA
ATOM     38  C   UNL     1     112.570 129.968 139.959  0.00  0.00    +0.000 A 
ATOM     39  C   UNL     1     112.730 130.087 140.760  0.00  0.00    +0.000 A 
ATOM     40  C   UNL     1     113.190 129.838 139.430  0.00  0.00    +0.000 A 
ATOM     41  C   UNL     1     113.510 130.075 141.031  0.00  0.00    +0.000 A 
ATOM     42  C   UNL     1     113.968 129.826 139.701  0.00  0.00    +0.000 A 
ATOM     43  C   UNL     1     114.128 129.945 140.501  0.00  0.00    +0.000 A 
ENDBRANCH  29  38
ENDBRANCH  23  28
ENDBRANCH   8  23
TORSDOF 8
ENDMDL
MODEL 3
REMARK VINA RESULT:      -9.6      8.115     10.408
REMARK  Name = 131752460
REMARK  8 active torsions:
REMARK  status: ('A' for Active; 'I' for Inactive)
REMARK    1  A    between atoms: O_2  and  C_16
REMARK    2  A    between atoms: O_2  and  C_21
REMARK    3  A    between atoms: O_3  and  C_18
REMARK    4  A    between atoms: O_3  and  C_20
REMARK    5  A    between atoms: C_17  and  C_19
REMARK    6  A    between atoms: C_21  and  C_27
REMARK    7  A    between atoms: C_22  and  C_26
REMARK    8  A    between atoms: C_32  and  C_37
REMARK                            x       y       z     vdW  Elec       q    Type
REMARK                         _______ _______ _______ _____ _____    ______ ____
ROOT
ATOM      1  O   UNL     1     106.552 126.543 142.608  0.00  0.00    +0.000 OA
ATOM      2  O   UNL     1     104.882 126.783 140.797  0.00  0.00    +0.000 OA
ATOM      3  O   UNL     1     106.164 125.763 140.608  0.00  0.00    +0.000 OA
ATOM      4  C   UNL     1     105.439 126.703 141.401  0.00  0.00    +0.000 C 
ATOM      5  C   UNL     1     106.079 126.193 141.306  0.00  0.00    +0.000 C 
ATOM      6  C   UNL     1     105.354 127.134 142.099  0.00  0.00    +0.000 C 
ATOM      7  C   UNL     1     106.636 126.113 141.910  0.00  0.00    +0.000 C 
ATOM      8  C   UNL     1     105.910 127.054 142.703  0.00  0.00    +0.000 C 
ENDROOT
BRANCH   7  10
ATOM      9  O   UNL     1     108.046 125.903 141.813  0.00  0.00    +0.000 OA
ATOM     10  C   UNL     1     107.277 125.603 141.815  0.00  0.00    +0.000 C 
ENDBRANCH   7  10
BRANCH   6  11
ATOM     11  O   UNL     1     104.713 127.644 142.194  0.00  0.00    +0.000 OA
BRANCH  11  13
ATOM     12  O   UNL     1     105.312 128.580 141.296  0.00  0.00    +0.000 OA
ATOM     13  C   UNL     1     104.666 128.335 141.745  0.00  0.00    +0.000 C 
BRANCH  13  14
ATOM     14  C   UNL     1     103.971 128.781 141.746  0.00  0.00    +0.000 C 
ATOM     15  C   UNL     1     104.010 129.605 141.719  0.00  0.00    +0.000 C 
BRANCH  15  17
ATOM     16  O   UNL     1     101.233 131.387 141.721  0.00  0.00    +0.000 OA
ATOM     17  C   UNL     1     103.316 130.050 141.719  0.00  0.00    +0.000 A 
ATOM     18  C   UNL     1     103.108 130.490 142.386  0.00  0.00    +0.000 A 
ATOM     19  C   UNL     1     102.829 130.055 141.054  0.00  0.00    +0.000 A 
ATOM     20  C   UNL     1     102.414 130.936 142.386  0.00  0.00    +0.000 A 
ATOM     21  C   UNL     1     102.134 130.501 141.054  0.00  0.00    +0.000 A 
ATOM     22  C   UNL     1     101.927 130.941 141.720  0.00  0.00    +0.000 A 
ENDBRANCH  15  17
ENDBRANCH  13  14
ENDBRANCH  11  13
ENDBRANCH   6  11
BRANCH   8  23
ATOM     23  O   UNL     1     105.826 127.484 143.402  0.00  0.00    +0.000 OA
BRANCH  23  28
ATOM     24  O   UNL     1     106.852 127.229 145.311  0.00  0.00    +0.000 OA
ATOM     25  O   UNL     1     105.216 126.031 143.891  0.00  0.00    +0.000 OA
ATOM     26  O   UNL     1     105.132 124.953 144.847  0.00  0.00    +0.000 OA
ATOM     27  O   UNL     1     106.734 125.090 147.285  0.00  0.00    +0.000 OA
ATOM     28  C   UNL     1     106.066 127.156 144.120  0.00  0.00    +0.000 A 
ATOM     29  C   UNL     1     106.612 127.556 144.593  0.00  0.00    +0.000 A 
ATOM     30  C   UNL     1     105.761 126.431 144.364  0.00  0.00    +0.000 A 
ATOM     31  C   UNL     1     106.002 126.103 145.082  0.00  0.00    +0.000 A 
ATOM     32  C   UNL     1     106.547 126.501 145.556  0.00  0.00    +0.000 A 
ATOM     33  C   UNL     1     105.677 125.345 145.327  0.00  0.00    +0.000 A 
ATOM     34  C   UNL     1     106.806 126.172 146.306  0.00  0.00    +0.000 A 
ATOM     35  C   UNL     1     105.924 125.000 146.074  0.00  0.00    +0.000 A 
ATOM     36  C   UNL     1     106.492 125.415 146.567  0.00  0.00    +0.000 A 
BRANCH  29  38
ATOM     37  O   UNL     1     107.831 130.462 143.615  0.00  0.00    +0.000 OA
ATOM     38  C   UNL     1     106.917 128.282 144.349  0.00  0.00    +0.000 A 
ATOM     39  C   UNL     1     106.483 128.973 144.471  0.00  0.00    +0.000 A 
ATOM     40  C   UNL     1     107.655 128.318 143.982  0.00  0.00    +0.000 A 
ATOM     41  C   UNL     1     106.788 129.700 144.226  0.00  0.00    +0.000 A 
ATOM     42  C   UNL     1     107.960 129.044 143.738  0.00  0.00    +0.000 A 
ATOM     43  C   UNL     1     107.526 129.735 143.860  0.00  0.00    +0.000 A 
ENDBRANCH  29  38
ENDBRANCH  23  28
ENDBRANCH   8  23
TORSDOF 8
ENDMDL
MODEL 4
REMARK VINA RESULT:      -9.6      2.280      3.938
REMARK  Name = 131752460
REMARK  8 active torsions:
REMARK  status: ('A' for Active; 'I' for Inactive)
REMARK    1  A    between atoms: O_2  and  C_16
REMARK    2  A    between atoms: O_2  and  C_21
REMARK    3  A    between atoms: O_3  and  C_18
REMARK    4  A    between atoms: O_3  and  C_20
REMARK    5  A    between atoms: C_17  and  C_19
REMARK    6  A    between atoms: C_21  and  C_27
REMARK    7  A    between atoms: C_22  and  C_26
REMARK    8  A    between atoms: C_32  and  C_37
REMARK                            x       y       z     vdW  Elec       q    Type
REMARK                         _______ _______ _______ _____ _____    ______ ____
ROOT
ATOM      1  O   UNL     1     109.293 130.788 137.095  0.00  0.00    +0.000 OA
ATOM      2  O   UNL     1     108.135 129.157 135.638  0.00  0.00    +0.000 OA
ATOM      3  O   UNL     1     107.724 130.753 135.579  0.00  0.00    +0.000 OA
ATOM      4  C   UNL     1     108.521 129.700 136.124  0.00  0.00    +0.000 C 
ATOM      5  C   UNL     1     108.315 130.498 136.094  0.00  0.00    +0.000 C 
ATOM      6  C   UNL     1     109.113 129.445 136.639  0.00  0.00    +0.000 C 
ATOM      7  C   UNL     1     108.701 131.042 136.580  0.00  0.00    +0.000 C 
ATOM      8  C   UNL     1     109.499 129.989 137.125  0.00  0.00    +0.000 C 
ENDROOT
BRANCH   7  10
ATOM      9  O   UNL     1     109.052 132.400 136.310  0.00  0.00    +0.000 OA
ATOM     10  C   UNL     1     108.496 131.840 136.550  0.00  0.00    +0.000 C 
ENDBRANCH   7  10
BRANCH   6  11
ATOM     11  O   UNL     1     109.319 128.647 136.669  0.00  0.00    +0.000 OA
BRANCH  11  13
ATOM     12  O   UNL     1     109.975 128.769 135.405  0.00  0.00    +0.000 OA
ATOM     13  C   UNL     1     109.758 128.312 136.056  0.00  0.00    +0.000 C 
BRANCH  13  14
ATOM     14  C   UNL     1     109.982 127.518 136.096  0.00  0.00    +0.000 C 
ATOM     15  C   UNL     1     110.689 127.271 135.749  0.00  0.00    +0.000 C 
BRANCH  15  17
ATOM     16  O   UNL     1     111.583 124.098 135.907  0.00  0.00    +0.000 OA
ATOM     17  C   UNL     1     110.912 126.479 135.789  0.00  0.00    +0.000 A 
ATOM     18  C   UNL     1     110.476 125.906 135.385  0.00  0.00    +0.000 A 
ATOM     19  C   UNL     1     111.572 126.257 136.231  0.00  0.00    +0.000 A 
ATOM     20  C   UNL     1     110.699 125.113 135.425  0.00  0.00    +0.000 A 
ATOM     21  C   UNL     1     111.796 125.464 136.271  0.00  0.00    +0.000 A 
ATOM     22  C   UNL     1     111.359 124.892 135.867  0.00  0.00    +0.000 A 
ENDBRANCH  15  17
ENDBRANCH  13  14
ENDBRANCH  11  13
ENDBRANCH   6  11
BRANCH   8  23
ATOM     23  O   UNL     1     110.091 129.735 137.640  0.00  0.00    +0.000 OA
BRANCH  23  28
ATOM     24  O   UNL     1     110.910 130.743 139.394  0.00  0.00    +0.000 OA
ATOM     25  O   UNL     1     108.799 129.676 138.665  0.00  0.00    +0.000 OA
ATOM     26  O   UNL     1     108.180 129.963 139.936  0.00  0.00    +0.000 OA
ATOM     27  O   UNL     1     109.727 131.356 141.985  0.00  0.00    +0.000 OA
ATOM     28  C   UNL     1     110.148 130.061 138.396  0.00  0.00    +0.000 A 
ATOM     29  C   UNL     1     110.852 130.417 138.639  0.00  0.00    +0.000 A 
ATOM     30  C   UNL     1     109.503 130.032 138.908  0.00  0.00    +0.000 A 
ATOM     31  C   UNL     1     109.560 130.358 139.663  0.00  0.00    +0.000 A 
ATOM     32  C   UNL     1     110.263 130.714 139.907  0.00  0.00    +0.000 A 
ATOM     33  C   UNL     1     108.880 130.321 140.188  0.00  0.00    +0.000 A 
ATOM     34  C   UNL     1     110.336 131.057 140.691  0.00  0.00    +0.000 A 
ATOM     35  C   UNL     1     108.934 130.659 140.976  0.00  0.00    +0.000 A 
ATOM     36  C   UNL     1     109.667 131.029 141.230  0.00  0.00    +0.000 A 
BRANCH  29  38
ATOM     37  O   UNL     1     113.437 130.535 136.590  0.00  0.00    +0.000 OA
ATOM     38  C   UNL     1     111.498 130.447 138.127  0.00  0.00    +0.000 A 
ATOM     39  C   UNL     1     111.987 129.788 138.042  0.00  0.00    +0.000 A 
ATOM     40  C   UNL     1     111.655 131.135 137.699  0.00  0.00    +0.000 A 
ATOM     41  C   UNL     1     112.634 129.818 137.529  0.00  0.00    +0.000 A 
ATOM     42  C   UNL     1     112.301 131.165 137.188  0.00  0.00    +0.000 A 
ATOM     43  C   UNL     1     112.790 130.506 137.103  0.00  0.00    +0.000 A 
ENDBRANCH  29  38
ENDBRANCH  23  28
ENDBRANCH   8  23
TORSDOF 8
ENDMDL
MODEL 5
REMARK VINA RESULT:      -9.5      1.980      5.934
REMARK  Name = 131752460
REMARK  8 active torsions:
REMARK  status: ('A' for Active; 'I' for Inactive)
REMARK    1  A    between atoms: O_2  and  C_16
REMARK    2  A    between atoms: O_2  and  C_21
REMARK    3  A    between atoms: O_3  and  C_18
REMARK    4  A    between atoms: O_3  and  C_20
REMARK    5  A    between atoms: C_17  and  C_19
REMARK    6  A    between atoms: C_21  and  C_27
REMARK    7  A    between atoms: C_22  and  C_26
REMARK    8  A    between atoms: C_32  and  C_37
REMARK                            x       y       z     vdW  Elec       q    Type
REMARK                         _______ _______ _______ _____ _____    ______ ____
ROOT
ATOM      1  O   UNL     1     111.037 126.629 138.711  0.00  0.00    +0.000 OA
ATOM      2  O   UNL     1     109.325 128.188 137.835  0.00  0.00    +0.000 OA
ATOM      3  O   UNL     1     108.889 126.676 138.328  0.00  0.00    +0.000 OA
ATOM      4  C   UNL     1     109.896 127.668 138.127  0.00  0.00    +0.000 C 
ATOM      5  C   UNL     1     109.677 126.913 138.374  0.00  0.00    +0.000 C 
ATOM      6  C   UNL     1     110.685 127.906 138.172  0.00  0.00    +0.000 C 
ATOM      7  C   UNL     1     110.248 126.393 138.665  0.00  0.00    +0.000 C 
ATOM      8  C   UNL     1     111.255 127.386 138.464  0.00  0.00    +0.000 C 
ENDROOT
BRANCH   7  10
ATOM      9  O   UNL     1     110.159 125.405 139.694  0.00  0.00    +0.000 OA
ATOM     10  C   UNL     1     110.030 125.637 138.912  0.00  0.00    +0.000 C 
ENDBRANCH   7  10
BRANCH   6  11
ATOM     11  O   UNL     1     110.903 128.662 137.926  0.00  0.00    +0.000 OA
BRANCH  11  13
ATOM     12  O   UNL     1     110.401 129.264 139.121  0.00  0.00    +0.000 OA
ATOM     13  C   UNL     1     110.620 129.324 138.327  0.00  0.00    +0.000 C 
BRANCH  13  14
ATOM     14  C   UNL     1     110.555 130.048 137.936  0.00  0.00    +0.000 C 
ATOM     15  C   UNL     1     110.843 130.736 138.289  0.00  0.00    +0.000 C 
BRANCH  15  17
ATOM     16  O   UNL     1     110.582 133.629 136.722  0.00  0.00    +0.000 OA
ATOM     17  C   UNL     1     110.778 131.458 137.898  0.00  0.00    +0.000 A 
ATOM     18  C   UNL     1     111.344 131.678 137.339  0.00  0.00    +0.000 A 
ATOM     19  C   UNL     1     110.146 131.963 138.065  0.00  0.00    +0.000 A 
ATOM     20  C   UNL     1     111.279 132.401 136.947  0.00  0.00    +0.000 A 
ATOM     21  C   UNL     1     110.081 132.686 137.673  0.00  0.00    +0.000 A 
ATOM     22  C   UNL     1     110.647 132.905 137.114  0.00  0.00    +0.000 A 
ENDBRANCH  15  17
ENDBRANCH  13  14
ENDBRANCH  11  13
ENDBRANCH   6  11
BRANCH   8  23
ATOM     23  O   UNL     1     112.044 127.623 138.510  0.00  0.00    +0.000 OA
BRANCH  23  28
ATOM     24  O   UNL     1     113.821 126.396 138.826  0.00  0.00    +0.000 OA
ATOM     25  O   UNL     1     112.110 126.796 137.083  0.00  0.00    +0.000 OA
ATOM     26  O   UNL     1     112.732 125.831 136.210  0.00  0.00    +0.000 OA
ATOM     27  O   UNL     1     115.132 124.434 137.117  0.00  0.00    +0.000 OA
ATOM     28  C   UNL     1     112.647 127.076 138.377  0.00  0.00    +0.000 A 
ATOM     29  C   UNL     1     113.218 126.943 138.959  0.00  0.00    +0.000 A 
ATOM     30  C   UNL     1     112.680 126.663 137.665  0.00  0.00    +0.000 A 
ATOM     31  C   UNL     1     113.283 126.116 137.532  0.00  0.00    +0.000 A 
ATOM     32  C   UNL     1     113.854 125.982 138.113  0.00  0.00    +0.000 A 
ATOM     33  C   UNL     1     113.307 125.691 136.785  0.00  0.00    +0.000 A 
ATOM     34  C   UNL     1     114.487 125.415 137.988  0.00  0.00    +0.000 A 
ATOM     35  C   UNL     1     113.933 125.120 136.642  0.00  0.00    +0.000 A 
ATOM     36  C   UNL     1     114.527 124.981 137.247  0.00  0.00    +0.000 A 
BRANCH  29  38
ATOM     37  O   UNL     1     113.087 128.597 141.811  0.00  0.00    +0.000 OA
ATOM     38  C   UNL     1     113.185 127.356 139.671  0.00  0.00    +0.000 A 
ATOM     39  C   UNL     1     113.452 128.136 139.709  0.00  0.00    +0.000 A 
ATOM     40  C   UNL     1     112.886 126.990 140.348  0.00  0.00    +0.000 A 
ATOM     41  C   UNL     1     113.419 128.550 140.422  0.00  0.00    +0.000 A 
ATOM     42  C   UNL     1     112.853 127.403 141.061  0.00  0.00    +0.000 A 
ATOM     43  C   UNL     1     113.120 128.183 141.098  0.00  0.00    +0.000 A 
ENDBRANCH  29  38
ENDBRANCH  23  28
ENDBRANCH   8  23
TORSDOF 8
ENDMDL
MODEL 6
REMARK VINA RESULT:      -9.5      1.160      2.940
REMARK  Name = 131752460
REMARK  8 active torsions:
REMARK  status: ('A' for Active; 'I' for Inactive)
REMARK    1  A    between atoms: O_2  and  C_16
REMARK    2  A    between atoms: O_2  and  C_21
REMARK    3  A    between atoms: O_3  and  C_18
REMARK    4  A    between atoms: O_3  and  C_20
REMARK    5  A    between atoms: C_17  and  C_19
REMARK    6  A    between atoms: C_21  and  C_27
REMARK    7  A    between atoms: C_22  and  C_26
REMARK    8  A    between atoms: C_32  and  C_37
REMARK                            x       y       z     vdW  Elec       q    Type
REMARK                         _______ _______ _______ _____ _____    ______ ____
ROOT
ATOM      1  O   UNL     1     111.627 130.485 138.342  0.00  0.00    +0.000 OA
ATOM      2  O   UNL     1     109.885 128.752 138.052  0.00  0.00    +0.000 OA
ATOM      3  O   UNL     1     109.452 130.315 138.350  0.00  0.00    +0.000 OA
ATOM      4  C   UNL     1     110.465 129.329 138.149  0.00  0.00    +0.000 C 
ATOM      5  C   UNL     1     110.249 130.111 138.298  0.00  0.00    +0.000 C 
ATOM      6  C   UNL     1     111.263 129.125 138.097  0.00  0.00    +0.000 C 
ATOM      7  C   UNL     1     110.830 130.689 138.394  0.00  0.00    +0.000 C 
ATOM      8  C   UNL     1     111.844 129.702 138.193  0.00  0.00    +0.000 C 
ENDROOT
BRANCH   7  10
ATOM      9  O   UNL     1     110.885 132.074 138.049  0.00  0.00    +0.000 OA
ATOM     10  C   UNL     1     110.614 131.471 138.543  0.00  0.00    +0.000 C 
ENDBRANCH   7  10
BRANCH   6  11
ATOM     11  O   UNL     1     111.480 128.343 137.948  0.00  0.00    +0.000 OA
BRANCH  11  13
ATOM     12  O   UNL     1     111.129 128.476 136.569  0.00  0.00    +0.000 OA
ATOM     13  C   UNL     1     111.309 128.000 137.218  0.00  0.00    +0.000 C 
BRANCH  13  14
ATOM     14  C   UNL     1     111.318 127.178 137.136  0.00  0.00    +0.000 C 
ATOM     15  C   UNL     1     111.772 126.827 136.543  0.00  0.00    +0.000 C 
BRANCH  15  17
ATOM     16  O   UNL     1     111.807 123.544 136.216  0.00  0.00    +0.000 OA
ATOM     17  C   UNL     1     111.781 126.007 136.461  0.00  0.00    +0.000 A 
ATOM     18  C   UNL     1     111.172 125.626 136.055  0.00  0.00    +0.000 A 
ATOM     19  C   UNL     1     112.398 125.567 136.786  0.00  0.00    +0.000 A 
ATOM     20  C   UNL     1     111.181 124.806 135.973  0.00  0.00    +0.000 A 
ATOM     21  C   UNL     1     112.407 124.745 136.705  0.00  0.00    +0.000 A 
ATOM     22  C   UNL     1     111.798 124.365 136.298  0.00  0.00    +0.000 A 
ENDBRANCH  15  17
ENDBRANCH  13  14
ENDBRANCH  11  13
ENDBRANCH   6  11
BRANCH   8  23
ATOM     23  O   UNL     1     112.642 129.499 138.141  0.00  0.00    +0.000 OA
BRANCH  23  28
ATOM     24  O   UNL     1     114.395 130.629 138.784  0.00  0.00    +0.000 OA
ATOM     25  O   UNL     1     112.456 129.457 139.780  0.00  0.00    +0.000 OA
ATOM     26  O   UNL     1     112.898 129.795 141.111  0.00  0.00    +0.000 OA
ATOM     27  O   UNL     1     115.349 131.349 141.440  0.00  0.00    +0.000 OA
ATOM     28  C   UNL     1     113.195 129.869 138.629  0.00  0.00    +0.000 A 
ATOM     29  C   UNL     1     113.841 130.259 138.296  0.00  0.00    +0.000 A 
ATOM     30  C   UNL     1     113.102 129.847 139.447  0.00  0.00    +0.000 A 
ATOM     31  C   UNL     1     113.655 130.217 139.935  0.00  0.00    +0.000 A 
ATOM     32  C   UNL     1     114.302 130.608 139.604  0.00  0.00    +0.000 A 
ATOM     33  C   UNL     1     113.548 130.188 140.788  0.00  0.00    +0.000 A 
ATOM     34  C   UNL     1     114.885 130.997 140.100  0.00  0.00    +0.000 A 
ATOM     35  C   UNL     1     114.121 130.572 141.300  0.00  0.00    +0.000 A 
ATOM     36  C   UNL     1     114.794 130.979 140.955  0.00  0.00    +0.000 A 
BRANCH  29  38
ATOM     37  O   UNL     1     114.213 130.345 135.018  0.00  0.00    +0.000 OA
ATOM     38  C   UNL     1     113.934 130.281 137.477  0.00  0.00    +0.000 A 
ATOM     39  C   UNL     1     113.750 130.967 137.059  0.00  0.00    +0.000 A 
ATOM     40  C   UNL     1     114.212 129.615 137.075  0.00  0.00    +0.000 A 
ATOM     41  C   UNL     1     113.843 130.989 136.239  0.00  0.00    +0.000 A 
ATOM     42  C   UNL     1     114.305 129.637 136.256  0.00  0.00    +0.000 A 
ATOM     43  C   UNL     1     114.120 130.323 135.838  0.00  0.00    +0.000 A 
ENDBRANCH  29  38
ENDBRANCH  23  28
ENDBRANCH   8  23
TORSDOF 8
ENDMDL
MODEL 7
REMARK VINA RESULT:      -9.5      2.080      3.326
REMARK  Name = 131752460
REMARK  8 active torsions:
REMARK  status: ('A' for Active; 'I' for Inactive)
REMARK    1  A    between atoms: O_2  and  C_16
REMARK    2  A    between atoms: O_2  and  C_21
REMARK    3  A    between atoms: O_3  and  C_18
REMARK    4  A    between atoms: O_3  and  C_20
REMARK    5  A    between atoms: C_17  and  C_19
REMARK    6  A    between atoms: C_21  and  C_27
REMARK    7  A    between atoms: C_22  and  C_26
REMARK    8  A    between atoms: C_32  and  C_37
REMARK                            x       y       z     vdW  Elec       q    Type
REMARK                         _______ _______ _______ _____ _____    ______ ____
ROOT
ATOM      1  O   UNL     1     110.440 129.733 136.426  0.00  0.00    +0.000 OA
ATOM      2  O   UNL     1     110.587 127.508 135.352  0.00  0.00    +0.000 OA
ATOM      3  O   UNL     1     109.554 128.646 134.754  0.00  0.00    +0.000 OA
ATOM      4  C   UNL     1     110.538 128.250 135.710  0.00  0.00    +0.000 C 
ATOM      5  C   UNL     1     110.021 128.818 135.411  0.00  0.00    +0.000 C 
ATOM      6  C   UNL     1     111.006 128.422 136.368  0.00  0.00    +0.000 C 
ATOM      7  C   UNL     1     109.972 129.560 135.769  0.00  0.00    +0.000 C 
ATOM      8  C   UNL     1     110.957 129.163 136.726  0.00  0.00    +0.000 C 
ENDROOT
BRANCH   7  10
ATOM      9  O   UNL     1     109.753 130.844 135.182  0.00  0.00    +0.000 OA
ATOM     10  C   UNL     1     109.456 130.129 135.470  0.00  0.00    +0.000 C 
ENDBRANCH   7  10
BRANCH   6  11
ATOM     11  O   UNL     1     111.522 127.853 136.667  0.00  0.00    +0.000 OA
BRANCH  11  13
ATOM     12  O   UNL     1     112.444 128.098 135.603  0.00  0.00    +0.000 OA
ATOM     13  C   UNL     1     112.189 127.632 136.234  0.00  0.00    +0.000 C 
BRANCH  13  14
ATOM     14  C   UNL     1     112.601 126.945 136.432  0.00  0.00    +0.000 C 
ATOM     15  C   UNL     1     113.377 126.993 136.706  0.00  0.00    +0.000 C 
BRANCH  15  17
ATOM     16  O   UNL     1     115.023 124.244 137.496  0.00  0.00    +0.000 OA
ATOM     17  C   UNL     1     113.788 126.306 136.903  0.00  0.00    +0.000 A 
ATOM     18  C   UNL     1     114.186 125.881 136.319  0.00  0.00    +0.000 A 
ATOM     19  C   UNL     1     113.802 126.044 137.685  0.00  0.00    +0.000 A 
ATOM     20  C   UNL     1     114.597 125.194 136.516  0.00  0.00    +0.000 A 
ATOM     21  C   UNL     1     114.214 125.357 137.883  0.00  0.00    +0.000 A 
ATOM     22  C   UNL     1     114.611 124.932 137.298  0.00  0.00    +0.000 A 
ENDBRANCH  15  17
ENDBRANCH  13  14
ENDBRANCH  11  13
ENDBRANCH   6  11
BRANCH   8  23
ATOM     23  O   UNL     1     111.424 129.337 137.383  0.00  0.00    +0.000 OA
BRANCH  23  28
ATOM     24  O   UNL     1     111.208 130.947 138.840  0.00  0.00    +0.000 OA
ATOM     25  O   UNL     1     110.034 128.881 138.146  0.00  0.00    +0.000 OA
ATOM     26  O   UNL     1     109.012 129.093 139.143  0.00  0.00    +0.000 OA
ATOM     27  O   UNL     1     109.181 131.440 140.873  0.00  0.00    +0.000 OA
ATOM     28  C   UNL     1     111.120 129.798 137.996  0.00  0.00    +0.000 A 
ATOM     29  C   UNL     1     111.512 130.486 138.227  0.00  0.00    +0.000 A 
ATOM     30  C   UNL     1     110.426 129.570 138.377  0.00  0.00    +0.000 A 
ATOM     31  C   UNL     1     110.122 130.031 138.990  0.00  0.00    +0.000 A 
ATOM     32  C   UNL     1     110.513 130.719 139.222  0.00  0.00    +0.000 A 
ATOM     33  C   UNL     1     109.397 129.783 139.381  0.00  0.00    +0.000 A 
ATOM     34  C   UNL     1     110.207 131.208 139.859  0.00  0.00    +0.000 A 
ATOM     35  C   UNL     1     109.076 130.260 140.020  0.00  0.00    +0.000 A 
ATOM     36  C   UNL     1     109.483 130.977 140.261  0.00  0.00    +0.000 A 
BRANCH  29  38
ATOM     37  O   UNL     1     114.292 131.398 136.699  0.00  0.00    +0.000 OA
ATOM     38  C   UNL     1     112.206 130.714 137.845  0.00  0.00    +0.000 A 
ATOM     39  C   UNL     1     112.183 131.290 137.255  0.00  0.00    +0.000 A 
ATOM     40  C   UNL     1     112.925 130.366 138.053  0.00  0.00    +0.000 A 
ATOM     41  C   UNL     1     112.878 131.518 136.872  0.00  0.00    +0.000 A 
ATOM     42  C   UNL     1     113.620 130.594 137.672  0.00  0.00    +0.000 A 
ATOM     43  C   UNL     1     113.596 131.170 137.082  0.00  0.00    +0.000 A 
ENDBRANCH  29  38
ENDBRANCH  23  28
ENDBRANCH   8  23
TORSDOF 8
ENDMDL
MODEL 8
REMARK VINA RESULT:      -9.4      2.538      5.563
REMARK  Name = 131752460
REMARK  8 active torsions:
REMARK  status: ('A' for Active; 'I' for Inactive)
REMARK    1  A    between atoms: O_2  and  C_16
REMARK    2  A    between atoms: O_2  and  C_21
REMARK    3  A    between atoms: O_3  and  C_18
REMARK    4  A    between atoms: O_3  and  C_20
REMARK    5  A    between atoms: C_17  and  C_19
REMARK    6  A    between atoms: C_21  and  C_27
REMARK    7  A    between atoms: C_22  and  C_26
REMARK    8  A    between atoms: C_32  and  C_37
REMARK                            x       y       z     vdW  Elec       q    Type
REMARK                         _______ _______ _______ _____ _____    ______ ____
ROOT
ATOM      1  O   UNL     1     110.980 126.682 138.116  0.00  0.00    +0.000 OA
ATOM      2  O   UNL     1     108.599 126.561 137.449  0.00  0.00    +0.000 OA
ATOM      3  O   UNL     1     109.046 126.171 138.988  0.00  0.00    +0.000 OA
ATOM      4  C   UNL     1     109.393 126.602 137.671  0.00  0.00    +0.000 C 
ATOM      5  C   UNL     1     109.616 126.406 138.441  0.00  0.00    +0.000 C 
ATOM      6  C   UNL     1     109.963 126.837 137.123  0.00  0.00    +0.000 C 
ATOM      7  C   UNL     1     110.409 126.447 138.663  0.00  0.00    +0.000 C 
ATOM      8  C   UNL     1     110.756 126.877 137.345  0.00  0.00    +0.000 C 
ENDROOT
BRANCH   7  10
ATOM      9  O   UNL     1     111.013 126.811 139.906  0.00  0.00    +0.000 OA
ATOM     10  C   UNL     1     110.633 126.252 139.432  0.00  0.00    +0.000 C 
ENDBRANCH   7  10
BRANCH   6  11
ATOM     11  O   UNL     1     109.740 127.032 136.354  0.00  0.00    +0.000 OA
BRANCH  11  13
ATOM     12  O   UNL     1     108.344 127.249 136.140  0.00  0.00    +0.000 OA
ATOM     13  C   UNL     1     109.108 127.547 136.225  0.00  0.00    +0.000 C 
BRANCH  13  14
ATOM     14  C   UNL     1     109.241 128.361 136.182  0.00  0.00    +0.000 C 
ATOM     15  C   UNL     1     108.838 128.815 135.624  0.00  0.00    +0.000 C 
BRANCH  15  17
ATOM     16  O   UNL     1     109.369 132.068 135.453  0.00  0.00    +0.000 OA
ATOM     17  C   UNL     1     108.971 129.628 135.581  0.00  0.00    +0.000 A 
ATOM     18  C   UNL     1     109.338 129.952 134.917  0.00  0.00    +0.000 A 
ATOM     19  C   UNL     1     108.737 130.117 136.203  0.00  0.00    +0.000 A 
ATOM     20  C   UNL     1     109.470 130.765 134.874  0.00  0.00    +0.000 A 
ATOM     21  C   UNL     1     108.870 130.931 136.160  0.00  0.00    +0.000 A 
ATOM     22  C   UNL     1     109.236 131.254 135.496  0.00  0.00    +0.000 A 
ENDBRANCH  15  17
ENDBRANCH  13  14
ENDBRANCH  11  13
ENDBRANCH   6  11
BRANCH   8  23
ATOM     23  O   UNL     1     111.327 127.112 136.798  0.00  0.00    +0.000 OA
BRANCH  23  28
ATOM     24  O   UNL     1     113.498 126.913 136.897  0.00  0.00    +0.000 OA
ATOM     25  O   UNL     1     111.494 125.474 136.692  0.00  0.00    +0.000 OA
ATOM     26  O   UNL     1     112.314 124.288 136.651  0.00  0.00    +0.000 OA
ATOM     27  O   UNL     1     115.217 124.562 136.821  0.00  0.00    +0.000 OA
ATOM     28  C   UNL     1     112.079 126.773 136.813  0.00  0.00    +0.000 A 
ATOM     29  C   UNL     1     112.746 127.252 136.882  0.00  0.00    +0.000 A 
ATOM     30  C   UNL     1     112.162 125.954 136.760  0.00  0.00    +0.000 A 
ATOM     31  C   UNL     1     112.913 125.614 136.775  0.00  0.00    +0.000 A 
ATOM     32  C   UNL     1     113.582 126.093 136.844  0.00  0.00    +0.000 A 
ATOM     33  C   UNL     1     112.988 124.759 136.719  0.00  0.00    +0.000 A 
ATOM     34  C   UNL     1     114.370 125.752 136.860  0.00  0.00    +0.000 A 
ATOM     35  C   UNL     1     113.768 124.400 136.734  0.00  0.00    +0.000 A 
ATOM     36  C   UNL     1     114.464 124.899 136.805  0.00  0.00    +0.000 A 
BRANCH  29  38
ATOM     37  O   UNL     1     112.413 130.529 137.094  0.00  0.00    +0.000 OA
ATOM     38  C   UNL     1     112.663 128.071 136.935  0.00  0.00    +0.000 A 
ATOM     39  C   UNL     1     112.584 128.523 136.249  0.00  0.00    +0.000 A 
ATOM     40  C   UNL     1     112.659 128.439 137.673  0.00  0.00    +0.000 A 
ATOM     41  C   UNL     1     112.501 129.342 136.302  0.00  0.00    +0.000 A 
ATOM     42  C   UNL     1     112.575 129.257 137.727  0.00  0.00    +0.000 A 
ATOM     43  C   UNL     1     112.497 129.709 137.041  0.00  0.00    +0.000 A 
ENDBRANCH  29  38
ENDBRANCH  23  28
ENDBRANCH   8  23
TORSDOF 8
ENDMDL
MODEL 9
REMARK VINA RESULT:      -9.4      1.911      5.132
REMARK  Name = 131752460
REMARK  8 active torsions:
REMARK  status: ('A' for Active; 'I' for Inactive)
REMARK    1  A    between atoms: O_2  and  C_16
REMARK    2  A    between atoms: O_2  and  C_21
REMARK    3  A    between atoms: O_3  and  C_18
REMARK    4  A    between atoms: O_3  and  C_20
REMARK    5  A    between atoms: C_17  and  C_19
REMARK    6  A    between atoms: C_21  and  C_27
REMARK    7  A    between atoms: C_22  and  C_26
REMARK    8  A    between atoms: C_32  and  C_37
REMARK                            x       y       z     vdW  Elec       q    Type
REMARK                         _______ _______ _______ _____ _____    ______ ____
ROOT
ATOM      1  O   UNL     1     112.134 128.387 138.309  0.00  0.00    +0.000 OA
ATOM      2  O   UNL     1     110.392 129.975 139.065  0.00  0.00    +0.000 OA
ATOM      3  O   UNL     1     111.560 129.470 140.114  0.00  0.00    +0.000 OA
ATOM      4  C   UNL     1     110.973 129.446 138.813  0.00  0.00    +0.000 C 
ATOM      5  C   UNL     1     111.556 129.194 139.338  0.00  0.00    +0.000 C 
ATOM      6  C   UNL     1     110.969 129.170 138.035  0.00  0.00    +0.000 C 
ATOM      7  C   UNL     1     112.137 128.664 139.086  0.00  0.00    +0.000 C 
ATOM      8  C   UNL     1     111.549 128.640 137.783  0.00  0.00    +0.000 C 
ENDROOT
BRANCH   7  10
ATOM      9  O   UNL     1     113.515 128.567 139.449  0.00  0.00    +0.000 OA
ATOM     10  C   UNL     1     112.721 128.411 139.610  0.00  0.00    +0.000 C 
ENDBRANCH   7  10
BRANCH   6  11
ATOM     11  O   UNL     1     110.385 129.422 137.510  0.00  0.00    +0.000 OA
BRANCH  11  13
ATOM     12  O   UNL     1     111.029 130.691 137.382  0.00  0.00    +0.000 OA
ATOM     13  C   UNL     1     110.378 130.204 137.247  0.00  0.00    +0.000 C 
BRANCH  13  14
ATOM     14  C   UNL     1     109.717 130.499 136.849  0.00  0.00    +0.000 C 
ATOM     15  C   UNL     1     109.815 131.026 136.222  0.00  0.00    +0.000 C 
BRANCH  15  17
ATOM     16  O   UNL     1     107.175 132.206 134.632  0.00  0.00    +0.000 OA
ATOM     17  C   UNL     1     109.155 131.321 135.825  0.00  0.00    +0.000 A 
ATOM     18  C   UNL     1     108.464 131.491 136.242  0.00  0.00    +0.000 A 
ATOM     19  C   UNL     1     109.186 131.446 135.010  0.00  0.00    +0.000 A 
ATOM     20  C   UNL     1     107.804 131.786 135.845  0.00  0.00    +0.000 A 
ATOM     21  C   UNL     1     108.526 131.741 134.612  0.00  0.00    +0.000 A 
ATOM     22  C   UNL     1     107.835 131.911 135.030  0.00  0.00    +0.000 A 
ENDBRANCH  15  17
ENDBRANCH  13  14
ENDBRANCH  11  13
ENDBRANCH   6  11
BRANCH   8  23
ATOM     23  O   UNL     1     111.546 128.363 137.006  0.00  0.00    +0.000 OA
BRANCH  23  28
ATOM     24  O   UNL     1     112.599 126.652 136.155  0.00  0.00    +0.000 OA
ATOM     25  O   UNL     1     110.753 127.115 137.737  0.00  0.00    +0.000 OA
ATOM     26  O   UNL     1     110.552 125.704 137.961  0.00  0.00    +0.000 OA
ATOM     27  O   UNL     1     112.251 123.787 136.558  0.00  0.00    +0.000 OA
ATOM     28  C   UNL     1     111.765 127.585 136.844  0.00  0.00    +0.000 A 
ATOM     29  C   UNL     1     112.380 127.431 136.317  0.00  0.00    +0.000 A 
ATOM     30  C   UNL     1     111.368 126.961 137.210  0.00  0.00    +0.000 A 
ATOM     31  C   UNL     1     111.587 126.182 137.048  0.00  0.00    +0.000 A 
ATOM     32  C   UNL     1     112.202 126.027 136.521  0.00  0.00    +0.000 A 
ATOM     33  C   UNL     1     111.166 125.540 137.435  0.00  0.00    +0.000 A 
ATOM     34  C   UNL     1     112.440 125.220 136.344  0.00  0.00    +0.000 A 
ATOM     35  C   UNL     1     111.390 124.727 137.270  0.00  0.00    +0.000 A 
ATOM     36  C   UNL     1     112.030 124.565 136.721  0.00  0.00    +0.000 A 
BRANCH  29  38
ATOM     37  O   UNL     1     113.967 129.927 134.854  0.00  0.00    +0.000 OA
ATOM     38  C   UNL     1     112.777 128.054 135.952  0.00  0.00    +0.000 A 
ATOM     39  C   UNL     1     112.431 128.445 135.313  0.00  0.00    +0.000 A 
ATOM     40  C   UNL     1     113.520 128.288 136.224  0.00  0.00    +0.000 A 
ATOM     41  C   UNL     1     112.828 129.070 134.947  0.00  0.00    +0.000 A 
ATOM     42  C   UNL     1     113.916 128.912 135.859  0.00  0.00    +0.000 A 
ATOM     43  C   UNL     1     113.570 129.302 135.220  0.00  0.00    +0.000 A 
ENDBRANCH  29  38
ENDBRANCH  23  28
ENDBRANCH   8  23
TORSDOF 8
ENDMDL
MODEL 10
REMARK VINA RESULT:      -9.4      0.990      2.684
REMARK  Name = 131752460
REMARK  8 active torsions:
REMARK  status: ('A' for Active; 'I' for Inactive)
REMARK    1  A    between atoms: O_2  and  C_16
REMARK    2  A    between atoms: O_2  and  C_21
REMARK    3  A    between atoms: O_3  and  C_18
REMARK    4  A    between atoms: O_3  and  C_20
REMARK    5  A    between atoms: C_17  and  C_19
REMARK    6  A    between atoms: C_21  and  C_27
REMARK    7  A    between atoms: C_22  and  C_26
REMARK    8  A    between atoms: C_32  and  C_37
REMARK                            x       y       z     vdW  Elec       q    Type
REMARK                         _______ _______ _______ _____ _____    ______ ____
ROOT
ATOM      1  O   UNL     1     113.667 129.920 136.608  0.00  0.00    +0.000 OA
ATOM      2  O   UNL     1     113.930 127.809 135.344  0.00  0.00    +0.000 OA
ATOM      3  O   UNL     1     114.739 129.163 134.864  0.00  0.00    +0.000 OA
ATOM      4  C   UNL     1     113.842 128.513 135.765  0.00  0.00    +0.000 C 
ATOM      5  C   UNL     1     114.247 129.190 135.525  0.00  0.00    +0.000 C 
ATOM      6  C   UNL     1     113.350 128.538 136.427  0.00  0.00    +0.000 C 
ATOM      7  C   UNL     1     114.159 129.893 135.946  0.00  0.00    +0.000 C 
ATOM      8  C   UNL     1     113.262 129.242 136.848  0.00  0.00    +0.000 C 
ENDROOT
BRANCH   7  10
ATOM      9  O   UNL     1     115.161 130.884 136.183  0.00  0.00    +0.000 OA
ATOM     10  C   UNL     1     114.564 130.571 135.707  0.00  0.00    +0.000 C 
ENDBRANCH   7  10
BRANCH   6  11
ATOM     11  O   UNL     1     112.945 127.861 136.667  0.00  0.00    +0.000 OA
BRANCH  11  13
ATOM     12  O   UNL     1     114.093 127.292 137.299  0.00  0.00    +0.000 OA
ATOM     13  C   UNL     1     113.365 127.199 136.923  0.00  0.00    +0.000 C 
BRANCH  13  14
ATOM     14  C   UNL     1     113.057 126.442 136.802  0.00  0.00    +0.000 C 
ATOM     15  C   UNL     1     113.041 125.900 137.423  0.00  0.00    +0.000 C 
BRANCH  15  17
ATOM     16  O   UNL     1     111.808 122.877 136.941  0.00  0.00    +0.000 OA
ATOM     17  C   UNL     1     112.733 125.145 137.303  0.00  0.00    +0.000 A 
ATOM     18  C   UNL     1     113.190 124.566 136.932  0.00  0.00    +0.000 A 
ATOM     19  C   UNL     1     111.967 124.967 137.553  0.00  0.00    +0.000 A 
ATOM     20  C   UNL     1     112.882 123.811 136.812  0.00  0.00    +0.000 A 
ATOM     21  C   UNL     1     111.658 124.211 137.432  0.00  0.00    +0.000 A 
ATOM     22  C   UNL     1     112.116 123.633 137.061  0.00  0.00    +0.000 A 
ENDBRANCH  15  17
ENDBRANCH  13  14
ENDBRANCH  11  13
ENDBRANCH   6  11
BRANCH   8  23
ATOM     23  O   UNL     1     112.770 129.269 137.509  0.00  0.00    +0.000 OA
BRANCH  23  28
ATOM     24  O   UNL     1     111.898 131.000 138.512  0.00  0.00    +0.000 OA
ATOM     25  O   UNL     1     111.720 129.802 136.354  0.00  0.00    +0.000 OA
ATOM     26  O   UNL     1     110.717 130.729 135.888  0.00  0.00    +0.000 OA
ATOM     27  O   UNL     1     109.879 132.911 137.640  0.00  0.00    +0.000 OA
ATOM     28  C   UNL     1     112.304 129.935 137.651  0.00  0.00    +0.000 A 
ATOM     29  C   UNL     1     112.364 130.334 138.370  0.00  0.00    +0.000 A 
ATOM     30  C   UNL     1     111.780 130.201 137.073  0.00  0.00    +0.000 A 
ATOM     31  C   UNL     1     111.314 130.867 137.215  0.00  0.00    +0.000 A 
ATOM     32  C   UNL     1     111.373 131.267 137.934  0.00  0.00    +0.000 A 
ATOM     33  C   UNL     1     110.770 131.135 136.605  0.00  0.00    +0.000 A 
ATOM     34  C   UNL     1     110.893 131.962 138.094  0.00  0.00    +0.000 A 
ATOM     35  C   UNL     1     110.283 131.828 136.747  0.00  0.00    +0.000 A 
ATOM     36  C   UNL     1     110.344 132.245 137.496  0.00  0.00    +0.000 A 
BRANCH  29  38
ATOM     37  O   UNL     1     114.465 129.270 140.682  0.00  0.00    +0.000 OA
ATOM     38  C   UNL     1     112.889 130.068 138.948  0.00  0.00    +0.000 A 
ATOM     39  C   UNL     1     113.618 130.442 139.046  0.00  0.00    +0.000 A 
ATOM     40  C   UNL     1     112.685 129.429 139.428  0.00  0.00    +0.000 A 
ATOM     41  C   UNL     1     114.144 130.175 139.624  0.00  0.00    +0.000 A 
ATOM     42  C   UNL     1     113.210 129.163 140.006  0.00  0.00    +0.000 A 
ATOM     43  C   UNL     1     113.939 129.536 140.104  0.00  0.00    +0.000 A 
ENDBRANCH  29  38
ENDBRANCH  23  28
ENDBRANCH   8  23
TORSDOF 8
ENDMDL
