MODEL 1
REMARK VINA RESULT:      -7.8      0.000      0.000
REMARK  Name = 131831464
REMARK  10 active torsions:
REMARK  status: ('A' for Active; 'I' for Inactive)
REMARK    1  A    between atoms: O_2  and  C_18
REMARK    2  A    between atoms: O_2  and  C_20
REMARK    3  A    between atoms: O_11  and  C_32
REMARK    4  A    between atoms: O_12  and  C_33
REMARK    5  A    between atoms: O_13  and  C_34
REMARK    6  A    between atoms: C_17  and  C_19
REMARK    7  A    between atoms: C_21  and  C_23
REMARK    8  A    between atoms: C_23  and  C_24
REMARK    9  A    between atoms: C_24  and  C_26
REMARK   10  A    between atoms: C_26  and  C_29
REMARK                            x       y       z     vdW  Elec       q    Type
REMARK                         _______ _______ _______ _____ _____    ______ ____
ROOT
ATOM      1  O   UNL     1     113.086 129.091 138.060  0.00  0.00    +0.000 OA
ATOM      2  O   UNL     1     110.764 130.391 139.099  0.00  0.00    +0.000 OA
ATOM      3  C   UNL     1     111.034 129.159 137.318  0.00  0.00    +0.000 A 
ATOM      4  C   UNL     1     111.838 128.980 137.373  0.00  0.00    +0.000 A 
ATOM      5  C   UNL     1     110.677 129.630 137.893  0.00  0.00    +0.000 A 
ATOM      6  C   UNL     1     112.283 129.271 138.004  0.00  0.00    +0.000 A 
ATOM      7  C   UNL     1     111.122 129.921 138.524  0.00  0.00    +0.000 A 
ATOM      8  C   UNL     1     111.925 129.741 138.579  0.00  0.00    +0.000 A 
ENDROOT
BRANCH   4  10
ATOM      9  O   UNL     1     112.537 128.858 136.133  0.00  0.00    +0.000 OA
ATOM     10  C   UNL     1     112.196 128.509 136.798  0.00  0.00    +0.000 C 
BRANCH  10  11
ATOM     11  C   UNL     1     112.212 127.688 136.889  0.00  0.00    +0.000 C 
BRANCH  11  12
ATOM     12  C   UNL     1     112.601 127.220 136.331  0.00  0.00    +0.000 C 
BRANCH  12  13
ATOM     13  C   UNL     1     112.536 126.398 136.367  0.00  0.00    +0.000 A 
ATOM     14  C   UNL     1     111.855 126.026 136.086  0.00  0.00    +0.000 A 
ATOM     15  C   UNL     1     113.151 125.949 136.682  0.00  0.00    +0.000 A 
ATOM     16  C   UNL     1     113.086 125.128 136.717  0.00  0.00    +0.000 A 
ATOM     17  C   UNL     1     111.790 125.204 136.121  0.00  0.00    +0.000 A 
ATOM     18  C   UNL     1     112.406 124.755 136.437  0.00  0.00    +0.000 A 
BRANCH  16  19
ATOM     19  O   UNL     1     113.702 124.678 137.033  0.00  0.00    +0.000 OA
ATOM     20  C   UNL     1     114.467 124.988 137.060  0.00  0.00    +0.000 C 
ENDBRANCH  16  19
BRANCH  17  21
ATOM     21  O   UNL     1     111.109 124.832 135.841  0.00  0.00    +0.000 OA
ATOM     22  C   UNL     1     110.568 125.253 135.381  0.00  0.00    +0.000 C 
ENDBRANCH  17  21
BRANCH  18  23
ATOM     23  O   UNL     1     112.341 123.934 136.472  0.00  0.00    +0.000 OA
ATOM     24  C   UNL     1     112.001 123.574 137.132  0.00  0.00    +0.000 C 
ENDBRANCH  18  23
ENDBRANCH  12  13
ENDBRANCH  11  12
ENDBRANCH  10  11
ENDBRANCH   4  10
BRANCH   3  25
ATOM     25  O   UNL     1     110.589 128.868 136.687  0.00  0.00    +0.000 OA
BRANCH  25  34
ATOM     26  O   UNL     1     110.084 130.073 136.111  0.00  0.00    +0.000 OA
ATOM     27  O   UNL     1     107.811 129.096 136.061  0.00  0.00    +0.000 OA
ATOM     28  O   UNL     1     108.063 130.627 135.501  0.00  0.00    +0.000 OA
ATOM     29  O   UNL     1     109.074 128.217 136.654  0.00  0.00    +0.000 OA
ATOM     30  C   UNL     1     108.568 129.422 136.078  0.00  0.00    +0.000 C 
ATOM     31  C   UNL     1     108.695 130.188 135.797  0.00  0.00    +0.000 C 
ATOM     32  C   UNL     1     109.200 128.982 136.374  0.00  0.00    +0.000 C 
ATOM     33  C   UNL     1     109.452 130.514 135.814  0.00  0.00    +0.000 C 
ATOM     34  C   UNL     1     109.958 129.308 136.391  0.00  0.00    +0.000 C 
BRANCH  33  37
ATOM     35  O   UNL     1     109.765 131.403 134.740  0.00  0.00    +0.000 OA
ATOM     36  O   UNL     1     109.517 131.921 136.048  0.00  0.00    +0.000 OA
ATOM     37  C   UNL     1     109.578 131.279 135.534  0.00  0.00    +0.000 C 
ENDBRANCH  33  37
ENDBRANCH  25  34
ENDBRANCH   3  25
TORSDOF 10
ENDMDL
MODEL 2
REMARK VINA RESULT:      -7.7      1.160      1.648
REMARK  Name = 131831464
REMARK  10 active torsions:
REMARK  status: ('A' for Active; 'I' for Inactive)
REMARK    1  A    between atoms: O_2  and  C_18
REMARK    2  A    between atoms: O_2  and  C_20
REMARK    3  A    between atoms: O_11  and  C_32
REMARK    4  A    between atoms: O_12  and  C_33
REMARK    5  A    between atoms: O_13  and  C_34
REMARK    6  A    between atoms: C_17  and  C_19
REMARK    7  A    between atoms: C_21  and  C_23
REMARK    8  A    between atoms: C_23  and  C_24
REMARK    9  A    between atoms: C_24  and  C_26
REMARK   10  A    between atoms: C_26  and  C_29
REMARK                            x       y       z     vdW  Elec       q    Type
REMARK                         _______ _______ _______ _____ _____    ______ ____
ROOT
ATOM      1  O   UNL     1     113.896 129.683 137.055  0.00  0.00    +0.000 OA
ATOM      2  O   UNL     1     112.001 131.754 137.587  0.00  0.00    +0.000 OA
ATOM      3  C   UNL     1     111.871 129.994 136.303  0.00  0.00    +0.000 A 
ATOM      4  C   UNL     1     112.615 129.657 136.425  0.00  0.00    +0.000 A 
ATOM      5  C   UNL     1     111.667 130.692 136.691  0.00  0.00    +0.000 A 
ATOM      6  C   UNL     1     113.153 130.019 136.934  0.00  0.00    +0.000 A 
ATOM      7  C   UNL     1     112.205 131.055 137.200  0.00  0.00    +0.000 A 
ATOM      8  C   UNL     1     112.948 130.719 137.321  0.00  0.00    +0.000 A 
ENDROOT
BRANCH   4  10
ATOM      9  O   UNL     1     113.123 128.984 135.271  0.00  0.00    +0.000 OA
ATOM     10  C   UNL     1     112.819 128.958 136.038  0.00  0.00    +0.000 C 
BRANCH  10  11
ATOM     11  C   UNL     1     112.718 128.232 136.417  0.00  0.00    +0.000 C 
BRANCH  11  12
ATOM     12  C   UNL     1     112.978 127.538 136.054  0.00  0.00    +0.000 C 
BRANCH  12  13
ATOM     13  C   UNL     1     112.764 126.804 136.368  0.00  0.00    +0.000 A 
ATOM     14  C   UNL     1     112.066 126.440 136.124  0.00  0.00    +0.000 A 
ATOM     15  C   UNL     1     113.250 126.436 136.924  0.00  0.00    +0.000 A 
ATOM     16  C   UNL     1     113.037 125.704 137.236  0.00  0.00    +0.000 A 
ATOM     17  C   UNL     1     111.853 125.706 136.437  0.00  0.00    +0.000 A 
ATOM     18  C   UNL     1     112.338 125.338 136.993  0.00  0.00    +0.000 A 
BRANCH  16  19
ATOM     19  O   UNL     1     113.522 125.336 137.793  0.00  0.00    +0.000 OA
ATOM     20  C   UNL     1     114.067 125.781 138.225  0.00  0.00    +0.000 C 
ENDBRANCH  16  19
BRANCH  17  21
ATOM     21  O   UNL     1     111.154 125.342 136.193  0.00  0.00    +0.000 OA
ATOM     22  C   UNL     1     110.567 125.783 135.818  0.00  0.00    +0.000 C 
ENDBRANCH  17  21
BRANCH  18  23
ATOM     23  O   UNL     1     112.125 124.606 137.306  0.00  0.00    +0.000 OA
ATOM     24  C   UNL     1     112.351 123.911 136.922  0.00  0.00    +0.000 C 
ENDBRANCH  18  23
ENDBRANCH  12  13
ENDBRANCH  11  12
ENDBRANCH  10  11
ENDBRANCH   4  10
BRANCH   3  25
ATOM     25  O   UNL     1     111.332 129.631 135.795  0.00  0.00    +0.000 OA
BRANCH  25  34
ATOM     26  O   UNL     1     110.243 129.411 136.692  0.00  0.00    +0.000 OA
ATOM     27  O   UNL     1     108.664 130.259 134.985  0.00  0.00    +0.000 OA
ATOM     28  O   UNL     1     108.101 129.755 136.452  0.00  0.00    +0.000 OA
ATOM     29  O   UNL     1     110.279 130.196 134.657  0.00  0.00    +0.000 OA
ATOM     30  C   UNL     1     109.191 129.976 135.554  0.00  0.00    +0.000 C 
ATOM     31  C   UNL     1     108.909 129.724 136.289  0.00  0.00    +0.000 C 
ATOM     32  C   UNL     1     109.998 129.945 135.390  0.00  0.00    +0.000 C 
ATOM     33  C   UNL     1     109.435 129.441 136.857  0.00  0.00    +0.000 C 
ATOM     34  C   UNL     1     110.525 129.662 135.959  0.00  0.00    +0.000 C 
BRANCH  33  37
ATOM     35  O   UNL     1     108.889 129.743 138.143  0.00  0.00    +0.000 OA
ATOM     36  O   UNL     1     109.137 128.385 137.772  0.00  0.00    +0.000 OA
ATOM     37  C   UNL     1     109.154 129.190 137.590  0.00  0.00    +0.000 C 
ENDBRANCH  33  37
ENDBRANCH  25  34
ENDBRANCH   3  25
TORSDOF 10
ENDMDL
MODEL 3
REMARK VINA RESULT:      -7.6      1.705      5.881
REMARK  Name = 131831464
REMARK  10 active torsions:
REMARK  status: ('A' for Active; 'I' for Inactive)
REMARK    1  A    between atoms: O_2  and  C_18
REMARK    2  A    between atoms: O_2  and  C_20
REMARK    3  A    between atoms: O_11  and  C_32
REMARK    4  A    between atoms: O_12  and  C_33
REMARK    5  A    between atoms: O_13  and  C_34
REMARK    6  A    between atoms: C_17  and  C_19
REMARK    7  A    between atoms: C_21  and  C_23
REMARK    8  A    between atoms: C_23  and  C_24
REMARK    9  A    between atoms: C_24  and  C_26
REMARK   10  A    between atoms: C_26  and  C_29
REMARK                            x       y       z     vdW  Elec       q    Type
REMARK                         _______ _______ _______ _____ _____    ______ ____
ROOT
ATOM      1  O   UNL     1     110.651 127.804 134.612  0.00  0.00    +0.000 OA
ATOM      2  O   UNL     1     110.713 125.222 135.834  0.00  0.00    +0.000 OA
ATOM      3  C   UNL     1     111.880 127.021 136.237  0.00  0.00    +0.000 A 
ATOM      4  C   UNL     1     111.565 127.540 135.678  0.00  0.00    +0.000 A 
ATOM      5  C   UNL     1     111.596 126.249 136.289  0.00  0.00    +0.000 A 
ATOM      6  C   UNL     1     110.966 127.286 135.171  0.00  0.00    +0.000 A 
ATOM      7  C   UNL     1     110.997 125.994 135.782  0.00  0.00    +0.000 A 
ATOM      8  C   UNL     1     110.682 126.512 135.223  0.00  0.00    +0.000 A 
ENDROOT
BRANCH   4  10
ATOM      9  O   UNL     1     112.463 128.493 135.106  0.00  0.00    +0.000 OA
ATOM     10  C   UNL     1     111.849 128.313 135.626  0.00  0.00    +0.000 C 
BRANCH  10  11
ATOM     11  C   UNL     1     111.519 128.906 136.096  0.00  0.00    +0.000 C 
BRANCH  11  12
ATOM     12  C   UNL     1     111.768 129.687 136.009  0.00  0.00    +0.000 C 
BRANCH  12  13
ATOM     13  C   UNL     1     111.537 130.257 136.560  0.00  0.00    +0.000 A 
ATOM     14  C   UNL     1     111.975 130.363 137.251  0.00  0.00    +0.000 A 
ATOM     15  C   UNL     1     110.870 130.721 136.419  0.00  0.00    +0.000 A 
ATOM     16  C   UNL     1     110.639 131.290 136.969  0.00  0.00    +0.000 A 
ATOM     17  C   UNL     1     111.744 130.933 137.802  0.00  0.00    +0.000 A 
ATOM     18  C   UNL     1     111.076 131.396 137.661  0.00  0.00    +0.000 A 
BRANCH  16  19
ATOM     19  O   UNL     1     109.972 131.753 136.828  0.00  0.00    +0.000 OA
ATOM     20  C   UNL     1     109.782 131.981 136.057  0.00  0.00    +0.000 C 
ENDBRANCH  16  19
BRANCH  17  21
ATOM     21  O   UNL     1     112.181 131.038 138.493  0.00  0.00    +0.000 OA
ATOM     22  C   UNL     1     112.903 130.651 138.588  0.00  0.00    +0.000 C 
ENDBRANCH  17  21
BRANCH  18  23
ATOM     23  O   UNL     1     110.846 131.965 138.211  0.00  0.00    +0.000 OA
ATOM     24  C   UNL     1     110.290 131.778 138.791  0.00  0.00    +0.000 C 
ENDBRANCH  18  23
ENDBRANCH  12  13
ENDBRANCH  11  12
ENDBRANCH  10  11
ENDBRANCH   4  10
BRANCH   3  25
ATOM     25  O   UNL     1     112.479 127.275 136.744  0.00  0.00    +0.000 OA
BRANCH  25  34
ATOM     26  O   UNL     1     113.489 126.292 136.515  0.00  0.00    +0.000 OA
ATOM     27  O   UNL     1     113.760 126.000 138.957  0.00  0.00    +0.000 OA
ATOM     28  O   UNL     1     114.680 125.113 137.913  0.00  0.00    +0.000 OA
ATOM     29  O   UNL     1     112.660 127.081 138.373  0.00  0.00    +0.000 OA
ATOM     30  C   UNL     1     113.670 126.097 138.143  0.00  0.00    +0.000 C 
ATOM     31  C   UNL     1     114.130 125.653 137.620  0.00  0.00    +0.000 C 
ATOM     32  C   UNL     1     113.120 126.638 137.850  0.00  0.00    +0.000 C 
ATOM     33  C   UNL     1     114.039 125.751 136.806  0.00  0.00    +0.000 C 
ATOM     34  C   UNL     1     113.029 126.735 137.036  0.00  0.00    +0.000 C 
BRANCH  33  37
ATOM     35  O   UNL     1     114.264 124.546 136.072  0.00  0.00    +0.000 OA
ATOM     36  O   UNL     1     115.195 125.626 135.976  0.00  0.00    +0.000 OA
ATOM     37  C   UNL     1     114.499 125.307 136.285  0.00  0.00    +0.000 C 
ENDBRANCH  33  37
ENDBRANCH  25  34
ENDBRANCH   3  25
TORSDOF 10
ENDMDL
MODEL 4
REMARK VINA RESULT:      -7.6      1.435      5.600
REMARK  Name = 131831464
REMARK  10 active torsions:
REMARK  status: ('A' for Active; 'I' for Inactive)
REMARK    1  A    between atoms: O_2  and  C_18
REMARK    2  A    between atoms: O_2  and  C_20
REMARK    3  A    between atoms: O_11  and  C_32
REMARK    4  A    between atoms: O_12  and  C_33
REMARK    5  A    between atoms: O_13  and  C_34
REMARK    6  A    between atoms: C_17  and  C_19
REMARK    7  A    between atoms: C_21  and  C_23
REMARK    8  A    between atoms: C_23  and  C_24
REMARK    9  A    between atoms: C_24  and  C_26
REMARK   10  A    between atoms: C_26  and  C_29
REMARK                            x       y       z     vdW  Elec       q    Type
REMARK                         _______ _______ _______ _____ _____    ______ ____
ROOT
ATOM      1  O   UNL     1     113.683 130.674 136.474  0.00  0.00    +0.000 OA
ATOM      2  O   UNL     1     114.855 128.439 135.135  0.00  0.00    +0.000 OA
ATOM      3  C   UNL     1     112.989 128.617 136.253  0.00  0.00    +0.000 A 
ATOM      4  C   UNL     1     113.016 129.411 136.475  0.00  0.00    +0.000 A 
ATOM      5  C   UNL     1     113.602 128.293 135.806  0.00  0.00    +0.000 A 
ATOM      6  C   UNL     1     113.656 129.881 136.251  0.00  0.00    +0.000 A 
ATOM      7  C   UNL     1     114.243 128.763 135.582  0.00  0.00    +0.000 A 
ATOM      8  C   UNL     1     114.269 129.556 135.804  0.00  0.00    +0.000 A 
ENDROOT
BRANCH   4  10
ATOM      9  O   UNL     1     112.419 129.681 137.745  0.00  0.00    +0.000 OA
ATOM     10  C   UNL     1     112.403 129.735 136.922  0.00  0.00    +0.000 C 
BRANCH  10  11
ATOM     11  C   UNL     1     111.773 130.113 136.545  0.00  0.00    +0.000 C 
BRANCH  11  12
ATOM     12  C   UNL     1     111.157 130.431 136.991  0.00  0.00    +0.000 C 
BRANCH  12  13
ATOM     13  C   UNL     1     110.527 130.809 136.614  0.00  0.00    +0.000 A 
ATOM     14  C   UNL     1     109.920 130.363 136.279  0.00  0.00    +0.000 A 
ATOM     15  C   UNL     1     110.507 131.633 136.571  0.00  0.00    +0.000 A 
ATOM     16  C   UNL     1     109.878 132.010 136.194  0.00  0.00    +0.000 A 
ATOM     17  C   UNL     1     109.290 130.741 135.902  0.00  0.00    +0.000 A 
ATOM     18  C   UNL     1     109.269 131.565 135.859  0.00  0.00    +0.000 A 
BRANCH  16  19
ATOM     19  O   UNL     1     109.857 132.834 136.152  0.00  0.00    +0.000 OA
ATOM     20  C   UNL     1     110.365 133.285 136.622  0.00  0.00    +0.000 C 
ENDBRANCH  16  19
BRANCH  17  21
ATOM     21  O   UNL     1     108.683 130.295 135.567  0.00  0.00    +0.000 OA
ATOM     22  C   UNL     1     108.564 129.515 135.806  0.00  0.00    +0.000 C 
ENDBRANCH  17  21
BRANCH  18  23
ATOM     23  O   UNL     1     108.641 131.942 135.482  0.00  0.00    +0.000 OA
ATOM     24  C   UNL     1     108.683 132.109 134.675  0.00  0.00    +0.000 C 
ENDBRANCH  18  23
ENDBRANCH  12  13
ENDBRANCH  11  12
ENDBRANCH  10  11
ENDBRANCH   4  10
BRANCH   3  25
ATOM     25  O   UNL     1     112.349 128.147 136.477  0.00  0.00    +0.000 OA
BRANCH  25  34
ATOM     26  O   UNL     1     112.989 127.087 137.188  0.00  0.00    +0.000 OA
ATOM     27  O   UNL     1     111.715 125.429 135.863  0.00  0.00    +0.000 OA
ATOM     28  O   UNL     1     112.779 124.921 137.017  0.00  0.00    +0.000 OA
ATOM     29  O   UNL     1     111.500 127.042 135.593  0.00  0.00    +0.000 OA
ATOM     30  C   UNL     1     112.139 125.982 136.305  0.00  0.00    +0.000 C 
ATOM     31  C   UNL     1     112.672 125.728 136.882  0.00  0.00    +0.000 C 
ATOM     32  C   UNL     1     112.032 126.788 136.170  0.00  0.00    +0.000 C 
ATOM     33  C   UNL     1     113.097 126.280 137.324  0.00  0.00    +0.000 C 
ATOM     34  C   UNL     1     112.457 127.341 136.612  0.00  0.00    +0.000 C 
BRANCH  33  37
ATOM     35  O   UNL     1     114.359 125.713 137.679  0.00  0.00    +0.000 OA
ATOM     36  O   UNL     1     113.430 126.085 138.699  0.00  0.00    +0.000 OA
ATOM     37  C   UNL     1     113.628 126.026 137.900  0.00  0.00    +0.000 C 
ENDBRANCH  33  37
ENDBRANCH  25  34
ENDBRANCH   3  25
TORSDOF 10
ENDMDL
MODEL 5
REMARK VINA RESULT:      -7.5      1.809      3.952
REMARK  Name = 131831464
REMARK  10 active torsions:
REMARK  status: ('A' for Active; 'I' for Inactive)
REMARK    1  A    between atoms: O_2  and  C_18
REMARK    2  A    between atoms: O_2  and  C_20
REMARK    3  A    between atoms: O_11  and  C_32
REMARK    4  A    between atoms: O_12  and  C_33
REMARK    5  A    between atoms: O_13  and  C_34
REMARK    6  A    between atoms: C_17  and  C_19
REMARK    7  A    between atoms: C_21  and  C_23
REMARK    8  A    between atoms: C_23  and  C_24
REMARK    9  A    between atoms: C_24  and  C_26
REMARK   10  A    between atoms: C_26  and  C_29
REMARK                            x       y       z     vdW  Elec       q    Type
REMARK                         _______ _______ _______ _____ _____    ______ ____
ROOT
ATOM      1  O   UNL     1     112.055 129.345 135.958  0.00  0.00    +0.000 OA
ATOM      2  O   UNL     1     110.973 130.711 138.222  0.00  0.00    +0.000 OA
ATOM      3  C   UNL     1     112.372 129.041 138.096  0.00  0.00    +0.000 A 
ATOM      4  C   UNL     1     112.428 128.946 137.278  0.00  0.00    +0.000 A 
ATOM      5  C   UNL     1     111.887 129.629 138.410  0.00  0.00    +0.000 A 
ATOM      6  C   UNL     1     111.999 129.440 136.775  0.00  0.00    +0.000 A 
ATOM      7  C   UNL     1     111.458 130.123 137.907  0.00  0.00    +0.000 A 
ATOM      8  C   UNL     1     111.514 130.028 137.090  0.00  0.00    +0.000 A 
ENDROOT
BRANCH   4  10
ATOM      9  O   UNL     1     113.684 128.539 136.730  0.00  0.00    +0.000 OA
ATOM     10  C   UNL     1     112.914 128.358 136.964  0.00  0.00    +0.000 C 
BRANCH  10  11
ATOM     11  C   UNL     1     112.628 127.587 136.883  0.00  0.00    +0.000 C 
BRANCH  11  12
ATOM     12  C   UNL     1     113.039 127.042 136.421  0.00  0.00    +0.000 C 
BRANCH  12  13
ATOM     13  C   UNL     1     112.844 126.240 136.457  0.00  0.00    +0.000 A 
ATOM     14  C   UNL     1     113.386 125.698 136.761  0.00  0.00    +0.000 A 
ATOM     15  C   UNL     1     112.107 125.983 136.190  0.00  0.00    +0.000 A 
ATOM     16  C   UNL     1     111.912 125.183 136.226  0.00  0.00    +0.000 A 
ATOM     17  C   UNL     1     113.190 124.896 136.797  0.00  0.00    +0.000 A 
ATOM     18  C   UNL     1     112.453 124.639 136.530  0.00  0.00    +0.000 A 
BRANCH  16  19
ATOM     19  O   UNL     1     111.175 124.925 135.959  0.00  0.00    +0.000 OA
ATOM     20  C   UNL     1     110.759 125.371 135.402  0.00  0.00    +0.000 C 
ENDBRANCH  16  19
BRANCH  17  21
ATOM     21  O   UNL     1     113.732 124.354 137.101  0.00  0.00    +0.000 OA
ATOM     22  C   UNL     1     114.506 124.590 137.264  0.00  0.00    +0.000 C 
ENDBRANCH  17  21
BRANCH  18  23
ATOM     23  O   UNL     1     112.259 123.839 136.566  0.00  0.00    +0.000 OA
ATOM     24  C   UNL     1     111.886 123.534 137.237  0.00  0.00    +0.000 C 
ENDBRANCH  18  23
ENDBRANCH  12  13
ENDBRANCH  11  12
ENDBRANCH  10  11
ENDBRANCH   4  10
BRANCH   3  25
ATOM     25  O   UNL     1     112.801 128.548 138.599  0.00  0.00    +0.000 OA
BRANCH  25  34
ATOM     26  O   UNL     1     113.583 129.479 139.347  0.00  0.00    +0.000 OA
ATOM     27  O   UNL     1     112.863 128.394 141.452  0.00  0.00    +0.000 OA
ATOM     28  O   UNL     1     113.885 129.688 141.499  0.00  0.00    +0.000 OA
ATOM     29  O   UNL     1     112.321 127.824 140.002  0.00  0.00    +0.000 OA
ATOM     30  C   UNL     1     113.103 128.756 140.750  0.00  0.00    +0.000 C 
ATOM     31  C   UNL     1     113.615 129.404 140.773  0.00  0.00    +0.000 C 
ATOM     32  C   UNL     1     112.832 128.471 140.025  0.00  0.00    +0.000 C 
ATOM     33  C   UNL     1     113.855 129.765 140.072  0.00  0.00    +0.000 C 
ATOM     34  C   UNL     1     113.072 128.833 139.323  0.00  0.00    +0.000 C 
BRANCH  33  37
ATOM     35  O   UNL     1     114.067 131.170 140.223  0.00  0.00    +0.000 OA
ATOM     36  O   UNL     1     115.177 130.301 139.993  0.00  0.00    +0.000 OA
ATOM     37  C   UNL     1     114.366 130.412 140.096  0.00  0.00    +0.000 C 
ENDBRANCH  33  37
ENDBRANCH  25  34
ENDBRANCH   3  25
TORSDOF 10
ENDMDL
MODEL 6
REMARK VINA RESULT:      -7.5      1.390      5.351
REMARK  Name = 131831464
REMARK  10 active torsions:
REMARK  status: ('A' for Active; 'I' for Inactive)
REMARK    1  A    between atoms: O_2  and  C_18
REMARK    2  A    between atoms: O_2  and  C_20
REMARK    3  A    between atoms: O_11  and  C_32
REMARK    4  A    between atoms: O_12  and  C_33
REMARK    5  A    between atoms: O_13  and  C_34
REMARK    6  A    between atoms: C_17  and  C_19
REMARK    7  A    between atoms: C_21  and  C_23
REMARK    8  A    between atoms: C_23  and  C_24
REMARK    9  A    between atoms: C_24  and  C_26
REMARK   10  A    between atoms: C_26  and  C_29
REMARK                            x       y       z     vdW  Elec       q    Type
REMARK                         _______ _______ _______ _____ _____    ______ ____
ROOT
ATOM      1  O   UNL     1     113.279 129.225 138.829  0.00  0.00    +0.000 OA
ATOM      2  O   UNL     1     113.006 126.613 139.955  0.00  0.00    +0.000 OA
ATOM      3  C   UNL     1     112.739 127.321 137.909  0.00  0.00    +0.000 A 
ATOM      4  C   UNL     1     112.909 128.124 137.998  0.00  0.00    +0.000 A 
ATOM      5  C   UNL     1     112.772 126.818 138.561  0.00  0.00    +0.000 A 
ATOM      6  C   UNL     1     113.110 128.423 138.740  0.00  0.00    +0.000 A 
ATOM      7  C   UNL     1     112.974 127.116 139.303  0.00  0.00    +0.000 A 
ATOM      8  C   UNL     1     113.143 127.918 139.393  0.00  0.00    +0.000 A 
ENDROOT
BRANCH   4  10
ATOM      9  O   UNL     1     113.549 128.749 136.884  0.00  0.00    +0.000 OA
ATOM     10  C   UNL     1     112.876 128.627 137.345  0.00  0.00    +0.000 C 
BRANCH  10  11
ATOM     11  C   UNL     1     112.169 129.008 137.153  0.00  0.00    +0.000 C 
BRANCH  11  12
ATOM     12  C   UNL     1     112.144 129.534 136.518  0.00  0.00    +0.000 C 
BRANCH  12  13
ATOM     13  C   UNL     1     111.426 129.873 136.293  0.00  0.00    +0.000 A 
ATOM     14  C   UNL     1     110.925 129.472 135.774  0.00  0.00    +0.000 A 
ATOM     15  C   UNL     1     111.209 130.613 136.586  0.00  0.00    +0.000 A 
ATOM     16  C   UNL     1     110.492 130.952 136.361  0.00  0.00    +0.000 A 
ATOM     17  C   UNL     1     110.207 129.812 135.549  0.00  0.00    +0.000 A 
ATOM     18  C   UNL     1     109.991 130.552 135.842  0.00  0.00    +0.000 A 
BRANCH  16  19
ATOM     19  O   UNL     1     110.276 131.692 136.654  0.00  0.00    +0.000 OA
ATOM     20  C   UNL     1     110.846 132.188 136.986  0.00  0.00    +0.000 C 
ENDBRANCH  16  19
BRANCH  17  21
ATOM     21  O   UNL     1     109.707 129.410 135.030  0.00  0.00    +0.000 OA
ATOM     22  C   UNL     1     109.984 128.755 134.613  0.00  0.00    +0.000 C 
ENDBRANCH  17  21
BRANCH  18  23
ATOM     23  O   UNL     1     109.274 130.891 135.617  0.00  0.00    +0.000 OA
ATOM     24  C   UNL     1     108.590 130.738 136.052  0.00  0.00    +0.000 C 
ENDBRANCH  18  23
ENDBRANCH  12  13
ENDBRANCH  11  12
ENDBRANCH  10  11
ENDBRANCH   4  10
BRANCH   3  25
ATOM     25  O   UNL     1     112.538 127.022 137.166  0.00  0.00    +0.000 OA
BRANCH  25  34
ATOM     26  O   UNL     1     113.550 126.034 136.972  0.00  0.00    +0.000 OA
ATOM     27  O   UNL     1     111.822 124.394 136.303  0.00  0.00    +0.000 OA
ATOM     28  O   UNL     1     113.412 123.952 136.332  0.00  0.00    +0.000 OA
ATOM     29  O   UNL     1     111.386 125.928 136.720  0.00  0.00    +0.000 OA
ATOM     30  C   UNL     1     112.398 124.940 136.526  0.00  0.00    +0.000 C 
ATOM     31  C   UNL     1     113.194 124.719 136.540  0.00  0.00    +0.000 C 
ATOM     32  C   UNL     1     112.180 125.708 136.735  0.00  0.00    +0.000 C 
ATOM     33  C   UNL     1     113.770 125.266 136.764  0.00  0.00    +0.000 C 
ATOM     34  C   UNL     1     112.756 126.255 136.958  0.00  0.00    +0.000 C 
BRANCH  33  37
ATOM     35  O   UNL     1     115.056 125.230 136.142  0.00  0.00    +0.000 OA
ATOM     36  O   UNL     1     114.867 124.639 137.429  0.00  0.00    +0.000 OA
ATOM     37  C   UNL     1     114.564 125.045 136.778  0.00  0.00    +0.000 C 
ENDBRANCH  33  37
ENDBRANCH  25  34
ENDBRANCH   3  25
TORSDOF 10
ENDMDL
MODEL 7
REMARK VINA RESULT:      -7.5      1.612      1.852
REMARK  Name = 131831464
REMARK  10 active torsions:
REMARK  status: ('A' for Active; 'I' for Inactive)
REMARK    1  A    between atoms: O_2  and  C_18
REMARK    2  A    between atoms: O_2  and  C_20
REMARK    3  A    between atoms: O_11  and  C_32
REMARK    4  A    between atoms: O_12  and  C_33
REMARK    5  A    between atoms: O_13  and  C_34
REMARK    6  A    between atoms: C_17  and  C_19
REMARK    7  A    between atoms: C_21  and  C_23
REMARK    8  A    between atoms: C_23  and  C_24
REMARK    9  A    between atoms: C_24  and  C_26
REMARK   10  A    between atoms: C_26  and  C_29
REMARK                            x       y       z     vdW  Elec       q    Type
REMARK                         _______ _______ _______ _____ _____    ______ ____
ROOT
ATOM      1  O   UNL     1     113.762 129.465 137.375  0.00  0.00    +0.000 OA
ATOM      2  O   UNL     1     112.880 130.702 139.794  0.00  0.00    +0.000 OA
ATOM      3  C   UNL     1     111.760 129.698 138.213  0.00  0.00    +0.000 A 
ATOM      4  C   UNL     1     112.372 129.485 137.700  0.00  0.00    +0.000 A 
ATOM      5  C   UNL     1     111.931 130.104 138.910  0.00  0.00    +0.000 A 
ATOM      6  C   UNL     1     113.152 129.678 137.886  0.00  0.00    +0.000 A 
ATOM      7  C   UNL     1     112.711 130.297 139.096  0.00  0.00    +0.000 A 
ATOM      8  C   UNL     1     113.321 130.084 138.585  0.00  0.00    +0.000 A 
ENDROOT
BRANCH   4  10
ATOM      9  O   UNL     1     112.037 129.498 136.311  0.00  0.00    +0.000 OA
ATOM     10  C   UNL     1     112.202 129.079 137.003  0.00  0.00    +0.000 C 
BRANCH  10  11
ATOM     11  C   UNL     1     112.196 128.254 136.997  0.00  0.00    +0.000 C 
BRANCH  11  12
ATOM     12  C   UNL     1     112.144 127.847 136.281  0.00  0.00    +0.000 C 
BRANCH  12  13
ATOM     13  C   UNL     1     112.094 127.023 136.278  0.00  0.00    +0.000 A 
ATOM     14  C   UNL     1     111.385 126.654 136.075  0.00  0.00    +0.000 A 
ATOM     15  C   UNL     1     112.754 126.569 136.477  0.00  0.00    +0.000 A 
ATOM     16  C   UNL     1     112.704 125.746 136.473  0.00  0.00    +0.000 A 
ATOM     17  C   UNL     1     111.336 125.830 136.072  0.00  0.00    +0.000 A 
ATOM     18  C   UNL     1     111.995 125.376 136.271  0.00  0.00    +0.000 A 
BRANCH  16  19
ATOM     19  O   UNL     1     113.364 125.293 136.673  0.00  0.00    +0.000 OA
ATOM     20  C   UNL     1     114.124 125.592 136.549  0.00  0.00    +0.000 C 
ENDBRANCH  16  19
BRANCH  17  21
ATOM     21  O   UNL     1     110.626 125.461 135.870  0.00  0.00    +0.000 OA
ATOM     22  C   UNL     1     110.105 125.827 135.345  0.00  0.00    +0.000 C 
ENDBRANCH  17  21
BRANCH  18  23
ATOM     23  O   UNL     1     111.945 124.553 136.268  0.00  0.00    +0.000 OA
ATOM     24  C   UNL     1     111.753 124.148 136.960  0.00  0.00    +0.000 C 
ENDBRANCH  18  23
ENDBRANCH  12  13
ENDBRANCH  11  12
ENDBRANCH  10  11
ENDBRANCH   4  10
BRANCH   3  25
ATOM     25  O   UNL     1     110.980 129.506 138.027  0.00  0.00    +0.000 OA
BRANCH  25  34
ATOM     26  O   UNL     1     110.364 130.793 138.058  0.00  0.00    +0.000 OA
ATOM     27  O   UNL     1     108.520 129.877 139.432  0.00  0.00    +0.000 OA
ATOM     28  O   UNL     1     108.517 131.471 139.006  0.00  0.00    +0.000 OA
ATOM     29  O   UNL     1     109.751 128.895 138.942  0.00  0.00    +0.000 OA
ATOM     30  C   UNL     1     109.134 130.182 138.974  0.00  0.00    +0.000 C 
ATOM     31  C   UNL     1     109.133 130.980 138.761  0.00  0.00    +0.000 C 
ATOM     32  C   UNL     1     109.750 129.691 138.729  0.00  0.00    +0.000 C 
ATOM     33  C   UNL     1     109.748 131.285 138.303  0.00  0.00    +0.000 C 
ATOM     34  C   UNL     1     110.365 129.997 138.271  0.00  0.00    +0.000 C 
BRANCH  33  37
ATOM     35  O   UNL     1     110.013 132.653 138.624  0.00  0.00    +0.000 OA
ATOM     36  O   UNL     1     109.479 132.309 137.344  0.00  0.00    +0.000 OA
ATOM     37  C   UNL     1     109.747 132.082 138.090  0.00  0.00    +0.000 C 
ENDBRANCH  33  37
ENDBRANCH  25  34
ENDBRANCH   3  25
TORSDOF 10
ENDMDL
MODEL 8
REMARK VINA RESULT:      -7.5      1.601      3.703
REMARK  Name = 131831464
REMARK  10 active torsions:
REMARK  status: ('A' for Active; 'I' for Inactive)
REMARK    1  A    between atoms: O_2  and  C_18
REMARK    2  A    between atoms: O_2  and  C_20
REMARK    3  A    between atoms: O_11  and  C_32
REMARK    4  A    between atoms: O_12  and  C_33
REMARK    5  A    between atoms: O_13  and  C_34
REMARK    6  A    between atoms: C_17  and  C_19
REMARK    7  A    between atoms: C_21  and  C_23
REMARK    8  A    between atoms: C_23  and  C_24
REMARK    9  A    between atoms: C_24  and  C_26
REMARK   10  A    between atoms: C_26  and  C_29
REMARK                            x       y       z     vdW  Elec       q    Type
REMARK                         _______ _______ _______ _____ _____    ______ ____
ROOT
ATOM      1  O   UNL     1     110.989 129.346 135.193  0.00  0.00    +0.000 OA
ATOM      2  O   UNL     1     110.822 131.630 136.903  0.00  0.00    +0.000 OA
ATOM      3  C   UNL     1     112.280 130.008 136.825  0.00  0.00    +0.000 A 
ATOM      4  C   UNL     1     111.978 129.557 136.202  0.00  0.00    +0.000 A 
ATOM      5  C   UNL     1     111.894 130.699 137.057  0.00  0.00    +0.000 A 
ATOM      6  C   UNL     1     111.291 129.797 135.814  0.00  0.00    +0.000 A 
ATOM      7  C   UNL     1     111.207 130.939 136.669  0.00  0.00    +0.000 A 
ATOM      8  C   UNL     1     110.906 130.488 136.048  0.00  0.00    +0.000 A 
ENDROOT
BRANCH   4  10
ATOM      9  O   UNL     1     113.012 128.906 135.460  0.00  0.00    +0.000 OA
ATOM     10  C   UNL     1     112.364 128.866 135.970  0.00  0.00    +0.000 C 
BRANCH  10  11
ATOM     11  C   UNL     1     112.101 128.134 136.246  0.00  0.00    +0.000 C 
BRANCH  11  12
ATOM     12  C   UNL     1     112.472 127.441 135.996  0.00  0.00    +0.000 C 
BRANCH  12  13
ATOM     13  C   UNL     1     112.245 126.714 136.313  0.00  0.00    +0.000 A 
ATOM     14  C   UNL     1     112.591 126.442 137.010  0.00  0.00    +0.000 A 
ATOM     15  C   UNL     1     111.671 126.259 135.932  0.00  0.00    +0.000 A 
ATOM     16  C   UNL     1     111.445 125.532 136.249  0.00  0.00    +0.000 A 
ATOM     17  C   UNL     1     112.364 125.714 137.327  0.00  0.00    +0.000 A 
ATOM     18  C   UNL     1     111.791 125.259 136.947  0.00  0.00    +0.000 A 
BRANCH  16  19
ATOM     19  O   UNL     1     110.871 125.077 135.868  0.00  0.00    +0.000 OA
ATOM     20  C   UNL     1     110.399 125.415 135.281  0.00  0.00    +0.000 C 
ENDBRANCH  16  19
BRANCH  17  21
ATOM     21  O   UNL     1     112.711 125.443 138.025  0.00  0.00    +0.000 OA
ATOM     22  C   UNL     1     113.178 125.949 138.478  0.00  0.00    +0.000 C 
ENDBRANCH  17  21
BRANCH  18  23
ATOM     23  O   UNL     1     111.564 124.533 137.264  0.00  0.00    +0.000 OA
ATOM     24  C   UNL     1     111.945 123.841 137.026  0.00  0.00    +0.000 C 
ENDBRANCH  18  23
ENDBRANCH  12  13
ENDBRANCH  11  12
ENDBRANCH  10  11
ENDBRANCH   4  10
BRANCH   3  25
ATOM     25  O   UNL     1     112.967 129.767 137.213  0.00  0.00    +0.000 OA
BRANCH  25  34
ATOM     26  O   UNL     1     112.515 129.678 138.564  0.00  0.00    +0.000 OA
ATOM     27  O   UNL     1     114.489 130.972 139.310  0.00  0.00    +0.000 OA
ATOM     28  O   UNL     1     113.378 130.451 140.414  0.00  0.00    +0.000 OA
ATOM     29  O   UNL     1     114.283 130.630 137.710  0.00  0.00    +0.000 OA
ATOM     30  C   UNL     1     113.831 130.541 139.062  0.00  0.00    +0.000 C 
ATOM     31  C   UNL     1     113.275 130.280 139.614  0.00  0.00    +0.000 C 
ATOM     32  C   UNL     1     113.728 130.369 138.261  0.00  0.00    +0.000 C 
ATOM     33  C   UNL     1     112.617 129.849 139.365  0.00  0.00    +0.000 C 
ATOM     34  C   UNL     1     113.070 129.938 138.013  0.00  0.00    +0.000 C 
BRANCH  33  37
ATOM     35  O   UNL     1     112.078 128.808 140.182  0.00  0.00    +0.000 OA
ATOM     36  O   UNL     1     111.491 130.110 140.204  0.00  0.00    +0.000 OA
ATOM     37  C   UNL     1     112.062 129.589 139.917  0.00  0.00    +0.000 C 
ENDBRANCH  33  37
ENDBRANCH  25  34
ENDBRANCH   3  25
TORSDOF 10
ENDMDL
MODEL 9
REMARK VINA RESULT:      -7.5      1.191      1.881
REMARK  Name = 131831464
REMARK  10 active torsions:
REMARK  status: ('A' for Active; 'I' for Inactive)
REMARK    1  A    between atoms: O_2  and  C_18
REMARK    2  A    between atoms: O_2  and  C_20
REMARK    3  A    between atoms: O_11  and  C_32
REMARK    4  A    between atoms: O_12  and  C_33
REMARK    5  A    between atoms: O_13  and  C_34
REMARK    6  A    between atoms: C_17  and  C_19
REMARK    7  A    between atoms: C_21  and  C_23
REMARK    8  A    between atoms: C_23  and  C_24
REMARK    9  A    between atoms: C_24  and  C_26
REMARK   10  A    between atoms: C_26  and  C_29
REMARK                            x       y       z     vdW  Elec       q    Type
REMARK                         _______ _______ _______ _____ _____    ______ ____
ROOT
ATOM      1  O   UNL     1     113.985 129.354 136.726  0.00  0.00    +0.000 OA
ATOM      2  O   UNL     1     112.988 130.875 138.930  0.00  0.00    +0.000 OA
ATOM      3  C   UNL     1     111.975 129.510 137.562  0.00  0.00    +0.000 A 
ATOM      4  C   UNL     1     112.603 129.280 137.077  0.00  0.00    +0.000 A 
ATOM      5  C   UNL     1     112.104 130.041 138.179  0.00  0.00    +0.000 A 
ATOM      6  C   UNL     1     113.359 129.583 137.210  0.00  0.00    +0.000 A 
ATOM      7  C   UNL     1     112.860 130.343 138.313  0.00  0.00    +0.000 A 
ATOM      8  C   UNL     1     113.486 130.115 137.828  0.00  0.00    +0.000 A 
ENDROOT
BRANCH   4  10
ATOM      9  O   UNL     1     112.322 129.029 135.698  0.00  0.00    +0.000 OA
ATOM     10  C   UNL     1     112.473 128.749 136.460  0.00  0.00    +0.000 C 
BRANCH  10  11
ATOM     11  C   UNL     1     112.495 127.936 136.604  0.00  0.00    +0.000 C 
BRANCH  11  12
ATOM     12  C   UNL     1     112.501 127.406 135.972  0.00  0.00    +0.000 C 
BRANCH  12  13
ATOM     13  C   UNL     1     112.386 126.600 136.110  0.00  0.00    +0.000 A 
ATOM     14  C   UNL     1     113.003 126.142 136.412  0.00  0.00    +0.000 A 
ATOM     15  C   UNL     1     111.656 126.253 135.945  0.00  0.00    +0.000 A 
ATOM     16  C   UNL     1     111.542 125.448 136.083  0.00  0.00    +0.000 A 
ATOM     17  C   UNL     1     112.888 125.336 136.549  0.00  0.00    +0.000 A 
ATOM     18  C   UNL     1     112.158 124.989 136.385  0.00  0.00    +0.000 A 
BRANCH  16  19
ATOM     19  O   UNL     1     110.812 125.101 135.918  0.00  0.00    +0.000 OA
ATOM     20  C   UNL     1     110.302 125.452 135.371  0.00  0.00    +0.000 C 
ENDBRANCH  16  19
BRANCH  17  21
ATOM     21  O   UNL     1     113.504 124.878 136.851  0.00  0.00    +0.000 OA
ATOM     22  C   UNL     1     114.285 125.056 136.656  0.00  0.00    +0.000 C 
ENDBRANCH  17  21
BRANCH  18  23
ATOM     23  O   UNL     1     112.043 124.184 136.522  0.00  0.00    +0.000 OA
ATOM     24  C   UNL     1     111.765 123.925 137.254  0.00  0.00    +0.000 C 
ENDBRANCH  18  23
ENDBRANCH  12  13
ENDBRANCH  11  12
ENDBRANCH  10  11
ENDBRANCH   4  10
BRANCH   3  25
ATOM     25  O   UNL     1     111.219 129.207 137.428  0.00  0.00    +0.000 OA
BRANCH  25  34
ATOM     26  O   UNL     1     110.461 130.395 137.197  0.00  0.00    +0.000 OA
ATOM     27  O   UNL     1     108.755 129.622 138.816  0.00  0.00    +0.000 OA
ATOM     28  O   UNL     1     108.565 131.068 138.045  0.00  0.00    +0.000 OA
ATOM     29  O   UNL     1     110.082 128.692 138.507  0.00  0.00    +0.000 OA
ATOM     30  C   UNL     1     109.324 129.879 138.276  0.00  0.00    +0.000 C 
ATOM     31  C   UNL     1     109.229 130.603 137.890  0.00  0.00    +0.000 C 
ATOM     32  C   UNL     1     109.987 129.414 138.122  0.00  0.00    +0.000 C 
ATOM     33  C   UNL     1     109.797 130.861 137.351  0.00  0.00    +0.000 C 
ATOM     34  C   UNL     1     110.556 129.672 137.582  0.00  0.00    +0.000 C 
BRANCH  33  37
ATOM     35  O   UNL     1     109.424 131.605 136.189  0.00  0.00    +0.000 OA
ATOM     36  O   UNL     1     109.885 132.286 137.357  0.00  0.00    +0.000 OA
ATOM     37  C   UNL     1     109.702 131.584 136.966  0.00  0.00    +0.000 C 
ENDBRANCH  33  37
ENDBRANCH  25  34
ENDBRANCH   3  25
TORSDOF 10
ENDMDL
MODEL 10
REMARK VINA RESULT:      -7.4      1.588      3.052
REMARK  Name = 131831464
REMARK  10 active torsions:
REMARK  status: ('A' for Active; 'I' for Inactive)
REMARK    1  A    between atoms: O_2  and  C_18
REMARK    2  A    between atoms: O_2  and  C_20
REMARK    3  A    between atoms: O_11  and  C_32
REMARK    4  A    between atoms: O_12  and  C_33
REMARK    5  A    between atoms: O_13  and  C_34
REMARK    6  A    between atoms: C_17  and  C_19
REMARK    7  A    between atoms: C_21  and  C_23
REMARK    8  A    between atoms: C_23  and  C_24
REMARK    9  A    between atoms: C_24  and  C_26
REMARK   10  A    between atoms: C_26  and  C_29
REMARK                            x       y       z     vdW  Elec       q    Type
REMARK                         _______ _______ _______ _____ _____    ______ ____
ROOT
ATOM      1  O   UNL     1     108.811 126.929 136.212  0.00  0.00    +0.000 OA
ATOM      2  O   UNL     1     108.773 129.673 135.418  0.00  0.00    +0.000 OA
ATOM      3  C   UNL     1     109.734 128.690 137.113  0.00  0.00    +0.000 A 
ATOM      4  C   UNL     1     109.508 127.906 136.987  0.00  0.00    +0.000 A 
ATOM      5  C   UNL     1     109.489 129.278 136.590  0.00  0.00    +0.000 A 
ATOM      6  C   UNL     1     109.037 127.711 136.338  0.00  0.00    +0.000 A 
ATOM      7  C   UNL     1     109.018 129.084 135.941  0.00  0.00    +0.000 A 
ATOM      8  C   UNL     1     108.792 128.301 135.815  0.00  0.00    +0.000 A 
ENDROOT
BRANCH   4  10
ATOM      9  O   UNL     1     109.280 127.114 138.155  0.00  0.00    +0.000 OA
ATOM     10  C   UNL     1     109.753 127.317 137.510  0.00  0.00    +0.000 C 
BRANCH  10  11
ATOM     11  C   UNL     1     110.473 126.931 137.389  0.00  0.00    +0.000 C 
BRANCH  11  12
ATOM     12  C   UNL     1     110.690 126.302 137.876  0.00  0.00    +0.000 C 
BRANCH  12  13
ATOM     13  C   UNL     1     111.446 125.976 137.815  0.00  0.00    +0.000 A 
ATOM     14  C   UNL     1     111.588 125.363 137.281  0.00  0.00    +0.000 A 
ATOM     15  C   UNL     1     112.059 126.262 138.287  0.00  0.00    +0.000 A 
ATOM     16  C   UNL     1     112.813 125.936 138.226  0.00  0.00    +0.000 A 
ATOM     17  C   UNL     1     112.344 125.036 137.220  0.00  0.00    +0.000 A 
ATOM     18  C   UNL     1     112.956 125.323 137.693  0.00  0.00    +0.000 A 
BRANCH  16  19
ATOM     19  O   UNL     1     113.426 126.222 138.698  0.00  0.00    +0.000 OA
ATOM     20  C   UNL     1     113.254 126.630 139.396  0.00  0.00    +0.000 C 
ENDBRANCH  16  19
BRANCH  17  21
ATOM     21  O   UNL     1     112.486 124.424 136.687  0.00  0.00    +0.000 OA
ATOM     22  C   UNL     1     111.893 123.873 136.523  0.00  0.00    +0.000 C 
ENDBRANCH  17  21
BRANCH  18  23
ATOM     23  O   UNL     1     113.711 124.997 137.631  0.00  0.00    +0.000 OA
ATOM     24  C   UNL     1     114.256 125.313 137.098  0.00  0.00    +0.000 C 
ENDBRANCH  18  23
ENDBRANCH  12  13
ENDBRANCH  11  12
ENDBRANCH  10  11
ENDBRANCH   4  10
BRANCH   3  25
ATOM     25  O   UNL     1     110.205 128.884 137.762  0.00  0.00    +0.000 OA
BRANCH  25  34
ATOM     26  O   UNL     1     109.383 129.844 138.427  0.00  0.00    +0.000 OA
ATOM     27  O   UNL     1     111.326 131.361 138.640  0.00  0.00    +0.000 OA
ATOM     28  O   UNL     1     109.856 131.816 139.234  0.00  0.00    +0.000 OA
ATOM     29  O   UNL     1     111.501 129.896 137.904  0.00  0.00    +0.000 OA
ATOM     30  C   UNL     1     110.678 130.856 138.569  0.00  0.00    +0.000 C 
ATOM     31  C   UNL     1     109.942 131.083 138.866  0.00  0.00    +0.000 C 
ATOM     32  C   UNL     1     110.765 130.122 138.201  0.00  0.00    +0.000 C 
ATOM     33  C   UNL     1     109.294 130.577 138.795  0.00  0.00    +0.000 C 
ATOM     34  C   UNL     1     110.117 129.617 138.130  0.00  0.00    +0.000 C 
BRANCH  33  37
ATOM     35  O   UNL     1     108.134 131.409 138.724  0.00  0.00    +0.000 OA
ATOM     36  O   UNL     1     108.249 130.428 139.757  0.00  0.00    +0.000 OA
ATOM     37  C   UNL     1     108.560 130.805 139.092  0.00  0.00    +0.000 C 
ENDBRANCH  33  37
ENDBRANCH  25  34
ENDBRANCH   3  25
TORSDOF 10
ENDMDL
