MODEL 1
REMARK VINA RESULT:      -9.2      0.000      0.000
REMARK  Name = 44257140
REMARK  9 active torsions:
REMARK  status: ('A' for Active; 'I' for Inactive)
REMARK    1  A    between atoms: O_2  and  C_18
REMARK    2  A    between atoms: O_2  and  C_29
REMARK    3  A    between atoms: O_4  and  C_25
REMARK    4  A    between atoms: O_4  and  C_32
REMARK    5  A    between atoms: O_6  and  C_26
REMARK    6  A    between atoms: O_15  and  C_45
REMARK    7  A    between atoms: C_21  and  C_35
REMARK    8  A    between atoms: C_27  and  C_36
REMARK    9  A    between atoms: C_31  and  C_37
REMARK                            x       y       z     vdW  Elec       q    Type
REMARK                         _______ _______ _______ _____ _____    ______ ____
ROOT
ATOM      1  O   UNL     1     112.881 129.045 138.637  0.00  0.00    +0.000 OA
ATOM      2  C   UNL     1     112.341 127.707 138.382  0.00  0.00    +0.000 A 
ATOM      3  C   UNL     1     112.576 127.451 139.169  0.00  0.00    +0.000 C 
ATOM      4  C   UNL     1     112.970 128.006 139.694  0.00  0.00    +0.000 C 
ATOM      5  C   UNL     1     111.963 127.170 137.883  0.00  0.00    +0.000 A 
ATOM      6  C   UNL     1     112.488 128.477 138.125  0.00  0.00    +0.000 A 
ATOM      7  C   UNL     1     113.124 128.808 139.426  0.00  0.00    +0.000 C 
ATOM      8  C   UNL     1     111.880 128.174 136.868  0.00  0.00    +0.000 A 
ATOM      9  C   UNL     1     111.733 127.403 137.126  0.00  0.00    +0.000 A 
ATOM     10  C   UNL     1     112.258 128.710 137.368  0.00  0.00    +0.000 A 
ATOM     11  C   UNL     1     111.355 126.868 136.625  0.00  0.00    +0.000 C 
ATOM     12  C   UNL     1     112.406 129.481 137.111  0.00  0.00    +0.000 C 
ENDROOT
BRANCH   7  13
ATOM     13  C   UNL     1     113.501 129.347 139.924  0.00  0.00    +0.000 A 
ATOM     14  C   UNL     1     114.323 129.418 139.907  0.00  0.00    +0.000 A 
ATOM     15  C   UNL     1     113.057 129.814 140.439  0.00  0.00    +0.000 A 
ATOM     16  C   UNL     1     114.701 129.957 140.405  0.00  0.00    +0.000 A 
ATOM     17  C   UNL     1     113.435 130.352 140.936  0.00  0.00    +0.000 A 
ATOM     18  C   UNL     1     114.257 130.424 140.920  0.00  0.00    +0.000 A 
BRANCH  18  19
ATOM     19  O   UNL     1     114.634 130.963 141.418  0.00  0.00    +0.000 OA
ATOM     20  C   UNL     1     115.326 131.337 141.171  0.00  0.00    +0.000 C 
ENDBRANCH  18  19
ENDBRANCH   7  13
BRANCH   3  21
ATOM     21  O   UNL     1     112.424 126.679 139.417  0.00  0.00    +0.000 OA
ATOM     22  C   UNL     1     112.397 126.504 140.223  0.00  0.00    +0.000 C 
ENDBRANCH   3  21
BRANCH   5  23
ATOM     23  O   UNL     1     111.816 126.401 138.139  0.00  0.00    +0.000 OA
BRANCH  23  30
ATOM     24  O   UNL     1     112.965 125.821 137.519  0.00  0.00    +0.000 OA
ATOM     25  O   UNL     1     110.970 125.009 137.873  0.00  0.00    +0.000 OA
ATOM     26  O   UNL     1     111.698 123.733 137.120  0.00  0.00    +0.000 OA
ATOM     27  O   UNL     1     113.270 123.850 136.633  0.00  0.00    +0.000 OA
ATOM     28  C   UNL     1     111.757 125.067 137.629  0.00  0.00    +0.000 C 
ATOM     29  C   UNL     1     112.120 124.429 137.253  0.00  0.00    +0.000 C 
ATOM     30  C   UNL     1     112.179 125.763 137.763  0.00  0.00    +0.000 C 
ATOM     31  C   UNL     1     112.906 124.487 137.009  0.00  0.00    +0.000 C 
ATOM     32  C   UNL     1     113.329 125.184 137.142  0.00  0.00    +0.000 C 
BRANCH  32  34
ATOM     33  O   UNL     1     114.713 125.341 137.459  0.00  0.00    +0.000 OA
ATOM     34  C   UNL     1     114.115 125.242 136.899  0.00  0.00    +0.000 C 
ENDBRANCH  32  34
ENDBRANCH  23  30
ENDBRANCH   5  23
BRANCH   8  35
ATOM     35  O   UNL     1     111.650 128.407 136.111  0.00  0.00    +0.000 OA
BRANCH  35  43
ATOM     36  O   UNL     1     110.317 128.702 136.534  0.00  0.00    +0.000 OA
ATOM     37  O   UNL     1     110.046 130.237 134.612  0.00  0.00    +0.000 OA
ATOM     38  O   UNL     1     111.469 129.431 134.829  0.00  0.00    +0.000 OA
ATOM     39  O   UNL     1     108.804 130.020 135.676  0.00  0.00    +0.000 OA
ATOM     40  C   UNL     1     110.136 129.725 135.253  0.00  0.00    +0.000 C 
ATOM     41  C   UNL     1     110.848 129.322 135.362  0.00  0.00    +0.000 C 
ATOM     42  C   UNL     1     109.516 129.616 135.785  0.00  0.00    +0.000 C 
ATOM     43  C   UNL     1     110.939 128.810 136.003  0.00  0.00    +0.000 C 
ATOM     44  C   UNL     1     109.606 129.105 136.426  0.00  0.00    +0.000 C 
BRANCH  44  46
ATOM     45  O   UNL     1     109.003 129.365 137.695  0.00  0.00    +0.000 OA
ATOM     46  C   UNL     1     108.985 128.996 136.958  0.00  0.00    +0.000 C 
ENDBRANCH  44  46
ENDBRANCH  35  43
ENDBRANCH   8  35
TORSDOF 9
ENDMDL
MODEL 2
REMARK VINA RESULT:      -9.2      1.287      4.981
REMARK  Name = 44257140
REMARK  9 active torsions:
REMARK  status: ('A' for Active; 'I' for Inactive)
REMARK    1  A    between atoms: O_2  and  C_18
REMARK    2  A    between atoms: O_2  and  C_29
REMARK    3  A    between atoms: O_4  and  C_25
REMARK    4  A    between atoms: O_4  and  C_32
REMARK    5  A    between atoms: O_6  and  C_26
REMARK    6  A    between atoms: O_15  and  C_45
REMARK    7  A    between atoms: C_21  and  C_35
REMARK    8  A    between atoms: C_27  and  C_36
REMARK    9  A    between atoms: C_31  and  C_37
REMARK                            x       y       z     vdW  Elec       q    Type
REMARK                         _______ _______ _______ _____ _____    ______ ____
ROOT
ATOM      1  O   UNL     1     111.048 128.958 136.431  0.00  0.00    +0.000 OA
ATOM      2  C   UNL     1     111.525 128.584 137.765  0.00  0.00    +0.000 A 
ATOM      3  C   UNL     1     110.941 129.100 138.130  0.00  0.00    +0.000 C 
ATOM      4  C   UNL     1     110.405 129.550 137.632  0.00  0.00    +0.000 C 
ATOM      5  C   UNL     1     112.038 128.155 138.248  0.00  0.00    +0.000 A 
ATOM      6  C   UNL     1     111.576 128.516 136.945  0.00  0.00    +0.000 A 
ATOM      7  C   UNL     1     110.458 129.479 136.777  0.00  0.00    +0.000 C 
ATOM      8  C   UNL     1     112.654 127.588 137.089  0.00  0.00    +0.000 A 
ATOM      9  C   UNL     1     112.602 127.657 137.910  0.00  0.00    +0.000 A 
ATOM     10  C   UNL     1     112.141 128.018 136.607  0.00  0.00    +0.000 A 
ATOM     11  C   UNL     1     113.115 127.227 138.392  0.00  0.00    +0.000 C 
ATOM     12  C   UNL     1     112.192 127.950 135.785  0.00  0.00    +0.000 C 
ENDROOT
BRANCH   7  13
ATOM     13  C   UNL     1     109.946 129.907 136.291  0.00  0.00    +0.000 A 
ATOM     14  C   UNL     1     110.152 130.667 136.044  0.00  0.00    +0.000 A 
ATOM     15  C   UNL     1     109.229 129.576 136.054  0.00  0.00    +0.000 A 
ATOM     16  C   UNL     1     109.641 131.095 135.559  0.00  0.00    +0.000 A 
ATOM     17  C   UNL     1     108.718 130.005 135.570  0.00  0.00    +0.000 A 
ATOM     18  C   UNL     1     108.923 130.764 135.321  0.00  0.00    +0.000 A 
BRANCH  18  19
ATOM     19  O   UNL     1     108.411 131.192 134.837  0.00  0.00    +0.000 OA
ATOM     20  C   UNL     1     108.152 131.940 135.070  0.00  0.00    +0.000 C 
ENDBRANCH  18  19
ENDBRANCH   7  13
BRANCH   3  21
ATOM     21  O   UNL     1     110.897 129.162 138.951  0.00  0.00    +0.000 OA
ATOM     22  C   UNL     1     110.211 129.452 139.306  0.00  0.00    +0.000 C 
ENDBRANCH   3  21
BRANCH   5  23
ATOM     23  O   UNL     1     111.987 128.223 139.068  0.00  0.00    +0.000 OA
BRANCH  23  30
ATOM     24  O   UNL     1     113.031 129.190 139.189  0.00  0.00    +0.000 OA
ATOM     25  O   UNL     1     112.401 127.593 140.536  0.00  0.00    +0.000 OA
ATOM     26  O   UNL     1     113.653 128.246 141.390  0.00  0.00    +0.000 OA
ATOM     27  O   UNL     1     114.490 129.528 140.776  0.00  0.00    +0.000 OA
ATOM     28  C   UNL     1     112.820 128.234 140.229  0.00  0.00    +0.000 C 
ATOM     29  C   UNL     1     113.446 128.560 140.657  0.00  0.00    +0.000 C 
ATOM     30  C   UNL     1     112.613 128.549 139.496  0.00  0.00    +0.000 C 
ATOM     31  C   UNL     1     113.864 129.201 140.350  0.00  0.00    +0.000 C 
ATOM     32  C   UNL     1     113.657 129.516 139.615  0.00  0.00    +0.000 C 
BRANCH  32  34
ATOM     33  O   UNL     1     113.680 130.857 139.122  0.00  0.00    +0.000 OA
ATOM     34  C   UNL     1     114.076 130.158 139.308  0.00  0.00    +0.000 C 
ENDBRANCH  32  34
ENDBRANCH  23  30
ENDBRANCH   5  23
BRANCH   8  35
ATOM     35  O   UNL     1     113.218 127.090 136.751  0.00  0.00    +0.000 OA
BRANCH  35  43
ATOM     36  O   UNL     1     112.288 126.006 136.719  0.00  0.00    +0.000 OA
ATOM     37  O   UNL     1     114.151 124.418 136.356  0.00  0.00    +0.000 OA
ATOM     38  O   UNL     1     114.460 126.032 136.509  0.00  0.00    +0.000 OA
ATOM     39  O   UNL     1     112.600 123.863 136.445  0.00  0.00    +0.000 OA
ATOM     40  C   UNL     1     113.530 124.947 136.477  0.00  0.00    +0.000 C 
ATOM     41  C   UNL     1     113.685 125.755 136.554  0.00  0.00    +0.000 C 
ATOM     42  C   UNL     1     112.754 124.671 136.522  0.00  0.00    +0.000 C 
ATOM     43  C   UNL     1     113.063 126.284 136.675  0.00  0.00    +0.000 C 
ATOM     44  C   UNL     1     112.133 125.200 136.643  0.00  0.00    +0.000 C 
BRANCH  44  46
ATOM     45  O   UNL     1     110.845 125.025 136.050  0.00  0.00    +0.000 OA
ATOM     46  C   UNL     1     111.358 124.922 136.687  0.00  0.00    +0.000 C 
ENDBRANCH  44  46
ENDBRANCH  35  43
ENDBRANCH   8  35
TORSDOF 9
ENDMDL
MODEL 3
REMARK VINA RESULT:      -9.2      1.467      4.656
REMARK  Name = 44257140
REMARK  9 active torsions:
REMARK  status: ('A' for Active; 'I' for Inactive)
REMARK    1  A    between atoms: O_2  and  C_18
REMARK    2  A    between atoms: O_2  and  C_29
REMARK    3  A    between atoms: O_4  and  C_25
REMARK    4  A    between atoms: O_4  and  C_32
REMARK    5  A    between atoms: O_6  and  C_26
REMARK    6  A    between atoms: O_15  and  C_45
REMARK    7  A    between atoms: C_21  and  C_35
REMARK    8  A    between atoms: C_27  and  C_36
REMARK    9  A    between atoms: C_31  and  C_37
REMARK                            x       y       z     vdW  Elec       q    Type
REMARK                         _______ _______ _______ _____ _____    ______ ____
ROOT
ATOM      1  O   UNL     1     112.758 127.749 137.979  0.00  0.00    +0.000 OA
ATOM      2  C   UNL     1     112.588 128.593 139.165  0.00  0.00    +0.000 A 
ATOM      3  C   UNL     1     112.791 127.932 139.677  0.00  0.00    +0.000 C 
ATOM      4  C   UNL     1     112.981 127.170 139.329  0.00  0.00    +0.000 C 
ATOM      5  C   UNL     1     112.407 129.322 139.505  0.00  0.00    +0.000 A 
ATOM      6  C   UNL     1     112.572 128.504 138.346  0.00  0.00    +0.000 A 
ATOM      7  C   UNL     1     112.964 127.078 138.474  0.00  0.00    +0.000 C 
ATOM      8  C   UNL     1     112.194 129.875 138.204  0.00  0.00    +0.000 A 
ATOM      9  C   UNL     1     112.210 129.964 139.025  0.00  0.00    +0.000 A 
ATOM     10  C   UNL     1     112.375 129.145 137.865  0.00  0.00    +0.000 A 
ATOM     11  C   UNL     1     112.029 130.693 139.364  0.00  0.00    +0.000 C 
ATOM     12  C   UNL     1     112.358 129.057 137.044  0.00  0.00    +0.000 C 
ENDROOT
BRANCH   7  13
ATOM     13  C   UNL     1     113.144 126.349 138.131  0.00  0.00    +0.000 A 
ATOM     14  C   UNL     1     112.540 125.818 137.948  0.00  0.00    +0.000 A 
ATOM     15  C   UNL     1     113.929 126.151 137.972  0.00  0.00    +0.000 A 
ATOM     16  C   UNL     1     112.720 125.090 137.606  0.00  0.00    +0.000 A 
ATOM     17  C   UNL     1     114.109 125.423 137.629  0.00  0.00    +0.000 A 
ATOM     18  C   UNL     1     113.505 124.892 137.446  0.00  0.00    +0.000 A 
BRANCH  18  19
ATOM     19  O   UNL     1     113.686 124.164 137.104  0.00  0.00    +0.000 OA
ATOM     20  C   UNL     1     113.179 123.835 136.542  0.00  0.00    +0.000 C 
ENDBRANCH  18  19
ENDBRANCH   7  13
BRANCH   3  21
ATOM     21  O   UNL     1     112.805 128.030 140.496  0.00  0.00    +0.000 OA
ATOM     22  C   UNL     1     112.793 127.369 140.990  0.00  0.00    +0.000 C 
ENDBRANCH   3  21
BRANCH   5  23
ATOM     23  O   UNL     1     112.423 129.411 140.325  0.00  0.00    +0.000 OA
BRANCH  23  30
ATOM     24  O   UNL     1     113.730 129.986 140.370  0.00  0.00    +0.000 OA
ATOM     25  O   UNL     1     111.980 130.316 141.632  0.00  0.00    +0.000 OA
ATOM     26  O   UNL     1     113.067 131.343 142.330  0.00  0.00    +0.000 OA
ATOM     27  O   UNL     1     114.595 131.466 141.721  0.00  0.00    +0.000 OA
ATOM     28  C   UNL     1     112.745 130.377 141.327  0.00  0.00    +0.000 C 
ATOM     29  C   UNL     1     113.288 130.891 141.677  0.00  0.00    +0.000 C 
ATOM     30  C   UNL     1     112.966 129.925 140.674  0.00  0.00    +0.000 C 
ATOM     31  C   UNL     1     114.052 130.952 141.373  0.00  0.00    +0.000 C 
ATOM     32  C   UNL     1     114.273 130.500 140.719  0.00  0.00    +0.000 C 
BRANCH  32  34
ATOM     33  O   UNL     1     115.532 129.900 140.407  0.00  0.00    +0.000 OA
ATOM     34  C   UNL     1     115.038 130.561 140.414  0.00  0.00    +0.000 C 
ENDBRANCH  32  34
ENDBRANCH  23  30
ENDBRANCH   5  23
BRANCH   8  35
ATOM     35  O   UNL     1     111.997 130.516 137.724  0.00  0.00    +0.000 OA
BRANCH  35  43
ATOM     36  O   UNL     1     110.630 130.099 137.713  0.00  0.00    +0.000 OA
ATOM     37  O   UNL     1     109.997 132.205 136.576  0.00  0.00    +0.000 OA
ATOM     38  O   UNL     1     111.574 131.920 136.966  0.00  0.00    +0.000 OA
ATOM     39  O   UNL     1     108.841 131.085 136.944  0.00  0.00    +0.000 OA
ATOM     40  C   UNL     1     110.208 131.503 136.955  0.00  0.00    +0.000 C 
ATOM     41  C   UNL     1     110.997 131.360 137.150  0.00  0.00    +0.000 C 
ATOM     42  C   UNL     1     109.631 130.943 137.139  0.00  0.00    +0.000 C 
ATOM     43  C   UNL     1     111.208 130.658 137.529  0.00  0.00    +0.000 C 
ATOM     44  C   UNL     1     109.842 130.241 137.518  0.00  0.00    +0.000 C 
BRANCH  44  46
ATOM     45  O   UNL     1     108.957 129.640 138.466  0.00  0.00    +0.000 OA
ATOM     46  C   UNL     1     109.263 129.682 137.701  0.00  0.00    +0.000 C 
ENDBRANCH  44  46
ENDBRANCH  35  43
ENDBRANCH   8  35
TORSDOF 9
ENDMDL
MODEL 4
REMARK VINA RESULT:      -9.1      2.056      5.417
REMARK  Name = 44257140
REMARK  9 active torsions:
REMARK  status: ('A' for Active; 'I' for Inactive)
REMARK    1  A    between atoms: O_2  and  C_18
REMARK    2  A    between atoms: O_2  and  C_29
REMARK    3  A    between atoms: O_4  and  C_25
REMARK    4  A    between atoms: O_4  and  C_32
REMARK    5  A    between atoms: O_6  and  C_26
REMARK    6  A    between atoms: O_15  and  C_45
REMARK    7  A    between atoms: C_21  and  C_35
REMARK    8  A    between atoms: C_27  and  C_36
REMARK    9  A    between atoms: C_31  and  C_37
REMARK                            x       y       z     vdW  Elec       q    Type
REMARK                         _______ _______ _______ _____ _____    ______ ____
ROOT
ATOM      1  O   UNL     1     111.670 126.991 136.191  0.00  0.00    +0.000 OA
ATOM      2  C   UNL     1     110.663 128.014 135.898  0.00  0.00    +0.000 A 
ATOM      3  C   UNL     1     110.031 127.448 136.041  0.00  0.00    +0.000 C 
ATOM      4  C   UNL     1     110.228 126.641 136.262  0.00  0.00    +0.000 C 
ATOM      5  C   UNL     1     110.468 128.787 135.685  0.00  0.00    +0.000 A 
ATOM      6  C   UNL     1     111.454 127.793 135.970  0.00  0.00    +0.000 A 
ATOM      7  C   UNL     1     111.054 126.411 136.338  0.00  0.00    +0.000 C 
ATOM      8  C   UNL     1     111.857 129.118 135.618  0.00  0.00    +0.000 A 
ATOM      9  C   UNL     1     111.065 129.339 135.545  0.00  0.00    +0.000 A 
ATOM     10  C   UNL     1     112.051 128.345 135.831  0.00  0.00    +0.000 A 
ATOM     11  C   UNL     1     110.870 130.112 135.333  0.00  0.00    +0.000 C 
ATOM     12  C   UNL     1     112.843 128.124 135.903  0.00  0.00    +0.000 C 
ENDROOT
BRANCH   7  13
ATOM     13  C   UNL     1     111.251 125.638 136.551  0.00  0.00    +0.000 A 
ATOM     14  C   UNL     1     111.347 125.441 137.346  0.00  0.00    +0.000 A 
ATOM     15  C   UNL     1     111.353 125.064 135.968  0.00  0.00    +0.000 A 
ATOM     16  C   UNL     1     111.545 124.669 137.558  0.00  0.00    +0.000 A 
ATOM     17  C   UNL     1     111.550 124.292 136.180  0.00  0.00    +0.000 A 
ATOM     18  C   UNL     1     111.646 124.094 136.975  0.00  0.00    +0.000 A 
BRANCH  18  19
ATOM     19  O   UNL     1     111.844 123.322 137.187  0.00  0.00    +0.000 OA
ATOM     20  C   UNL     1     112.633 123.119 137.315  0.00  0.00    +0.000 C 
ENDBRANCH  18  19
ENDBRANCH   7  13
BRANCH   3  21
ATOM     21  O   UNL     1     109.243 127.677 135.966  0.00  0.00    +0.000 OA
ATOM     22  C   UNL     1     108.658 127.108 135.846  0.00  0.00    +0.000 C 
ENDBRANCH   3  21
BRANCH   5  23
ATOM     23  O   UNL     1     109.677 129.007 135.613  0.00  0.00    +0.000 OA
BRANCH  23  30
ATOM     24  O   UNL     1     109.503 129.481 136.949  0.00  0.00    +0.000 OA
ATOM     25  O   UNL     1     108.712 130.225 135.057  0.00  0.00    +0.000 OA
ATOM     26  O   UNL     1     108.056 131.307 136.116  0.00  0.00    +0.000 OA
ATOM     27  O   UNL     1     108.365 131.171 137.731  0.00  0.00    +0.000 OA
ATOM     28  C   UNL     1     108.866 130.157 135.864  0.00  0.00    +0.000 C 
ATOM     29  C   UNL     1     108.538 130.699 136.393  0.00  0.00    +0.000 C 
ATOM     30  C   UNL     1     109.349 129.549 136.142  0.00  0.00    +0.000 C 
ATOM     31  C   UNL     1     108.693 130.631 137.201  0.00  0.00    +0.000 C 
ATOM     32  C   UNL     1     109.175 130.021 137.479  0.00  0.00    +0.000 C 
BRANCH  32  34
ATOM     33  O   UNL     1     109.116 129.267 138.691  0.00  0.00    +0.000 OA
ATOM     34  C   UNL     1     109.330 129.954 138.287  0.00  0.00    +0.000 C 
ENDBRANCH  32  34
ENDBRANCH  23  30
ENDBRANCH   5  23
BRANCH   8  35
ATOM     35  O   UNL     1     112.454 129.670 135.478  0.00  0.00    +0.000 OA
BRANCH  35  43
ATOM     36  O   UNL     1     112.544 130.063 136.849  0.00  0.00    +0.000 OA
ATOM     37  O   UNL     1     114.918 130.680 136.516  0.00  0.00    +0.000 OA
ATOM     38  O   UNL     1     114.036 130.081 135.256  0.00  0.00    +0.000 OA
ATOM     39  O   UNL     1     114.217 130.867 137.998  0.00  0.00    +0.000 OA
ATOM     40  C   UNL     1     114.126 130.474 136.627  0.00  0.00    +0.000 C 
ATOM     41  C   UNL     1     113.685 130.175 135.997  0.00  0.00    +0.000 C 
ATOM     42  C   UNL     1     113.776 130.568 137.368  0.00  0.00    +0.000 C 
ATOM     43  C   UNL     1     112.894 129.969 136.108  0.00  0.00    +0.000 C 
ATOM     44  C   UNL     1     112.984 130.362 137.479  0.00  0.00    +0.000 C 
BRANCH  44  46
ATOM     45  O   UNL     1     112.196 131.134 138.387  0.00  0.00    +0.000 OA
ATOM     46  C   UNL     1     112.635 130.456 138.220  0.00  0.00    +0.000 C 
ENDBRANCH  44  46
ENDBRANCH  35  43
ENDBRANCH   8  35
TORSDOF 9
ENDMDL
MODEL 5
REMARK VINA RESULT:      -9.0      1.602      4.765
REMARK  Name = 44257140
REMARK  9 active torsions:
REMARK  status: ('A' for Active; 'I' for Inactive)
REMARK    1  A    between atoms: O_2  and  C_18
REMARK    2  A    between atoms: O_2  and  C_29
REMARK    3  A    between atoms: O_4  and  C_25
REMARK    4  A    between atoms: O_4  and  C_32
REMARK    5  A    between atoms: O_6  and  C_26
REMARK    6  A    between atoms: O_15  and  C_45
REMARK    7  A    between atoms: C_21  and  C_35
REMARK    8  A    between atoms: C_27  and  C_36
REMARK    9  A    between atoms: C_31  and  C_37
REMARK                            x       y       z     vdW  Elec       q    Type
REMARK                         _______ _______ _______ _____ _____    ______ ____
ROOT
ATOM      1  O   UNL     1     111.084 128.946 136.317  0.00  0.00    +0.000 OA
ATOM      2  C   UNL     1     111.792 128.691 137.575  0.00  0.00    +0.000 A 
ATOM      3  C   UNL     1     111.307 129.277 137.978  0.00  0.00    +0.000 C 
ATOM      4  C   UNL     1     110.703 129.701 137.539  0.00  0.00    +0.000 C 
ATOM      5  C   UNL     1     112.370 128.288 138.002  0.00  0.00    +0.000 A 
ATOM      6  C   UNL     1     111.684 128.532 136.773  0.00  0.00    +0.000 A 
ATOM      7  C   UNL     1     110.590 129.534 136.702  0.00  0.00    +0.000 C 
ATOM      8  C   UNL     1     112.734 127.564 136.824  0.00  0.00    +0.000 A 
ATOM      9  C   UNL     1     112.842 127.724 137.627  0.00  0.00    +0.000 A 
ATOM     10  C   UNL     1     112.155 127.969 136.398  0.00  0.00    +0.000 A 
ATOM     11  C   UNL     1     113.421 127.320 138.053  0.00  0.00    +0.000 C 
ATOM     12  C   UNL     1     112.047 127.809 135.595  0.00  0.00    +0.000 C 
ENDROOT
BRANCH   7  13
ATOM     13  C   UNL     1     110.012 129.937 136.273  0.00  0.00    +0.000 A 
ATOM     14  C   UNL     1     110.206 130.631 135.870  0.00  0.00    +0.000 A 
ATOM     15  C   UNL     1     109.241 129.646 136.247  0.00  0.00    +0.000 A 
ATOM     16  C   UNL     1     109.627 131.033 135.441  0.00  0.00    +0.000 A 
ATOM     17  C   UNL     1     108.663 130.049 135.818  0.00  0.00    +0.000 A 
ATOM     18  C   UNL     1     108.856 130.742 135.414  0.00  0.00    +0.000 A 
BRANCH  18  19
ATOM     19  O   UNL     1     108.277 131.144 134.986  0.00  0.00    +0.000 OA
ATOM     20  C   UNL     1     107.834 131.738 135.348  0.00  0.00    +0.000 C 
ENDBRANCH  18  19
ENDBRANCH   7  13
BRANCH   3  21
ATOM     21  O   UNL     1     111.422 129.429 138.780  0.00  0.00    +0.000 OA
ATOM     22  C   UNL     1     111.146 130.134 139.109  0.00  0.00    +0.000 C 
ENDBRANCH   3  21
BRANCH   5  23
ATOM     23  O   UNL     1     112.478 128.447 138.804  0.00  0.00    +0.000 OA
BRANCH  23  30
ATOM     24  O   UNL     1     111.661 127.376 139.279  0.00  0.00    +0.000 OA
ATOM     25  O   UNL     1     113.480 128.256 140.101  0.00  0.00    +0.000 OA
ATOM     26  O   UNL     1     113.163 127.090 141.224  0.00  0.00    +0.000 OA
ATOM     27  O   UNL     1     111.844 126.114 141.051  0.00  0.00    +0.000 OA
ATOM     28  C   UNL     1     112.821 127.768 140.014  0.00  0.00    +0.000 C 
ATOM     29  C   UNL     1     112.663 127.185 140.576  0.00  0.00    +0.000 C 
ATOM     30  C   UNL     1     112.320 127.864 139.366  0.00  0.00    +0.000 C 
ATOM     31  C   UNL     1     112.003 126.697 140.489  0.00  0.00    +0.000 C 
ATOM     32  C   UNL     1     111.501 126.793 139.840  0.00  0.00    +0.000 C 
BRANCH  32  34
ATOM     33  O   UNL     1     110.091 126.638 139.676  0.00  0.00    +0.000 OA
ATOM     34  C   UNL     1     110.842 126.305 139.754  0.00  0.00    +0.000 C 
ENDBRANCH  32  34
ENDBRANCH  23  30
ENDBRANCH   5  23
BRANCH   8  35
ATOM     35  O   UNL     1     113.205 127.001 136.449  0.00  0.00    +0.000 OA
BRANCH  35  43
ATOM     36  O   UNL     1     112.207 125.979 136.490  0.00  0.00    +0.000 OA
ATOM     37  O   UNL     1     113.977 124.252 136.581  0.00  0.00    +0.000 OA
ATOM     38  O   UNL     1     114.385 125.849 136.509  0.00  0.00    +0.000 OA
ATOM     39  O   UNL     1     112.388 123.806 136.593  0.00  0.00    +0.000 OA
ATOM     40  C   UNL     1     113.387 124.828 136.551  0.00  0.00    +0.000 C 
ATOM     41  C   UNL     1     113.591 125.627 136.515  0.00  0.00    +0.000 C 
ATOM     42  C   UNL     1     112.592 124.606 136.557  0.00  0.00    +0.000 C 
ATOM     43  C   UNL     1     113.001 126.203 136.485  0.00  0.00    +0.000 C 
ATOM     44  C   UNL     1     112.002 125.181 136.526  0.00  0.00    +0.000 C 
BRANCH  44  46
ATOM     45  O   UNL     1     110.765 124.989 135.838  0.00  0.00    +0.000 OA
ATOM     46  C   UNL     1     111.208 124.958 136.532  0.00  0.00    +0.000 C 
ENDBRANCH  44  46
ENDBRANCH  35  43
ENDBRANCH   8  35
TORSDOF 9
ENDMDL
MODEL 6
REMARK VINA RESULT:      -9.0      2.218      4.608
REMARK  Name = 44257140
REMARK  9 active torsions:
REMARK  status: ('A' for Active; 'I' for Inactive)
REMARK    1  A    between atoms: O_2  and  C_18
REMARK    2  A    between atoms: O_2  and  C_29
REMARK    3  A    between atoms: O_4  and  C_25
REMARK    4  A    between atoms: O_4  and  C_32
REMARK    5  A    between atoms: O_6  and  C_26
REMARK    6  A    between atoms: O_15  and  C_45
REMARK    7  A    between atoms: C_21  and  C_35
REMARK    8  A    between atoms: C_27  and  C_36
REMARK    9  A    between atoms: C_31  and  C_37
REMARK                            x       y       z     vdW  Elec       q    Type
REMARK                         _______ _______ _______ _____ _____    ______ ____
ROOT
ATOM      1  O   UNL     1     110.257 128.370 137.164  0.00  0.00    +0.000 OA
ATOM      2  C   UNL     1     110.752 126.991 137.148  0.00  0.00    +0.000 A 
ATOM      3  C   UNL     1     110.554 126.919 136.314  0.00  0.00    +0.000 C 
ATOM      4  C   UNL     1     110.201 127.586 135.904  0.00  0.00    +0.000 C 
ATOM      5  C   UNL     1     111.090 126.346 137.536  0.00  0.00    +0.000 A 
ATOM      6  C   UNL     1     110.609 127.692 137.558  0.00  0.00    +0.000 A 
ATOM      7  C   UNL     1     110.052 128.317 136.332  0.00  0.00    +0.000 C 
ATOM      8  C   UNL     1     111.141 127.105 138.747  0.00  0.00    +0.000 A 
ATOM      9  C   UNL     1     111.285 126.403 138.336  0.00  0.00    +0.000 A 
ATOM     10  C   UNL     1     110.803 127.749 138.358  0.00  0.00    +0.000 A 
ATOM     11  C   UNL     1     111.622 125.759 138.726  0.00  0.00    +0.000 C 
ATOM     12  C   UNL     1     110.660 128.450 138.769  0.00  0.00    +0.000 C 
ENDROOT
BRANCH   7  13
ATOM     13  C   UNL     1     109.714 128.963 135.945  0.00  0.00    +0.000 A 
ATOM     14  C   UNL     1     110.177 129.438 135.454  0.00  0.00    +0.000 A 
ATOM     15  C   UNL     1     108.914 129.134 136.049  0.00  0.00    +0.000 A 
ATOM     16  C   UNL     1     109.839 130.084 135.068  0.00  0.00    +0.000 A 
ATOM     17  C   UNL     1     108.576 129.779 135.662  0.00  0.00    +0.000 A 
ATOM     18  C   UNL     1     109.038 130.255 135.172  0.00  0.00    +0.000 A 
BRANCH  18  19
ATOM     19  O   UNL     1     108.700 130.900 134.785  0.00  0.00    +0.000 OA
ATOM     20  C   UNL     1     108.687 131.639 135.152  0.00  0.00    +0.000 C 
ENDBRANCH  18  19
ENDBRANCH   7  13
BRANCH   3  21
ATOM     21  O   UNL     1     110.700 126.214 135.912  0.00  0.00    +0.000 OA
ATOM     22  C   UNL     1     110.310 126.056 135.202  0.00  0.00    +0.000 C 
ENDBRANCH   3  21
BRANCH   5  23
ATOM     23  O   UNL     1     111.233 125.646 137.126  0.00  0.00    +0.000 OA
BRANCH  23  30
ATOM     24  O   UNL     1     112.618 125.922 136.911  0.00  0.00    +0.000 OA
ATOM     25  O   UNL     1     111.558 124.028 137.135  0.00  0.00    +0.000 OA
ATOM     26  O   UNL     1     113.106 123.497 136.924  0.00  0.00    +0.000 OA
ATOM     27  O   UNL     1     114.329 124.583 136.704  0.00  0.00    +0.000 OA
ATOM     28  C   UNL     1     112.170 124.571 137.025  0.00  0.00    +0.000 C 
ATOM     29  C   UNL     1     112.944 124.305 136.920  0.00  0.00    +0.000 C 
ATOM     30  C   UNL     1     112.007 125.379 137.021  0.00  0.00    +0.000 C 
ATOM     31  C   UNL     1     113.555 124.848 136.810  0.00  0.00    +0.000 C 
ATOM     32  C   UNL     1     113.392 125.657 136.805  0.00  0.00    +0.000 C 
BRANCH  32  34
ATOM     33  O   UNL     1     113.915 126.816 136.153  0.00  0.00    +0.000 OA
ATOM     34  C   UNL     1     114.003 126.200 136.695  0.00  0.00    +0.000 C 
ENDBRANCH  32  34
ENDBRANCH  23  30
ENDBRANCH   5  23
BRANCH   8  35
ATOM     35  O   UNL     1     111.336 127.162 139.547  0.00  0.00    +0.000 OA
BRANCH  35  43
ATOM     36  O   UNL     1     110.110 126.536 139.930  0.00  0.00    +0.000 OA
ATOM     37  O   UNL     1     110.391 127.395 142.234  0.00  0.00    +0.000 OA
ATOM     38  O   UNL     1     111.523 127.735 141.083  0.00  0.00    +0.000 OA
ATOM     39  O   UNL     1     109.071 126.483 141.849  0.00  0.00    +0.000 OA
ATOM     40  C   UNL     1     110.297 127.109 141.466  0.00  0.00    +0.000 C 
ATOM     41  C   UNL     1     110.864 127.279 140.890  0.00  0.00    +0.000 C 
ATOM     42  C   UNL     1     109.637 126.653 141.273  0.00  0.00    +0.000 C 
ATOM     43  C   UNL     1     110.770 126.992 140.122  0.00  0.00    +0.000 C 
ATOM     44  C   UNL     1     109.544 126.366 140.505  0.00  0.00    +0.000 C 
BRANCH  44  46
ATOM     45  O   UNL     1     108.273 126.235 139.865  0.00  0.00    +0.000 OA
ATOM     46  C   UNL     1     108.884 125.910 140.313  0.00  0.00    +0.000 C 
ENDBRANCH  44  46
ENDBRANCH  35  43
ENDBRANCH   8  35
TORSDOF 9
ENDMDL
MODEL 7
REMARK VINA RESULT:      -9.0      1.926      4.614
REMARK  Name = 44257140
REMARK  9 active torsions:
REMARK  status: ('A' for Active; 'I' for Inactive)
REMARK    1  A    between atoms: O_2  and  C_18
REMARK    2  A    between atoms: O_2  and  C_29
REMARK    3  A    between atoms: O_4  and  C_25
REMARK    4  A    between atoms: O_4  and  C_32
REMARK    5  A    between atoms: O_6  and  C_26
REMARK    6  A    between atoms: O_15  and  C_45
REMARK    7  A    between atoms: C_21  and  C_35
REMARK    8  A    between atoms: C_27  and  C_36
REMARK    9  A    between atoms: C_31  and  C_37
REMARK                            x       y       z     vdW  Elec       q    Type
REMARK                         _______ _______ _______ _____ _____    ______ ____
ROOT
ATOM      1  O   UNL     1     111.364 127.118 136.449  0.00  0.00    +0.000 OA
ATOM      2  C   UNL     1     112.102 128.348 136.750  0.00  0.00    +0.000 A 
ATOM      3  C   UNL     1     112.686 127.901 137.196  0.00  0.00    +0.000 C 
ATOM      4  C   UNL     1     112.602 127.048 137.266  0.00  0.00    +0.000 C 
ATOM      5  C   UNL     1     112.187 129.166 136.686  0.00  0.00    +0.000 A 
ATOM      6  C   UNL     1     111.463 127.970 136.390  0.00  0.00    +0.000 A 
ATOM      7  C   UNL     1     111.936 126.654 136.890  0.00  0.00    +0.000 C 
ATOM      8  C   UNL     1     110.994 129.228 135.900  0.00  0.00    +0.000 A 
ATOM      9  C   UNL     1     111.634 129.606 136.261  0.00  0.00    +0.000 A 
ATOM     10  C   UNL     1     110.910 128.410 135.965  0.00  0.00    +0.000 A 
ATOM     11  C   UNL     1     111.718 130.424 136.196  0.00  0.00    +0.000 C 
ATOM     12  C   UNL     1     110.271 128.032 135.604  0.00  0.00    +0.000 C 
ENDROOT
BRANCH   7  13
ATOM     13  C   UNL     1     111.849 125.836 136.953  0.00  0.00    +0.000 A 
ATOM     14  C   UNL     1     112.172 125.341 136.377  0.00  0.00    +0.000 A 
ATOM     15  C   UNL     1     111.439 125.513 137.592  0.00  0.00    +0.000 A 
ATOM     16  C   UNL     1     112.084 124.523 136.440  0.00  0.00    +0.000 A 
ATOM     17  C   UNL     1     111.351 124.696 137.654  0.00  0.00    +0.000 A 
ATOM     18  C   UNL     1     111.674 124.200 137.079  0.00  0.00    +0.000 A 
BRANCH  18  19
ATOM     19  O   UNL     1     111.586 123.383 137.142  0.00  0.00    +0.000 OA
ATOM     20  C   UNL     1     112.246 122.907 137.276  0.00  0.00    +0.000 C 
ENDBRANCH  18  19
ENDBRANCH   7  13
BRANCH   3  21
ATOM     21  O   UNL     1     113.321 128.287 137.553  0.00  0.00    +0.000 OA
ATOM     22  C   UNL     1     113.670 127.967 138.228  0.00  0.00    +0.000 C 
ENDBRANCH   3  21
BRANCH   5  23
ATOM     23  O   UNL     1     112.825 129.544 137.046  0.00  0.00    +0.000 OA
BRANCH  23  30
ATOM     24  O   UNL     1     113.661 129.555 135.887  0.00  0.00    +0.000 OA
ATOM     25  O   UNL     1     113.459 130.992 137.517  0.00  0.00    +0.000 OA
ATOM     26  O   UNL     1     114.612 131.728 136.593  0.00  0.00    +0.000 OA
ATOM     27  O   UNL     1     115.131 131.014 135.198  0.00  0.00    +0.000 OA
ATOM     28  C   UNL     1     113.719 130.636 136.819  0.00  0.00    +0.000 C 
ATOM     29  C   UNL     1     114.295 131.004 136.358  0.00  0.00    +0.000 C 
ATOM     30  C   UNL     1     113.402 129.912 136.584  0.00  0.00    +0.000 C 
ATOM     31  C   UNL     1     114.555 130.647 135.661  0.00  0.00    +0.000 C 
ATOM     32  C   UNL     1     114.237 129.922 135.425  0.00  0.00    +0.000 C 
BRANCH  32  34
ATOM     33  O   UNL     1     114.864 128.827 134.755  0.00  0.00    +0.000 OA
ATOM     34  C   UNL     1     114.497 129.565 134.728  0.00  0.00    +0.000 C 
ENDBRANCH  32  34
ENDBRANCH  23  30
ENDBRANCH   5  23
BRANCH   8  35
ATOM     35  O   UNL     1     110.441 129.668 135.475  0.00  0.00    +0.000 OA
BRANCH  35  43
ATOM     36  O   UNL     1     109.757 129.985 136.689  0.00  0.00    +0.000 OA
ATOM     37  O   UNL     1     107.996 131.146 135.395  0.00  0.00    +0.000 OA
ATOM     38  O   UNL     1     109.267 130.442 134.612  0.00  0.00    +0.000 OA
ATOM     39  O   UNL     1     107.899 131.076 137.040  0.00  0.00    +0.000 OA
ATOM     40  C   UNL     1     108.583 130.759 135.826  0.00  0.00    +0.000 C 
ATOM     41  C   UNL     1     109.219 130.407 135.435  0.00  0.00    +0.000 C 
ATOM     42  C   UNL     1     108.535 130.723 136.649  0.00  0.00    +0.000 C 
ATOM     43  C   UNL     1     109.806 130.020 135.866  0.00  0.00    +0.000 C 
ATOM     44  C   UNL     1     109.123 130.336 137.081  0.00  0.00    +0.000 C 
BRANCH  44  46
ATOM     45  O   UNL     1     108.894 129.589 138.277  0.00  0.00    +0.000 OA
ATOM     46  C   UNL     1     109.074 130.302 137.904  0.00  0.00    +0.000 C 
ENDBRANCH  44  46
ENDBRANCH  35  43
ENDBRANCH   8  35
TORSDOF 9
ENDMDL
MODEL 8
REMARK VINA RESULT:      -9.0      1.543      4.157
REMARK  Name = 44257140
REMARK  9 active torsions:
REMARK  status: ('A' for Active; 'I' for Inactive)
REMARK    1  A    between atoms: O_2  and  C_18
REMARK    2  A    between atoms: O_2  and  C_29
REMARK    3  A    between atoms: O_4  and  C_25
REMARK    4  A    between atoms: O_4  and  C_32
REMARK    5  A    between atoms: O_6  and  C_26
REMARK    6  A    between atoms: O_15  and  C_45
REMARK    7  A    between atoms: C_21  and  C_35
REMARK    8  A    between atoms: C_27  and  C_36
REMARK    9  A    between atoms: C_31  and  C_37
REMARK                            x       y       z     vdW  Elec       q    Type
REMARK                         _______ _______ _______ _____ _____    ______ ____
ROOT
ATOM      1  O   UNL     1     112.488 127.834 140.031  0.00  0.00    +0.000 OA
ATOM      2  C   UNL     1     112.376 128.427 138.696  0.00  0.00    +0.000 A 
ATOM      3  C   UNL     1     111.932 129.090 139.017  0.00  0.00    +0.000 C 
ATOM      4  C   UNL     1     111.766 129.120 139.859  0.00  0.00    +0.000 C 
ATOM      5  C   UNL     1     112.533 128.404 137.886  0.00  0.00    +0.000 A 
ATOM      6  C   UNL     1     112.644 127.821 139.186  0.00  0.00    +0.000 A 
ATOM      7  C   UNL     1     112.045 128.487 140.370  0.00  0.00    +0.000 C 
ATOM      8  C   UNL     1     113.227 127.166 138.057  0.00  0.00    +0.000 A 
ATOM      9  C   UNL     1     112.958 127.774 137.567  0.00  0.00    +0.000 A 
ATOM     10  C   UNL     1     113.070 127.190 138.866  0.00  0.00    +0.000 A 
ATOM     11  C   UNL     1     113.115 127.749 136.757  0.00  0.00    +0.000 C 
ATOM     12  C   UNL     1     113.338 126.583 139.357  0.00  0.00    +0.000 C 
ENDROOT
BRANCH   7  13
ATOM     13  C   UNL     1     111.890 128.508 141.180  0.00  0.00    +0.000 A 
ATOM     14  C   UNL     1     112.411 128.895 141.690  0.00  0.00    +0.000 A 
ATOM     15  C   UNL     1     111.214 128.143 141.480  0.00  0.00    +0.000 A 
ATOM     16  C   UNL     1     112.255 128.916 142.500  0.00  0.00    +0.000 A 
ATOM     17  C   UNL     1     111.060 128.164 142.289  0.00  0.00    +0.000 A 
ATOM     18  C   UNL     1     111.579 128.551 142.800  0.00  0.00    +0.000 A 
BRANCH  18  19
ATOM     19  O   UNL     1     111.424 128.571 143.610  0.00  0.00    +0.000 OA
ATOM     20  C   UNL     1     111.532 129.271 144.032  0.00  0.00    +0.000 C 
ENDBRANCH  18  19
ENDBRANCH   7  13
BRANCH   3  21
ATOM     21  O   UNL     1     111.667 129.693 138.519  0.00  0.00    +0.000 OA
ATOM     22  C   UNL     1     111.484 130.434 138.831  0.00  0.00    +0.000 C 
ENDBRANCH   3  21
BRANCH   5  23
ATOM     23  O   UNL     1     112.264 129.011 137.396  0.00  0.00    +0.000 OA
BRANCH  23  30
ATOM     24  O   UNL     1     111.040 128.384 137.011  0.00  0.00    +0.000 OA
ATOM     25  O   UNL     1     112.415 129.647 135.881  0.00  0.00    +0.000 OA
ATOM     26  O   UNL     1     111.265 129.338 134.739  0.00  0.00    +0.000 OA
ATOM     27  O   UNL     1     109.965 128.393 135.111  0.00  0.00    +0.000 OA
ATOM     28  C   UNL     1     111.765 129.174 136.068  0.00  0.00    +0.000 C 
ATOM     29  C   UNL     1     111.190 129.020 135.496  0.00  0.00    +0.000 C 
ATOM     30  C   UNL     1     111.690 128.856 136.825  0.00  0.00    +0.000 C 
ATOM     31  C   UNL     1     110.540 128.548 135.682  0.00  0.00    +0.000 C 
ATOM     32  C   UNL     1     110.465 128.229 136.440  0.00  0.00    +0.000 C 
BRANCH  32  34
ATOM     33  O   UNL     1     109.316 127.968 137.249  0.00  0.00    +0.000 OA
ATOM     34  C   UNL     1     109.815 127.756 136.626  0.00  0.00    +0.000 C 
ENDBRANCH  32  34
ENDBRANCH  23  30
ENDBRANCH   5  23
BRANCH   8  35
ATOM     35  O   UNL     1     113.652 126.535 137.737  0.00  0.00    +0.000 OA
BRANCH  35  43
ATOM     36  O   UNL     1     112.476 125.725 137.689  0.00  0.00    +0.000 OA
ATOM     37  O   UNL     1     113.616 124.161 136.146  0.00  0.00    +0.000 OA
ATOM     38  O   UNL     1     114.412 125.493 136.709  0.00  0.00    +0.000 OA
ATOM     39  O   UNL     1     112.059 123.873 136.612  0.00  0.00    +0.000 OA
ATOM     40  C   UNL     1     113.236 124.683 136.661  0.00  0.00    +0.000 C 
ATOM     41  C   UNL     1     113.634 125.349 136.942  0.00  0.00    +0.000 C 
ATOM     42  C   UNL     1     112.458 124.539 136.894  0.00  0.00    +0.000 C 
ATOM     43  C   UNL     1     113.254 125.870 137.456  0.00  0.00    +0.000 C 
ATOM     44  C   UNL     1     112.078 125.060 137.408  0.00  0.00    +0.000 C 
BRANCH  44  46
ATOM     45  O   UNL     1     111.134 124.703 138.420  0.00  0.00    +0.000 OA
ATOM     46  C   UNL     1     111.299 124.915 137.641  0.00  0.00    +0.000 C 
ENDBRANCH  44  46
ENDBRANCH  35  43
ENDBRANCH   8  35
TORSDOF 9
ENDMDL
MODEL 9
REMARK VINA RESULT:      -9.0      1.465      4.620
REMARK  Name = 44257140
REMARK  9 active torsions:
REMARK  status: ('A' for Active; 'I' for Inactive)
REMARK    1  A    between atoms: O_2  and  C_18
REMARK    2  A    between atoms: O_2  and  C_29
REMARK    3  A    between atoms: O_4  and  C_25
REMARK    4  A    between atoms: O_4  and  C_32
REMARK    5  A    between atoms: O_6  and  C_26
REMARK    6  A    between atoms: O_15  and  C_45
REMARK    7  A    between atoms: C_21  and  C_35
REMARK    8  A    between atoms: C_27  and  C_36
REMARK    9  A    between atoms: C_31  and  C_37
REMARK                            x       y       z     vdW  Elec       q    Type
REMARK                         _______ _______ _______ _____ _____    ______ ____
ROOT
ATOM      1  O   UNL     1     110.791 128.569 137.432  0.00  0.00    +0.000 OA
ATOM      2  C   UNL     1     111.931 127.655 137.528  0.00  0.00    +0.000 A 
ATOM      3  C   UNL     1     112.189 127.878 136.738  0.00  0.00    +0.000 C 
ATOM      4  C   UNL     1     111.736 128.456 136.293  0.00  0.00    +0.000 C 
ATOM      5  C   UNL     1     112.371 127.099 137.950  0.00  0.00    +0.000 A 
ATOM      6  C   UNL     1     111.256 127.989 137.863  0.00  0.00    +0.000 A 
ATOM      7  C   UNL     1     111.032 128.805 136.642  0.00  0.00    +0.000 C 
ATOM      8  C   UNL     1     111.457 127.211 139.044  0.00  0.00    +0.000 A 
ATOM      9  C   UNL     1     112.134 126.877 138.709  0.00  0.00    +0.000 A 
ATOM     10  C   UNL     1     111.019 127.767 138.621  0.00  0.00    +0.000 A 
ATOM     11  C   UNL     1     112.572 126.321 139.132  0.00  0.00    +0.000 C 
ATOM     12  C   UNL     1     110.343 128.101 138.957  0.00  0.00    +0.000 C 
ENDROOT
BRANCH   7  13
ATOM     13  C   UNL     1     110.591 129.361 136.222  0.00  0.00    +0.000 A 
ATOM     14  C   UNL     1     110.025 129.112 135.676  0.00  0.00    +0.000 A 
ATOM     15  C   UNL     1     110.717 130.167 136.346  0.00  0.00    +0.000 A 
ATOM     16  C   UNL     1     109.584 129.668 135.255  0.00  0.00    +0.000 A 
ATOM     17  C   UNL     1     110.277 130.722 135.926  0.00  0.00    +0.000 A 
ATOM     18  C   UNL     1     109.710 130.474 135.380  0.00  0.00    +0.000 A 
BRANCH  18  19
ATOM     19  O   UNL     1     109.270 131.031 134.960  0.00  0.00    +0.000 OA
ATOM     20  C   UNL     1     108.637 131.415 135.324  0.00  0.00    +0.000 C 
ENDBRANCH  18  19
ENDBRANCH   7  13
BRANCH   3  21
ATOM     21  O   UNL     1     112.866 127.539 136.411  0.00  0.00    +0.000 OA
ATOM     22  C   UNL     1     113.288 127.942 135.827  0.00  0.00    +0.000 C 
ENDBRANCH   3  21
BRANCH   5  23
ATOM     23  O   UNL     1     113.046 126.765 137.615  0.00  0.00    +0.000 OA
BRANCH  23  30
ATOM     24  O   UNL     1     112.376 125.588 137.158  0.00  0.00    +0.000 OA
ATOM     25  O   UNL     1     114.443 125.903 137.783  0.00  0.00    +0.000 OA
ATOM     26  O   UNL     1     114.471 124.296 137.410  0.00  0.00    +0.000 OA
ATOM     27  O   UNL     1     113.102 123.551 136.869  0.00  0.00    +0.000 OA
ATOM     28  C   UNL     1     113.759 125.531 137.513  0.00  0.00    +0.000 C 
ATOM     29  C   UNL     1     113.773 124.727 137.326  0.00  0.00    +0.000 C 
ATOM     30  C   UNL     1     113.061 125.961 137.429  0.00  0.00    +0.000 C 
ATOM     31  C   UNL     1     113.089 124.354 137.056  0.00  0.00    +0.000 C 
ATOM     32  C   UNL     1     112.390 124.785 136.972  0.00  0.00    +0.000 C 
BRANCH  32  34
ATOM     33  O   UNL     1     111.335 124.679 136.013  0.00  0.00    +0.000 OA
ATOM     34  C   UNL     1     111.705 124.412 136.701  0.00  0.00    +0.000 C 
ENDBRANCH  32  34
ENDBRANCH  23  30
ENDBRANCH   5  23
BRANCH   8  35
ATOM     35  O   UNL     1     111.220 126.989 139.803  0.00  0.00    +0.000 OA
BRANCH  35  43
ATOM     36  O   UNL     1     112.031 128.018 140.373  0.00  0.00    +0.000 OA
ATOM     37  O   UNL     1     110.970 127.634 142.576  0.00  0.00    +0.000 OA
ATOM     38  O   UNL     1     110.513 126.733 141.271  0.00  0.00    +0.000 OA
ATOM     39  O   UNL     1     112.134 128.791 142.411  0.00  0.00    +0.000 OA
ATOM     40  C   UNL     1     111.323 127.762 141.841  0.00  0.00    +0.000 C 
ATOM     41  C   UNL     1     111.095 127.311 141.189  0.00  0.00    +0.000 C 
ATOM     42  C   UNL     1     111.906 128.340 141.759  0.00  0.00    +0.000 C 
ATOM     43  C   UNL     1     111.449 127.439 140.454  0.00  0.00    +0.000 C 
ATOM     44  C   UNL     1     112.260 128.468 141.024  0.00  0.00    +0.000 C 
BRANCH  44  46
ATOM     45  O   UNL     1     113.634 128.830 140.877  0.00  0.00    +0.000 OA
ATOM     46  C   UNL     1     112.842 129.047 140.943  0.00  0.00    +0.000 C 
ENDBRANCH  44  46
ENDBRANCH  35  43
ENDBRANCH   8  35
TORSDOF 9
ENDMDL
MODEL 10
REMARK VINA RESULT:      -9.0      1.997      4.766
REMARK  Name = 44257140
REMARK  9 active torsions:
REMARK  status: ('A' for Active; 'I' for Inactive)
REMARK    1  A    between atoms: O_2  and  C_18
REMARK    2  A    between atoms: O_2  and  C_29
REMARK    3  A    between atoms: O_4  and  C_25
REMARK    4  A    between atoms: O_4  and  C_32
REMARK    5  A    between atoms: O_6  and  C_26
REMARK    6  A    between atoms: O_15  and  C_45
REMARK    7  A    between atoms: C_21  and  C_35
REMARK    8  A    between atoms: C_27  and  C_36
REMARK    9  A    between atoms: C_31  and  C_37
REMARK                            x       y       z     vdW  Elec       q    Type
REMARK                         _______ _______ _______ _____ _____    ______ ____
ROOT
ATOM      1  O   UNL     1     113.143 128.608 136.669  0.00  0.00    +0.000 OA
ATOM      2  C   UNL     1     111.794 128.735 137.225  0.00  0.00    +0.000 A 
ATOM      3  C   UNL     1     111.749 129.551 136.956  0.00  0.00    +0.000 C 
ATOM      4  C   UNL     1     112.415 129.895 136.537  0.00  0.00    +0.000 C 
ATOM      5  C   UNL     1     111.151 128.410 137.627  0.00  0.00    +0.000 A 
ATOM      6  C   UNL     1     112.467 128.280 137.087  0.00  0.00    +0.000 A 
ATOM      7  C   UNL     1     113.117 129.421 136.393  0.00  0.00    +0.000 C 
ATOM      8  C   UNL     1     111.856 127.173 137.751  0.00  0.00    +0.000 A 
ATOM      9  C   UNL     1     111.182 127.628 137.890  0.00  0.00    +0.000 A 
ATOM     10  C   UNL     1     112.498 127.499 137.350  0.00  0.00    +0.000 A 
ATOM     11  C   UNL     1     110.539 127.302 138.292  0.00  0.00    +0.000 C 
ATOM     12  C   UNL     1     113.173 127.043 137.211  0.00  0.00    +0.000 C 
ENDROOT
BRANCH   7  13
ATOM     13  C   UNL     1     113.762 129.744 135.991  0.00  0.00    +0.000 A 
ATOM     14  C   UNL     1     113.855 129.607 135.183  0.00  0.00    +0.000 A 
ATOM     15  C   UNL     1     114.313 130.204 136.398  0.00  0.00    +0.000 A 
ATOM     16  C   UNL     1     114.499 129.931 134.781  0.00  0.00    +0.000 A 
ATOM     17  C   UNL     1     114.956 130.526 135.996  0.00  0.00    +0.000 A 
ATOM     18  C   UNL     1     115.050 130.391 135.188  0.00  0.00    +0.000 A 
BRANCH  18  19
ATOM     19  O   UNL     1     115.694 130.714 134.788  0.00  0.00    +0.000 OA
ATOM     20  C   UNL     1     115.708 131.520 134.613  0.00  0.00    +0.000 C 
ENDBRANCH  18  19
ENDBRANCH   7  13
BRANCH   3  21
ATOM     21  O   UNL     1     111.071 129.999 137.099  0.00  0.00    +0.000 OA
ATOM     22  C   UNL     1     110.961 130.716 136.706  0.00  0.00    +0.000 C 
ENDBRANCH   3  21
BRANCH   5  23
ATOM     23  O   UNL     1     110.477 128.865 137.765  0.00  0.00    +0.000 OA
BRANCH  23  30
ATOM     24  O   UNL     1     110.867 129.191 139.100  0.00  0.00    +0.000 OA
ATOM     25  O   UNL     1     108.894 129.080 138.176  0.00  0.00    +0.000 OA
ATOM     26  O   UNL     1     108.493 129.514 139.717  0.00  0.00    +0.000 OA
ATOM     27  O   UNL     1     109.675 129.732 140.847  0.00  0.00    +0.000 OA
ATOM     28  C   UNL     1     109.485 129.189 138.741  0.00  0.00    +0.000 C 
ATOM     29  C   UNL     1     109.284 129.406 139.511  0.00  0.00    +0.000 C 
ATOM     30  C   UNL     1     110.276 129.082 138.536  0.00  0.00    +0.000 C 
ATOM     31  C   UNL     1     109.875 129.515 140.076  0.00  0.00    +0.000 C 
ATOM     32  C   UNL     1     110.668 129.408 139.871  0.00  0.00    +0.000 C 
BRANCH  32  34
ATOM     33  O   UNL     1     111.830 130.103 140.327  0.00  0.00    +0.000 OA
ATOM     34  C   UNL     1     111.259 129.517 140.436  0.00  0.00    +0.000 C 
ENDBRANCH  32  34
ENDBRANCH  23  30
ENDBRANCH   5  23
BRANCH   8  35
ATOM     35  O   UNL     1     111.887 126.391 138.015  0.00  0.00    +0.000 OA
BRANCH  35  43
ATOM     36  O   UNL     1     111.344 125.905 136.785  0.00  0.00    +0.000 OA
ATOM     37  O   UNL     1     112.225 123.648 137.289  0.00  0.00    +0.000 OA
ATOM     38  O   UNL     1     112.474 124.886 138.350  0.00  0.00    +0.000 OA
ATOM     39  O   UNL     1     111.388 123.914 135.892  0.00  0.00    +0.000 OA
ATOM     40  C   UNL     1     111.931 124.400 137.121  0.00  0.00    +0.000 C 
ATOM     41  C   UNL     1     112.056 125.020 137.652  0.00  0.00    +0.000 C 
ATOM     42  C   UNL     1     111.513 124.534 136.423  0.00  0.00    +0.000 C 
ATOM     43  C   UNL     1     111.762 125.773 137.484  0.00  0.00    +0.000 C 
ATOM     44  C   UNL     1     111.219 125.286 136.255  0.00  0.00    +0.000 C 
BRANCH  44  46
ATOM     45  O   UNL     1     110.090 125.835 135.573  0.00  0.00    +0.000 OA
ATOM     46  C   UNL     1     110.801 125.419 135.556  0.00  0.00    +0.000 C 
ENDBRANCH  44  46
ENDBRANCH  35  43
ENDBRANCH   8  35
TORSDOF 9
ENDMDL
