MODEL 1
REMARK VINA RESULT:      -9.7      0.000      0.000
REMARK  Name = 42608018
REMARK  9 active torsions:
REMARK  status: ('A' for Active; 'I' for Inactive)
REMARK    1  A    between atoms: O_2  and  C_21
REMARK    2  A    between atoms: O_2  and  C_25
REMARK    3  A    between atoms: O_6  and  C_24
REMARK    4  A    between atoms: O_6  and  C_28
REMARK    5  A    between atoms: O_12  and  C_33
REMARK    6  A    between atoms: O_14  and  C_39
REMARK    7  A    between atoms: O_15  and  C_41
REMARK    8  A    between atoms: C_16  and  C_25
REMARK    9  A    between atoms: C_29  and  C_30
REMARK                            x       y       z     vdW  Elec       q    Type
REMARK                         _______ _______ _______ _____ _____    ______ ____
ROOT
ATOM      1  C   UNL     1     111.157 129.623 136.465  0.00  0.00    +0.000 A 
ATOM      2  C   UNL     1     112.274 129.740 137.673  0.00  0.00    +0.000 A 
ATOM      3  C   UNL     1     111.929 129.360 136.339  0.00  0.00    +0.000 A 
ATOM      4  C   UNL     1     110.944 129.945 137.194  0.00  0.00    +0.000 A 
ATOM      5  C   UNL     1     112.488 129.419 136.944  0.00  0.00    +0.000 A 
ATOM      6  C   UNL     1     111.502 130.004 137.797  0.00  0.00    +0.000 A 
ENDROOT
BRANCH   2   9
ATOM      7  O   UNL     1     112.938 129.172 138.803  0.00  0.00    +0.000 OA
ATOM      8  O   UNL     1     114.298 131.227 139.038  0.00  0.00    +0.000 OA
ATOM      9  C   UNL     1     112.833 129.799 138.277  0.00  0.00    +0.000 C 
ATOM     10  C   UNL     1     113.286 130.484 138.356  0.00  0.00    +0.000 C 
ATOM     11  C   UNL     1     113.844 130.542 138.960  0.00  0.00    +0.000 C 
ATOM     12  C   UNL     1     113.950 129.916 139.486  0.00  0.00    +0.000 A 
ATOM     13  C   UNL     1     113.497 129.231 139.408  0.00  0.00    +0.000 A 
ATOM     14  C   UNL     1     114.535 129.989 140.111  0.00  0.00    +0.000 A 
ATOM     15  C   UNL     1     113.598 128.571 139.950  0.00  0.00    +0.000 A 
ATOM     16  C   UNL     1     114.177 128.626 140.580  0.00  0.00    +0.000 A 
ATOM     17  C   UNL     1     114.650 129.339 140.663  0.00  0.00    +0.000 A 
BRANCH  14  18
ATOM     18  O   UNL     1     114.984 130.677 140.182  0.00  0.00    +0.000 OA
ATOM     19  C   UNL     1     115.275 130.906 140.919  0.00  0.00    +0.000 C 
ENDBRANCH  14  18
BRANCH  16  20
ATOM     20  O   UNL     1     114.281 127.998 141.105  0.00  0.00    +0.000 OA
ATOM     21  C   UNL     1     113.978 127.252 140.922  0.00  0.00    +0.000 C 
ENDBRANCH  16  20
ENDBRANCH   2   9
BRANCH   5  22
ATOM     22  O   UNL     1     113.259 129.155 136.819  0.00  0.00    +0.000 OA
ATOM     23  C   UNL     1     113.468 128.817 136.096  0.00  0.00    +0.000 C 
ENDBRANCH   5  22
BRANCH   1  24
ATOM     24  O   UNL     1     110.599 129.564 135.860  0.00  0.00    +0.000 OA
BRANCH  24  33
ATOM     25  O   UNL     1     110.191 128.220 136.116  0.00  0.00    +0.000 OA
ATOM     26  O   UNL     1     108.222 127.281 136.022  0.00  0.00    +0.000 OA
ATOM     27  O   UNL     1     107.850 128.830 135.592  0.00  0.00    +0.000 OA
ATOM     28  O   UNL     1     109.039 129.972 135.510  0.00  0.00    +0.000 OA
ATOM     29  C   UNL     1     109.596 127.649 136.157  0.00  0.00    +0.000 C 
ATOM     30  C   UNL     1     108.816 127.852 135.982  0.00  0.00    +0.000 C 
ATOM     31  C   UNL     1     108.630 128.627 135.766  0.00  0.00    +0.000 C 
ATOM     32  C   UNL     1     109.225 129.198 135.726  0.00  0.00    +0.000 C 
ATOM     33  C   UNL     1     110.005 128.994 135.901  0.00  0.00    +0.000 C 
BRANCH  29  34
ATOM     34  C   UNL     1     109.781 126.875 136.372  0.00  0.00    +0.000 C 
BRANCH  34  35
ATOM     35  O   UNL     1     110.393 126.475 135.990  0.00  0.00    +0.000 OA
BRANCH  35  41
ATOM     36  O   UNL     1     111.065 126.017 137.165  0.00  0.00    +0.000 OA
ATOM     37  O   UNL     1     110.739 125.048 135.236  0.00  0.00    +0.000 OA
ATOM     38  O   UNL     1     111.583 123.877 136.034  0.00  0.00    +0.000 OA
ATOM     39  O   UNL     1     112.082 124.132 137.586  0.00  0.00    +0.000 OA
ATOM     40  C   UNL     1     110.988 125.176 136.012  0.00  0.00    +0.000 C 
ATOM     41  C   UNL     1     110.816 125.889 136.389  0.00  0.00    +0.000 C 
ATOM     42  C   UNL     1     111.411 124.590 136.411  0.00  0.00    +0.000 C 
ATOM     43  C   UNL     1     111.660 124.718 137.187  0.00  0.00    +0.000 C 
ATOM     44  C   UNL     1     111.487 125.431 137.564  0.00  0.00    +0.000 C 
ATOM     45  C   UNL     1     111.737 125.558 138.340  0.00  0.00    +0.000 C 
ENDBRANCH  35  41
ENDBRANCH  34  35
ENDBRANCH  29  34
ENDBRANCH  24  33
ENDBRANCH   1  24
TORSDOF 9
ENDMDL
MODEL 2
REMARK VINA RESULT:      -9.5      1.884      5.474
REMARK  Name = 42608018
REMARK  9 active torsions:
REMARK  status: ('A' for Active; 'I' for Inactive)
REMARK    1  A    between atoms: O_2  and  C_21
REMARK    2  A    between atoms: O_2  and  C_25
REMARK    3  A    between atoms: O_6  and  C_24
REMARK    4  A    between atoms: O_6  and  C_28
REMARK    5  A    between atoms: O_12  and  C_33
REMARK    6  A    between atoms: O_14  and  C_39
REMARK    7  A    between atoms: O_15  and  C_41
REMARK    8  A    between atoms: C_16  and  C_25
REMARK    9  A    between atoms: C_29  and  C_30
REMARK                            x       y       z     vdW  Elec       q    Type
REMARK                         _______ _______ _______ _____ _____    ______ ____
ROOT
ATOM      1  C   UNL     1     110.633 125.996 136.014  0.00  0.00    +0.000 A 
ATOM      2  C   UNL     1     109.981 127.512 136.001  0.00  0.00    +0.000 A 
ATOM      3  C   UNL     1     110.314 126.313 136.706  0.00  0.00    +0.000 A 
ATOM      4  C   UNL     1     110.626 126.436 135.316  0.00  0.00    +0.000 A 
ATOM      5  C   UNL     1     109.988 127.072 136.699  0.00  0.00    +0.000 A 
ATOM      6  C   UNL     1     110.300 127.193 135.310  0.00  0.00    +0.000 A 
ENDROOT
BRANCH   2   9
ATOM      7  O   UNL     1     110.136 128.926 136.124  0.00  0.00    +0.000 OA
ATOM      8  O   UNL     1     107.714 129.228 135.715  0.00  0.00    +0.000 OA
ATOM      9  C   UNL     1     109.655 128.269 135.994  0.00  0.00    +0.000 C 
ATOM     10  C   UNL     1     108.847 128.370 135.858  0.00  0.00    +0.000 C 
ATOM     11  C   UNL     1     108.521 129.127 135.851  0.00  0.00    +0.000 C 
ATOM     12  C   UNL     1     109.003 129.784 135.981  0.00  0.00    +0.000 A 
ATOM     13  C   UNL     1     109.810 129.685 136.117  0.00  0.00    +0.000 A 
ATOM     14  C   UNL     1     108.651 130.569 135.972  0.00  0.00    +0.000 A 
ATOM     15  C   UNL     1     110.322 130.361 136.253  0.00  0.00    +0.000 A 
ATOM     16  C   UNL     1     109.989 131.152 136.247  0.00  0.00    +0.000 A 
ATOM     17  C   UNL     1     109.147 131.258 136.106  0.00  0.00    +0.000 A 
BRANCH  14  18
ATOM     18  O   UNL     1     107.843 130.660 135.835  0.00  0.00    +0.000 OA
ATOM     19  C   UNL     1     107.511 131.415 135.809  0.00  0.00    +0.000 C 
ENDBRANCH  14  18
BRANCH  16  20
ATOM     20  O   UNL     1     110.473 131.808 136.377  0.00  0.00    +0.000 OA
ATOM     21  C   UNL     1     110.793 131.943 137.126  0.00  0.00    +0.000 C 
ENDBRANCH  16  20
ENDBRANCH   2   9
BRANCH   5  22
ATOM     22  O   UNL     1     109.669 127.389 137.390  0.00  0.00    +0.000 OA
ATOM     23  C   UNL     1     109.703 126.961 138.095  0.00  0.00    +0.000 C 
ENDBRANCH   5  22
BRANCH   1  24
ATOM     24  O   UNL     1     110.959 125.238 136.022  0.00  0.00    +0.000 OA
BRANCH  24  33
ATOM     25  O   UNL     1     112.259 125.776 136.268  0.00  0.00    +0.000 OA
ATOM     26  O   UNL     1     114.114 124.805 136.889  0.00  0.00    +0.000 OA
ATOM     27  O   UNL     1     113.089 123.513 136.830  0.00  0.00    +0.000 OA
ATOM     28  O   UNL     1     111.512 123.730 136.396  0.00  0.00    +0.000 OA
ATOM     29  C   UNL     1     113.048 125.668 136.485  0.00  0.00    +0.000 C 
ATOM     30  C   UNL     1     113.325 124.914 136.672  0.00  0.00    +0.000 C 
ATOM     31  C   UNL     1     112.812 124.267 136.643  0.00  0.00    +0.000 C 
ATOM     32  C   UNL     1     112.024 124.375 136.426  0.00  0.00    +0.000 C 
ATOM     33  C   UNL     1     111.748 125.130 136.239  0.00  0.00    +0.000 C 
BRANCH  29  34
ATOM     34  C   UNL     1     113.561 126.313 136.515  0.00  0.00    +0.000 C 
BRANCH  34  35
ATOM     35  O   UNL     1     113.454 126.900 137.085  0.00  0.00    +0.000 OA
BRANCH  35  41
ATOM     36  O   UNL     1     113.850 127.895 136.139  0.00  0.00    +0.000 OA
ATOM     37  O   UNL     1     113.120 128.081 138.188  0.00  0.00    +0.000 OA
ATOM     38  O   UNL     1     113.350 129.666 137.794  0.00  0.00    +0.000 OA
ATOM     39  O   UNL     1     113.914 130.071 136.297  0.00  0.00    +0.000 OA
ATOM     40  C   UNL     1     113.402 128.283 137.439  0.00  0.00    +0.000 C 
ATOM     41  C   UNL     1     113.569 127.692 136.887  0.00  0.00    +0.000 C 
ATOM     42  C   UNL     1     113.517 129.076 137.242  0.00  0.00    +0.000 C 
ATOM     43  C   UNL     1     113.799 129.278 136.493  0.00  0.00    +0.000 C 
ATOM     44  C   UNL     1     113.966 128.688 135.942  0.00  0.00    +0.000 C 
ATOM     45  C   UNL     1     114.247 128.890 135.194  0.00  0.00    +0.000 C 
ENDBRANCH  35  41
ENDBRANCH  34  35
ENDBRANCH  29  34
ENDBRANCH  24  33
ENDBRANCH   1  24
TORSDOF 9
ENDMDL
MODEL 3
REMARK VINA RESULT:      -9.5      1.474      5.451
REMARK  Name = 42608018
REMARK  9 active torsions:
REMARK  status: ('A' for Active; 'I' for Inactive)
REMARK    1  A    between atoms: O_2  and  C_21
REMARK    2  A    between atoms: O_2  and  C_25
REMARK    3  A    between atoms: O_6  and  C_24
REMARK    4  A    between atoms: O_6  and  C_28
REMARK    5  A    between atoms: O_12  and  C_33
REMARK    6  A    between atoms: O_14  and  C_39
REMARK    7  A    between atoms: O_15  and  C_41
REMARK    8  A    between atoms: C_16  and  C_25
REMARK    9  A    between atoms: C_29  and  C_30
REMARK                            x       y       z     vdW  Elec       q    Type
REMARK                         _______ _______ _______ _____ _____    ______ ____
ROOT
ATOM      1  C   UNL     1     110.607 125.962 136.805  0.00  0.00    +0.000 A 
ATOM      2  C   UNL     1     110.002 127.475 136.545  0.00  0.00    +0.000 A 
ATOM      3  C   UNL     1     110.190 126.347 137.404  0.00  0.00    +0.000 A 
ATOM      4  C   UNL     1     110.722 126.333 136.077  0.00  0.00    +0.000 A 
ATOM      5  C   UNL     1     109.887 127.104 137.273  0.00  0.00    +0.000 A 
ATOM      6  C   UNL     1     110.419 127.089 135.948  0.00  0.00    +0.000 A 
ENDROOT
BRANCH   2   9
ATOM      7  O   UNL     1     110.166 128.894 136.570  0.00  0.00    +0.000 OA
ATOM      8  O   UNL     1     107.858 129.175 135.720  0.00  0.00    +0.000 OA
ATOM      9  C   UNL     1     109.699 128.231 136.416  0.00  0.00    +0.000 C 
ATOM     10  C   UNL     1     108.930 128.325 136.133  0.00  0.00    +0.000 C 
ATOM     11  C   UNL     1     108.627 129.081 136.003  0.00  0.00    +0.000 C 
ATOM     12  C   UNL     1     109.094 129.744 136.157  0.00  0.00    +0.000 A 
ATOM     13  C   UNL     1     109.863 129.651 136.440  0.00  0.00    +0.000 A 
ATOM     14  C   UNL     1     108.767 130.526 136.018  0.00  0.00    +0.000 A 
ATOM     15  C   UNL     1     110.358 130.333 136.604  0.00  0.00    +0.000 A 
ATOM     16  C   UNL     1     110.049 131.123 136.471  0.00  0.00    +0.000 A 
ATOM     17  C   UNL     1     109.248 131.222 136.176  0.00  0.00    +0.000 A 
BRANCH  14  18
ATOM     18  O   UNL     1     107.997 130.611 135.734  0.00  0.00    +0.000 OA
ATOM     19  C   UNL     1     107.637 131.353 135.733  0.00  0.00    +0.000 C 
ENDBRANCH  14  18
BRANCH  16  20
ATOM     20  O   UNL     1     110.518 131.784 136.626  0.00  0.00    +0.000 OA
ATOM     21  C   UNL     1     110.784 131.932 137.393  0.00  0.00    +0.000 C 
ENDBRANCH  16  20
ENDBRANCH   2   9
BRANCH   5  22
ATOM     22  O   UNL     1     109.470 127.489 137.872  0.00  0.00    +0.000 OA
ATOM     23  C   UNL     1     109.436 127.161 138.628  0.00  0.00    +0.000 C 
ENDBRANCH   5  22
BRANCH   1  24
ATOM     24  O   UNL     1     110.910 125.206 136.935  0.00  0.00    +0.000 OA
BRANCH  24  33
ATOM     25  O   UNL     1     112.086 125.586 137.652  0.00  0.00    +0.000 OA
ATOM     26  O   UNL     1     114.121 124.799 137.580  0.00  0.00    +0.000 OA
ATOM     27  O   UNL     1     113.374 123.836 136.468  0.00  0.00    +0.000 OA
ATOM     28  O   UNL     1     111.769 124.039 136.145  0.00  0.00    +0.000 OA
ATOM     29  C   UNL     1     112.888 125.484 137.813  0.00  0.00    +0.000 C 
ATOM     30  C   UNL     1     113.318 124.901 137.419  0.00  0.00    +0.000 C 
ATOM     31  C   UNL     1     112.944 124.419 136.862  0.00  0.00    +0.000 C 
ATOM     32  C   UNL     1     112.142 124.521 136.701  0.00  0.00    +0.000 C 
ATOM     33  C   UNL     1     111.713 125.104 137.097  0.00  0.00    +0.000 C 
BRANCH  29  34
ATOM     34  C   UNL     1     113.262 125.965 138.369  0.00  0.00    +0.000 C 
BRANCH  34  35
ATOM     35  O   UNL     1     113.121 126.778 138.373  0.00  0.00    +0.000 OA
BRANCH  35  41
ATOM     36  O   UNL     1     113.694 126.872 139.679  0.00  0.00    +0.000 OA
ATOM     37  O   UNL     1     112.924 128.416 138.342  0.00  0.00    +0.000 OA
ATOM     38  O   UNL     1     113.397 129.329 139.632  0.00  0.00    +0.000 OA
ATOM     39  O   UNL     1     114.069 128.604 140.954  0.00  0.00    +0.000 OA
ATOM     40  C   UNL     1     113.260 128.053 139.003  0.00  0.00    +0.000 C 
ATOM     41  C   UNL     1     113.358 127.234 139.019  0.00  0.00    +0.000 C 
ATOM     42  C   UNL     1     113.496 128.510 139.648  0.00  0.00    +0.000 C 
ATOM     43  C   UNL     1     113.832 128.147 140.309  0.00  0.00    +0.000 C 
ATOM     44  C   UNL     1     113.931 127.328 140.325  0.00  0.00    +0.000 C 
ATOM     45  C   UNL     1     114.267 126.966 140.985  0.00  0.00    +0.000 C 
ENDBRANCH  35  41
ENDBRANCH  34  35
ENDBRANCH  29  34
ENDBRANCH  24  33
ENDBRANCH   1  24
TORSDOF 9
ENDMDL
MODEL 4
REMARK VINA RESULT:      -9.5      1.681      4.898
REMARK  Name = 42608018
REMARK  9 active torsions:
REMARK  status: ('A' for Active; 'I' for Inactive)
REMARK    1  A    between atoms: O_2  and  C_21
REMARK    2  A    between atoms: O_2  and  C_25
REMARK    3  A    between atoms: O_6  and  C_24
REMARK    4  A    between atoms: O_6  and  C_28
REMARK    5  A    between atoms: O_12  and  C_33
REMARK    6  A    between atoms: O_14  and  C_39
REMARK    7  A    between atoms: O_15  and  C_41
REMARK    8  A    between atoms: C_16  and  C_25
REMARK    9  A    between atoms: C_29  and  C_30
REMARK                            x       y       z     vdW  Elec       q    Type
REMARK                         _______ _______ _______ _____ _____    ______ ____
ROOT
ATOM      1  C   UNL     1     109.156 128.922 135.610  0.00  0.00    +0.000 A 
ATOM      2  C   UNL     1     110.038 127.576 135.972  0.00  0.00    +0.000 A 
ATOM      3  C   UNL     1     109.882 128.794 135.241  0.00  0.00    +0.000 A 
ATOM      4  C   UNL     1     108.871 128.378 136.161  0.00  0.00    +0.000 A 
ATOM      5  C   UNL     1     110.323 128.120 135.422  0.00  0.00    +0.000 A 
ATOM      6  C   UNL     1     109.312 127.705 136.342  0.00  0.00    +0.000 A 
ENDROOT
BRANCH   2   9
ATOM      7  O   UNL     1     111.033 126.925 136.764  0.00  0.00    +0.000 OA
ATOM      8  O   UNL     1     110.695 124.839 135.475  0.00  0.00    +0.000 OA
ATOM      9  C   UNL     1     110.479 126.903 136.153  0.00  0.00    +0.000 C 
ATOM     10  C   UNL     1     110.367 126.207 135.724  0.00  0.00    +0.000 C 
ATOM     11  C   UNL     1     110.808 125.535 135.905  0.00  0.00    +0.000 C 
ATOM     12  C   UNL     1     111.362 125.557 136.515  0.00  0.00    +0.000 A 
ATOM     13  C   UNL     1     111.475 126.252 136.945  0.00  0.00    +0.000 A 
ATOM     14  C   UNL     1     111.815 124.849 136.694  0.00  0.00    +0.000 A 
ATOM     15  C   UNL     1     112.050 126.287 137.583  0.00  0.00    +0.000 A 
ATOM     16  C   UNL     1     112.512 125.590 137.776  0.00  0.00    +0.000 A 
ATOM     17  C   UNL     1     112.395 124.865 137.329  0.00  0.00    +0.000 A 
BRANCH  14  18
ATOM     18  O   UNL     1     111.696 124.158 136.260  0.00  0.00    +0.000 OA
ATOM     19  C   UNL     1     111.958 123.434 136.556  0.00  0.00    +0.000 C 
ENDBRANCH  14  18
BRANCH  16  20
ATOM     20  O   UNL     1     113.066 125.615 138.387  0.00  0.00    +0.000 OA
ATOM     21  C   UNL     1     113.824 125.910 138.246  0.00  0.00    +0.000 C 
ENDBRANCH  16  20
ENDBRANCH   2   9
BRANCH   5  22
ATOM     22  O   UNL     1     111.049 127.992 135.052  0.00  0.00    +0.000 OA
ATOM     23  C   UNL     1     111.401 128.595 134.612  0.00  0.00    +0.000 C 
ENDBRANCH   5  22
BRANCH   1  24
ATOM     24  O   UNL     1     108.715 129.595 135.429  0.00  0.00    +0.000 OA
BRANCH  24  33
ATOM     25  O   UNL     1     109.487 130.466 136.257  0.00  0.00    +0.000 OA
ATOM     26  O   UNL     1     108.927 132.274 137.344  0.00  0.00    +0.000 OA
ATOM     27  O   UNL     1     107.487 131.871 136.645  0.00  0.00    +0.000 OA
ATOM     28  O   UNL     1     107.381 130.532 135.688  0.00  0.00    +0.000 OA
ATOM     29  C   UNL     1     109.540 131.136 136.736  0.00  0.00    +0.000 C 
ATOM     30  C   UNL     1     108.874 131.605 136.866  0.00  0.00    +0.000 C 
ATOM     31  C   UNL     1     108.154 131.403 136.516  0.00  0.00    +0.000 C 
ATOM     32  C   UNL     1     108.101 130.733 136.037  0.00  0.00    +0.000 C 
ATOM     33  C   UNL     1     108.768 130.265 135.908  0.00  0.00    +0.000 C 
BRANCH  29  34
ATOM     34  C   UNL     1     110.259 131.338 137.085  0.00  0.00    +0.000 C 
BRANCH  34  35
ATOM     35  O   UNL     1     110.587 130.852 137.667  0.00  0.00    +0.000 OA
BRANCH  35  41
ATOM     36  O   UNL     1     111.900 131.253 137.269  0.00  0.00    +0.000 OA
ATOM     37  O   UNL     1     111.238 129.738 138.695  0.00  0.00    +0.000 OA
ATOM     38  O   UNL     1     112.876 129.582 138.812  0.00  0.00    +0.000 OA
ATOM     39  O   UNL     1     113.864 130.539 137.900  0.00  0.00    +0.000 OA
ATOM     40  C   UNL     1     111.732 130.218 138.239  0.00  0.00    +0.000 C 
ATOM     41  C   UNL     1     111.406 130.774 137.725  0.00  0.00    +0.000 C 
ATOM     42  C   UNL     1     112.551 130.139 138.298  0.00  0.00    +0.000 C 
ATOM     43  C   UNL     1     113.045 130.618 137.842  0.00  0.00    +0.000 C 
ATOM     44  C   UNL     1     112.719 131.175 137.327  0.00  0.00    +0.000 C 
ATOM     45  C   UNL     1     113.213 131.653 136.872  0.00  0.00    +0.000 C 
ENDBRANCH  35  41
ENDBRANCH  34  35
ENDBRANCH  29  34
ENDBRANCH  24  33
ENDBRANCH   1  24
TORSDOF 9
ENDMDL
MODEL 5
REMARK VINA RESULT:      -9.4      1.895      5.443
REMARK  Name = 42608018
REMARK  9 active torsions:
REMARK  status: ('A' for Active; 'I' for Inactive)
REMARK    1  A    between atoms: O_2  and  C_21
REMARK    2  A    between atoms: O_2  and  C_25
REMARK    3  A    between atoms: O_6  and  C_24
REMARK    4  A    between atoms: O_6  and  C_28
REMARK    5  A    between atoms: O_12  and  C_33
REMARK    6  A    between atoms: O_14  and  C_39
REMARK    7  A    between atoms: O_15  and  C_41
REMARK    8  A    between atoms: C_16  and  C_25
REMARK    9  A    between atoms: C_29  and  C_30
REMARK                            x       y       z     vdW  Elec       q    Type
REMARK                         _______ _______ _______ _____ _____    ______ ____
ROOT
ATOM      1  C   UNL     1     112.142 129.163 139.175  0.00  0.00    +0.000 A 
ATOM      2  C   UNL     1     112.067 127.745 138.335  0.00  0.00    +0.000 A 
ATOM      3  C   UNL     1     112.517 129.098 138.443  0.00  0.00    +0.000 A 
ATOM      4  C   UNL     1     111.730 128.520 139.487  0.00  0.00    +0.000 A 
ATOM      5  C   UNL     1     112.479 128.388 138.023  0.00  0.00    +0.000 A 
ATOM      6  C   UNL     1     111.693 127.812 139.067  0.00  0.00    +0.000 A 
ENDROOT
BRANCH   2   9
ATOM      7  O   UNL     1     111.454 126.932 137.334  0.00  0.00    +0.000 OA
ATOM      8  O   UNL     1     113.069 125.119 137.816  0.00  0.00    +0.000 OA
ATOM      9  C   UNL     1     112.030 127.037 137.915  0.00  0.00    +0.000 C 
ATOM     10  C   UNL     1     112.568 126.432 138.076  0.00  0.00    +0.000 C 
ATOM     11  C   UNL     1     112.531 125.724 137.656  0.00  0.00    +0.000 C 
ATOM     12  C   UNL     1     111.955 125.619 137.075  0.00  0.00    +0.000 A 
ATOM     13  C   UNL     1     111.416 126.222 136.913  0.00  0.00    +0.000 A 
ATOM     14  C   UNL     1     111.926 124.876 136.644  0.00  0.00    +0.000 A 
ATOM     15  C   UNL     1     110.812 126.125 136.310  0.00  0.00    +0.000 A 
ATOM     16  C   UNL     1     110.768 125.390 135.870  0.00  0.00    +0.000 A 
ATOM     17  C   UNL     1     111.328 124.760 136.037  0.00  0.00    +0.000 A 
BRANCH  14  18
ATOM     18  O   UNL     1     112.468 124.277 136.811  0.00  0.00    +0.000 OA
ATOM     19  C   UNL     1     112.253 123.486 136.715  0.00  0.00    +0.000 C 
ENDBRANCH  14  18
BRANCH  16  20
ATOM     20  O   UNL     1     110.191 125.288 135.289  0.00  0.00    +0.000 OA
ATOM     21  C   UNL     1     110.105 125.847 134.688  0.00  0.00    +0.000 C 
ENDBRANCH  16  20
ENDBRANCH   2   9
BRANCH   5  22
ATOM     22  O   UNL     1     112.854 128.323 137.291  0.00  0.00    +0.000 OA
ATOM     23  C   UNL     1     113.280 128.960 136.986  0.00  0.00    +0.000 C 
ENDBRANCH   5  22
BRANCH   1  24
ATOM     24  O   UNL     1     112.180 129.873 139.595  0.00  0.00    +0.000 OA
BRANCH  24  33
ATOM     25  O   UNL     1     111.012 130.456 139.016  0.00  0.00    +0.000 OA
ATOM     26  O   UNL     1     109.497 131.773 139.873  0.00  0.00    +0.000 OA
ATOM     27  O   UNL     1     110.492 131.557 141.171  0.00  0.00    +0.000 OA
ATOM     28  O   UNL     1     111.834 130.606 141.032  0.00  0.00    +0.000 OA
ATOM     29  C   UNL     1     110.341 130.931 139.085  0.00  0.00    +0.000 C 
ATOM     30  C   UNL     1     110.168 131.298 139.803  0.00  0.00    +0.000 C 
ATOM     31  C   UNL     1     110.666 131.190 140.453  0.00  0.00    +0.000 C 
ATOM     32  C   UNL     1     111.337 130.714 140.383  0.00  0.00    +0.000 C 
ATOM     33  C   UNL     1     111.509 130.348 139.664  0.00  0.00    +0.000 C 
BRANCH  29  34
ATOM     34  C   UNL     1     109.843 131.040 138.437  0.00  0.00    +0.000 C 
BRANCH  34  35
ATOM     35  O   UNL     1     109.625 130.395 137.971  0.00  0.00    +0.000 OA
BRANCH  35  41
ATOM     36  O   UNL     1     109.229 131.279 136.920  0.00  0.00    +0.000 OA
ATOM     37  O   UNL     1     108.988 129.120 137.139  0.00  0.00    +0.000 OA
ATOM     38  O   UNL     1     108.273 129.366 135.672  0.00  0.00    +0.000 OA
ATOM     39  O   UNL     1     108.195 130.888 135.037  0.00  0.00    +0.000 OA
ATOM     40  C   UNL     1     108.949 129.881 136.821  0.00  0.00    +0.000 C 
ATOM     41  C   UNL     1     109.268 130.519 137.237  0.00  0.00    +0.000 C 
ATOM     42  C   UNL     1     108.592 130.004 136.088  0.00  0.00    +0.000 C 
ATOM     43  C   UNL     1     108.553 130.765 135.771  0.00  0.00    +0.000 C 
ATOM     44  C   UNL     1     108.871 131.402 136.187  0.00  0.00    +0.000 C 
ATOM     45  C   UNL     1     108.832 132.162 135.869  0.00  0.00    +0.000 C 
ENDBRANCH  35  41
ENDBRANCH  34  35
ENDBRANCH  29  34
ENDBRANCH  24  33
ENDBRANCH   1  24
TORSDOF 9
ENDMDL
MODEL 6
REMARK VINA RESULT:      -9.4      1.854      4.878
REMARK  Name = 42608018
REMARK  9 active torsions:
REMARK  status: ('A' for Active; 'I' for Inactive)
REMARK    1  A    between atoms: O_2  and  C_21
REMARK    2  A    between atoms: O_2  and  C_25
REMARK    3  A    between atoms: O_6  and  C_24
REMARK    4  A    between atoms: O_6  and  C_28
REMARK    5  A    between atoms: O_12  and  C_33
REMARK    6  A    between atoms: O_14  and  C_39
REMARK    7  A    between atoms: O_15  and  C_41
REMARK    8  A    between atoms: C_16  and  C_25
REMARK    9  A    between atoms: C_29  and  C_30
REMARK                            x       y       z     vdW  Elec       q    Type
REMARK                         _______ _______ _______ _____ _____    ______ ____
ROOT
ATOM      1  C   UNL     1     109.395 128.640 136.253  0.00  0.00    +0.000 A 
ATOM      2  C   UNL     1     110.637 127.560 136.355  0.00  0.00    +0.000 A 
ATOM      3  C   UNL     1     109.606 128.324 136.984  0.00  0.00    +0.000 A 
ATOM      4  C   UNL     1     109.804 128.417 135.572  0.00  0.00    +0.000 A 
ATOM      5  C   UNL     1     110.227 127.783 137.036  0.00  0.00    +0.000 A 
ATOM      6  C   UNL     1     110.425 127.877 135.624  0.00  0.00    +0.000 A 
ENDROOT
BRANCH   2   9
ATOM      7  O   UNL     1     111.101 126.210 136.403  0.00  0.00    +0.000 OA
ATOM      8  O   UNL     1     113.435 127.018 136.569  0.00  0.00    +0.000 OA
ATOM      9  C   UNL     1     111.258 127.020 136.407  0.00  0.00    +0.000 C 
ATOM     10  C   UNL     1     112.036 127.289 136.462  0.00  0.00    +0.000 C 
ATOM     11  C   UNL     1     112.657 126.749 136.514  0.00  0.00    +0.000 C 
ATOM     12  C   UNL     1     112.500 125.939 136.510  0.00  0.00    +0.000 A 
ATOM     13  C   UNL     1     111.723 125.669 136.455  0.00  0.00    +0.000 A 
ATOM     14  C   UNL     1     113.156 125.386 136.564  0.00  0.00    +0.000 A 
ATOM     15  C   UNL     1     111.547 124.828 136.450  0.00  0.00    +0.000 A 
ATOM     16  C   UNL     1     112.189 124.260 136.504  0.00  0.00    +0.000 A 
ATOM     17  C   UNL     1     113.000 124.540 136.561  0.00  0.00    +0.000 A 
BRANCH  14  18
ATOM     18  O   UNL     1     113.931 125.664 136.619  0.00  0.00    +0.000 OA
ATOM     19  C   UNL     1     114.562 125.132 136.618  0.00  0.00    +0.000 C 
ENDBRANCH  14  18
BRANCH  16  20
ATOM     20  O   UNL     1     112.029 123.451 136.500  0.00  0.00    +0.000 OA
ATOM     21  C   UNL     1     111.892 123.053 137.210  0.00  0.00    +0.000 C 
ENDBRANCH  16  20
ENDBRANCH   2   9
BRANCH   5  22
ATOM     22  O   UNL     1     110.438 127.466 137.767  0.00  0.00    +0.000 OA
ATOM     23  C   UNL     1     110.024 127.684 138.447  0.00  0.00    +0.000 C 
ENDBRANCH   5  22
BRANCH   1  24
ATOM     24  O   UNL     1     108.773 129.181 136.202  0.00  0.00    +0.000 OA
BRANCH  24  33
ATOM     25  O   UNL     1     109.684 130.263 136.399  0.00  0.00    +0.000 OA
ATOM     26  O   UNL     1     109.394 132.421 136.247  0.00  0.00    +0.000 OA
ATOM     27  O   UNL     1     107.882 131.876 135.874  0.00  0.00    +0.000 OA
ATOM     28  O   UNL     1     107.572 130.256 135.852  0.00  0.00    +0.000 OA
ATOM     29  C   UNL     1     109.839 131.073 136.411  0.00  0.00    +0.000 C 
ATOM     30  C   UNL     1     109.239 131.611 136.236  0.00  0.00    +0.000 C 
ATOM     31  C   UNL     1     108.482 131.338 136.049  0.00  0.00    +0.000 C 
ATOM     32  C   UNL     1     108.327 130.528 136.038  0.00  0.00    +0.000 C 
ATOM     33  C   UNL     1     108.928 129.991 136.213  0.00  0.00    +0.000 C 
BRANCH  29  34
ATOM     34  C   UNL     1     110.595 131.347 136.597  0.00  0.00    +0.000 C 
BRANCH  34  35
ATOM     35  O   UNL     1     110.901 131.229 137.354  0.00  0.00    +0.000 OA
BRANCH  35  41
ATOM     36  O   UNL     1     112.190 130.973 136.792  0.00  0.00    +0.000 OA
ATOM     37  O   UNL     1     111.529 131.064 138.871  0.00  0.00    +0.000 OA
ATOM     38  O   UNL     1     113.132 130.726 139.068  0.00  0.00    +0.000 OA
ATOM     39  O   UNL     1     114.107 130.552 137.748  0.00  0.00    +0.000 OA
ATOM     40  C   UNL     1     112.017 130.977 138.210  0.00  0.00    +0.000 C 
ATOM     41  C   UNL     1     111.703 131.060 137.452  0.00  0.00    +0.000 C 
ATOM     42  C   UNL     1     112.818 130.808 138.309  0.00  0.00    +0.000 C 
ATOM     43  C   UNL     1     113.306 130.721 137.649  0.00  0.00    +0.000 C 
ATOM     44  C   UNL     1     112.992 130.804 136.890  0.00  0.00    +0.000 C 
ATOM     45  C   UNL     1     113.479 130.717 136.231  0.00  0.00    +0.000 C 
ENDBRANCH  35  41
ENDBRANCH  34  35
ENDBRANCH  29  34
ENDBRANCH  24  33
ENDBRANCH   1  24
TORSDOF 9
ENDMDL
MODEL 7
REMARK VINA RESULT:      -9.4      1.699      4.448
REMARK  Name = 42608018
REMARK  9 active torsions:
REMARK  status: ('A' for Active; 'I' for Inactive)
REMARK    1  A    between atoms: O_2  and  C_21
REMARK    2  A    between atoms: O_2  and  C_25
REMARK    3  A    between atoms: O_6  and  C_24
REMARK    4  A    between atoms: O_6  and  C_28
REMARK    5  A    between atoms: O_12  and  C_33
REMARK    6  A    between atoms: O_14  and  C_39
REMARK    7  A    between atoms: O_15  and  C_41
REMARK    8  A    between atoms: C_16  and  C_25
REMARK    9  A    between atoms: C_29  and  C_30
REMARK                            x       y       z     vdW  Elec       q    Type
REMARK                         _______ _______ _______ _____ _____    ______ ____
ROOT
ATOM      1  C   UNL     1     113.655 127.355 136.871  0.00  0.00    +0.000 A 
ATOM      2  C   UNL     1     112.752 128.736 136.859  0.00  0.00    +0.000 A 
ATOM      3  C   UNL     1     113.386 127.677 137.581  0.00  0.00    +0.000 A 
ATOM      4  C   UNL     1     113.473 127.723 136.155  0.00  0.00    +0.000 A 
ATOM      5  C   UNL     1     112.934 128.368 137.575  0.00  0.00    +0.000 A 
ATOM      6  C   UNL     1     113.022 128.413 136.150  0.00  0.00    +0.000 A 
ENDROOT
BRANCH   2   9
ATOM      7  O   UNL     1     111.482 129.382 136.768  0.00  0.00    +0.000 OA
ATOM      8  O   UNL     1     112.585 131.585 137.009  0.00  0.00    +0.000 OA
ATOM      9  C   UNL     1     112.302 129.426 136.854  0.00  0.00    +0.000 C 
ATOM     10  C   UNL     1     112.669 130.161 136.934  0.00  0.00    +0.000 C 
ATOM     11  C   UNL     1     112.218 130.851 136.929  0.00  0.00    +0.000 C 
ATOM     12  C   UNL     1     111.399 130.807 136.843  0.00  0.00    +0.000 A 
ATOM     13  C   UNL     1     111.030 130.073 136.762  0.00  0.00    +0.000 A 
ATOM     14  C   UNL     1     110.939 131.534 136.839  0.00  0.00    +0.000 A 
ATOM     15  C   UNL     1     110.178 130.015 136.672  0.00  0.00    +0.000 A 
ATOM     16  C   UNL     1     109.702 130.730 136.666  0.00  0.00    +0.000 A 
ATOM     17  C   UNL     1     110.085 131.495 136.749  0.00  0.00    +0.000 A 
BRANCH  14  18
ATOM     18  O   UNL     1     111.315 132.264 136.920  0.00  0.00    +0.000 OA
ATOM     19  C   UNL     1     110.871 132.958 136.924  0.00  0.00    +0.000 C 
ENDBRANCH  14  18
BRANCH  16  20
ATOM     20  O   UNL     1     108.883 130.683 136.579  0.00  0.00    +0.000 OA
ATOM     21  C   UNL     1     108.556 130.438 135.862  0.00  0.00    +0.000 C 
ENDBRANCH  16  20
ENDBRANCH   2   9
BRANCH   5  22
ATOM     22  O   UNL     1     112.665 128.690 138.285  0.00  0.00    +0.000 OA
ATOM     23  C   UNL     1     112.839 128.317 139.000  0.00  0.00    +0.000 C 
ENDBRANCH   5  22
BRANCH   1  24
ATOM     24  O   UNL     1     114.106 126.664 136.877  0.00  0.00    +0.000 OA
BRANCH  24  33
ATOM     25  O   UNL     1     112.940 125.870 136.658  0.00  0.00    +0.000 OA
ATOM     26  O   UNL     1     112.619 123.718 136.844  0.00  0.00    +0.000 OA
ATOM     27  O   UNL     1     114.210 123.835 137.265  0.00  0.00    +0.000 OA
ATOM     28  O   UNL     1     114.954 125.308 137.282  0.00  0.00    +0.000 OA
ATOM     29  C   UNL     1     112.568 125.133 136.650  0.00  0.00    +0.000 C 
ATOM     30  C   UNL     1     112.991 124.455 136.852  0.00  0.00    +0.000 C 
ATOM     31  C   UNL     1     113.787 124.513 137.063  0.00  0.00    +0.000 C 
ATOM     32  C   UNL     1     114.159 125.250 137.071  0.00  0.00    +0.000 C 
ATOM     33  C   UNL     1     113.735 125.928 136.869  0.00  0.00    +0.000 C 
BRANCH  29  34
ATOM     34  C   UNL     1     111.773 125.075 136.439  0.00  0.00    +0.000 C 
BRANCH  34  35
ATOM     35  O   UNL     1     111.192 125.404 136.924  0.00  0.00    +0.000 OA
BRANCH  35  41
ATOM     36  O   UNL     1     110.447 125.794 135.768  0.00  0.00    +0.000 OA
ATOM     37  O   UNL     1     110.071 126.133 137.891  0.00  0.00    +0.000 OA
ATOM     38  O   UNL     1     108.767 126.887 137.219  0.00  0.00    +0.000 OA
ATOM     39  O   UNL     1     108.582 126.912 135.579  0.00  0.00    +0.000 OA
ATOM     40  C   UNL     1     109.979 126.145 137.071  0.00  0.00    +0.000 C 
ATOM     41  C   UNL     1     110.539 125.781 136.587  0.00  0.00    +0.000 C 
ATOM     42  C   UNL     1     109.327 126.523 136.735  0.00  0.00    +0.000 C 
ATOM     43  C   UNL     1     109.235 126.535 135.915  0.00  0.00    +0.000 C 
ATOM     44  C   UNL     1     109.795 126.170 135.431  0.00  0.00    +0.000 C 
ATOM     45  C   UNL     1     109.703 126.183 134.612  0.00  0.00    +0.000 C 
ENDBRANCH  35  41
ENDBRANCH  34  35
ENDBRANCH  29  34
ENDBRANCH  24  33
ENDBRANCH   1  24
TORSDOF 9
ENDMDL
MODEL 8
REMARK VINA RESULT:      -9.3      2.548      6.322
REMARK  Name = 42608018
REMARK  9 active torsions:
REMARK  status: ('A' for Active; 'I' for Inactive)
REMARK    1  A    between atoms: O_2  and  C_21
REMARK    2  A    between atoms: O_2  and  C_25
REMARK    3  A    between atoms: O_6  and  C_24
REMARK    4  A    between atoms: O_6  and  C_28
REMARK    5  A    between atoms: O_12  and  C_33
REMARK    6  A    between atoms: O_14  and  C_39
REMARK    7  A    between atoms: O_15  and  C_41
REMARK    8  A    between atoms: C_16  and  C_25
REMARK    9  A    between atoms: C_29  and  C_30
REMARK                            x       y       z     vdW  Elec       q    Type
REMARK                         _______ _______ _______ _____ _____    ______ ____
ROOT
ATOM      1  C   UNL     1     110.644 127.783 140.783  0.00  0.00    +0.000 A 
ATOM      2  C   UNL     1     111.515 126.904 139.691  0.00  0.00    +0.000 A 
ATOM      3  C   UNL     1     110.817 128.101 140.042  0.00  0.00    +0.000 A 
ATOM      4  C   UNL     1     110.906 127.025 140.978  0.00  0.00    +0.000 A 
ATOM      5  C   UNL     1     111.253 127.662 139.496  0.00  0.00    +0.000 A 
ATOM      6  C   UNL     1     111.342 126.586 140.433  0.00  0.00    +0.000 A 
ENDROOT
BRANCH   2   9
ATOM      7  O   UNL     1     111.562 126.027 138.566  0.00  0.00    +0.000 OA
ATOM      8  O   UNL     1     114.035 126.026 138.667  0.00  0.00    +0.000 OA
ATOM      9  C   UNL     1     111.951 126.466 139.146  0.00  0.00    +0.000 C 
ATOM     10  C   UNL     1     112.775 126.465 139.179  0.00  0.00    +0.000 C 
ATOM     11  C   UNL     1     113.210 126.027 138.633  0.00  0.00    +0.000 C 
ATOM     12  C   UNL     1     112.822 125.588 138.053  0.00  0.00    +0.000 A 
ATOM     13  C   UNL     1     111.997 125.587 138.019  0.00  0.00    +0.000 A 
ATOM     14  C   UNL     1     113.287 125.134 137.490  0.00  0.00    +0.000 A 
ATOM     15  C   UNL     1     111.581 125.134 137.419  0.00  0.00    +0.000 A 
ATOM     16  C   UNL     1     112.028 124.675 136.848  0.00  0.00    +0.000 A 
ATOM     17  C   UNL     1     112.887 124.674 136.883  0.00  0.00    +0.000 A 
BRANCH  14  18
ATOM     18  O   UNL     1     114.110 125.140 137.531  0.00  0.00    +0.000 OA
ATOM     19  C   UNL     1     114.545 124.525 137.194  0.00  0.00    +0.000 C 
ENDBRANCH  14  18
BRANCH  16  20
ATOM     20  O   UNL     1     111.637 124.237 136.269  0.00  0.00    +0.000 OA
ATOM     21  C   UNL     1     111.225 124.622 135.667  0.00  0.00    +0.000 C 
ENDBRANCH  16  20
ENDBRANCH   2   9
BRANCH   5  22
ATOM     22  O   UNL     1     111.426 127.981 138.755  0.00  0.00    +0.000 OA
ATOM     23  C   UNL     1     111.152 128.733 138.555  0.00  0.00    +0.000 C 
ENDBRANCH   5  22
BRANCH   1  24
ATOM     24  O   UNL     1     110.209 128.222 141.328  0.00  0.00    +0.000 OA
BRANCH  24  33
ATOM     25  O   UNL     1     111.349 128.893 141.867  0.00  0.00    +0.000 OA
ATOM     26  O   UNL     1     111.731 129.684 143.865  0.00  0.00    +0.000 OA
ATOM     27  O   UNL     1     110.211 129.072 144.057  0.00  0.00    +0.000 OA
ATOM     28  O   UNL     1     109.449 128.341 142.789  0.00  0.00    +0.000 OA
ATOM     29  C   UNL     1     111.729 129.259 142.501  0.00  0.00    +0.000 C 
ATOM     30  C   UNL     1     111.350 129.319 143.231  0.00  0.00    +0.000 C 
ATOM     31  C   UNL     1     110.590 129.012 143.327  0.00  0.00    +0.000 C 
ATOM     32  C   UNL     1     110.209 128.647 142.693  0.00  0.00    +0.000 C 
ATOM     33  C   UNL     1     110.589 128.588 141.963  0.00  0.00    +0.000 C 
BRANCH  29  34
ATOM     34  C   UNL     1     112.489 129.565 142.406  0.00  0.00    +0.000 C 
BRANCH  34  35
ATOM     35  O   UNL     1     112.634 130.141 141.833  0.00  0.00    +0.000 OA
BRANCH  35  41
ATOM     36  O   UNL     1     113.729 129.534 141.144  0.00  0.00    +0.000 OA
ATOM     37  O   UNL     1     113.429 131.587 141.823  0.00  0.00    +0.000 OA
ATOM     38  O   UNL     1     114.921 131.703 141.129  0.00  0.00    +0.000 OA
ATOM     39  O   UNL     1     115.619 130.373 140.445  0.00  0.00    +0.000 OA
ATOM     40  C   UNL     1     113.778 130.921 141.481  0.00  0.00    +0.000 C 
ATOM     41  C   UNL     1     113.380 130.198 141.486  0.00  0.00    +0.000 C 
ATOM     42  C   UNL     1     114.524 130.980 141.134  0.00  0.00    +0.000 C 
ATOM     43  C   UNL     1     114.873 130.315 140.791  0.00  0.00    +0.000 C 
ATOM     44  C   UNL     1     114.475 129.592 140.796  0.00  0.00    +0.000 C 
ATOM     45  C   UNL     1     114.824 128.928 140.455  0.00  0.00    +0.000 C 
ENDBRANCH  35  41
ENDBRANCH  34  35
ENDBRANCH  29  34
ENDBRANCH  24  33
ENDBRANCH   1  24
TORSDOF 9
ENDMDL
MODEL 9
REMARK VINA RESULT:      -9.2      7.844      9.644
REMARK  Name = 42608018
REMARK  9 active torsions:
REMARK  status: ('A' for Active; 'I' for Inactive)
REMARK    1  A    between atoms: O_2  and  C_21
REMARK    2  A    between atoms: O_2  and  C_25
REMARK    3  A    between atoms: O_6  and  C_24
REMARK    4  A    between atoms: O_6  and  C_28
REMARK    5  A    between atoms: O_12  and  C_33
REMARK    6  A    between atoms: O_14  and  C_39
REMARK    7  A    between atoms: O_15  and  C_41
REMARK    8  A    between atoms: C_16  and  C_25
REMARK    9  A    between atoms: C_29  and  C_30
REMARK                            x       y       z     vdW  Elec       q    Type
REMARK                         _______ _______ _______ _____ _____    ______ ____
ROOT
ATOM      1  C   UNL     1     105.993 127.874 143.946  0.00  0.00    +0.000 A 
ATOM      2  C   UNL     1     104.922 128.865 143.175  0.00  0.00    +0.000 A 
ATOM      3  C   UNL     1     106.216 128.262 143.253  0.00  0.00    +0.000 A 
ATOM      4  C   UNL     1     105.235 127.981 144.254  0.00  0.00    +0.000 A 
ATOM      5  C   UNL     1     105.680 128.758 142.868  0.00  0.00    +0.000 A 
ATOM      6  C   UNL     1     104.700 128.476 143.868  0.00  0.00    +0.000 A 
ENDROOT
BRANCH   2   9
ATOM      7  O   UNL     1     103.956 129.079 142.145  0.00  0.00    +0.000 OA
ATOM      8  O   UNL     1     103.643 131.408 142.923  0.00  0.00    +0.000 OA
ATOM      9  C   UNL     1     104.387 129.360 142.790  0.00  0.00    +0.000 C 
ATOM     10  C   UNL     1     104.282 130.136 143.049  0.00  0.00    +0.000 C 
ATOM     11  C   UNL     1     103.748 130.631 142.664  0.00  0.00    +0.000 C 
ATOM     12  C   UNL     1     103.317 130.351 142.019  0.00  0.00    +0.000 A 
ATOM     13  C   UNL     1     103.421 129.575 141.759  0.00  0.00    +0.000 A 
ATOM     14  C   UNL     1     102.762 130.876 141.626  0.00  0.00    +0.000 A 
ATOM     15  C   UNL     1     102.978 129.271 141.089  0.00  0.00    +0.000 A 
ATOM     16  C   UNL     1     102.419 129.781 140.683  0.00  0.00    +0.000 A 
ATOM     17  C   UNL     1     102.310 130.590 140.953  0.00  0.00    +0.000 A 
BRANCH  14  18
ATOM     18  O   UNL     1     102.663 131.651 141.891  0.00  0.00    +0.000 OA
ATOM     19  C   UNL     1     102.108 132.144 141.532  0.00  0.00    +0.000 C 
ENDBRANCH  14  18
BRANCH  16  20
ATOM     20  O   UNL     1     101.990 129.497 140.038  0.00  0.00    +0.000 OA
ATOM     21  C   UNL     1     102.382 129.147 139.402  0.00  0.00    +0.000 C 
ENDBRANCH  16  20
ENDBRANCH   2   9
BRANCH   5  22
ATOM     22  O   UNL     1     105.903 129.146 142.175  0.00  0.00    +0.000 OA
ATOM     23  C   UNL     1     106.682 129.096 141.905  0.00  0.00    +0.000 C 
ENDBRANCH   5  22
BRANCH   1  24
ATOM     24  O   UNL     1     106.529 127.379 144.331  0.00  0.00    +0.000 OA
BRANCH  24  33
ATOM     25  O   UNL     1     106.180 126.168 143.660  0.00  0.00    +0.000 OA
ATOM     26  O   UNL     1     106.012 124.120 144.399  0.00  0.00    +0.000 OA
ATOM     27  O   UNL     1     106.452 124.915 145.777  0.00  0.00    +0.000 OA
ATOM     28  O   UNL     1     106.711 126.544 145.743  0.00  0.00    +0.000 OA
ATOM     29  C   UNL     1     106.051 125.353 143.677  0.00  0.00    +0.000 C 
ATOM     30  C   UNL     1     106.142 124.935 144.382  0.00  0.00    +0.000 C 
ATOM     31  C   UNL     1     106.362 125.333 145.071  0.00  0.00    +0.000 C 
ATOM     32  C   UNL     1     106.491 126.148 145.054  0.00  0.00    +0.000 C 
ATOM     33  C   UNL     1     106.400 126.564 144.348  0.00  0.00    +0.000 C 
BRANCH  29  34
ATOM     34  C   UNL     1     105.831 124.955 142.988  0.00  0.00    +0.000 C 
BRANCH  34  35
ATOM     35  O   UNL     1     106.152 125.179 142.262  0.00  0.00    +0.000 OA
BRANCH  35  41
ATOM     36  O   UNL     1     105.442 124.122 141.613  0.00  0.00    +0.000 OA
ATOM     37  O   UNL     1     106.594 125.784 140.792  0.00  0.00    +0.000 OA
ATOM     38  O   UNL     1     106.106 125.030 139.408  0.00  0.00    +0.000 OA
ATOM     39  O   UNL     1     105.175 123.671 139.494  0.00  0.00    +0.000 OA
ATOM     40  C   UNL     1     106.128 125.104 140.835  0.00  0.00    +0.000 C 
ATOM     41  C   UNL     1     105.907 124.801 141.570  0.00  0.00    +0.000 C 
ATOM     42  C   UNL     1     105.885 124.727 140.143  0.00  0.00    +0.000 C 
ATOM     43  C   UNL     1     105.419 124.047 140.186  0.00  0.00    +0.000 C 
ATOM     44  C   UNL     1     105.197 123.744 140.921  0.00  0.00    +0.000 C 
ATOM     45  C   UNL     1     104.732 123.065 140.963  0.00  0.00    +0.000 C 
ENDBRANCH  35  41
ENDBRANCH  34  35
ENDBRANCH  29  34
ENDBRANCH  24  33
ENDBRANCH   1  24
TORSDOF 9
ENDMDL
MODEL 10
REMARK VINA RESULT:      -9.2      2.481      5.112
REMARK  Name = 42608018
REMARK  9 active torsions:
REMARK  status: ('A' for Active; 'I' for Inactive)
REMARK    1  A    between atoms: O_2  and  C_21
REMARK    2  A    between atoms: O_2  and  C_25
REMARK    3  A    between atoms: O_6  and  C_24
REMARK    4  A    between atoms: O_6  and  C_28
REMARK    5  A    between atoms: O_12  and  C_33
REMARK    6  A    between atoms: O_14  and  C_39
REMARK    7  A    between atoms: O_15  and  C_41
REMARK    8  A    between atoms: C_16  and  C_25
REMARK    9  A    between atoms: C_29  and  C_30
REMARK                            x       y       z     vdW  Elec       q    Type
REMARK                         _______ _______ _______ _____ _____    ______ ____
ROOT
ATOM      1  C   UNL     1     109.033 128.966 135.622  0.00  0.00    +0.000 A 
ATOM      2  C   UNL     1     109.942 127.635 135.975  0.00  0.00    +0.000 A 
ATOM      3  C   UNL     1     109.786 128.883 135.295  0.00  0.00    +0.000 A 
ATOM      4  C   UNL     1     108.734 128.384 136.125  0.00  0.00    +0.000 A 
ATOM      5  C   UNL     1     110.241 128.217 135.472  0.00  0.00    +0.000 A 
ATOM      6  C   UNL     1     109.189 127.719 136.301  0.00  0.00    +0.000 A 
ENDROOT
BRANCH   2   9
ATOM      7  O   UNL     1     110.924 126.988 136.786  0.00  0.00    +0.000 OA
ATOM      8  O   UNL     1     110.706 124.939 135.415  0.00  0.00    +0.000 OA
ATOM      9  C   UNL     1     110.397 126.971 136.152  0.00  0.00    +0.000 C 
ATOM     10  C   UNL     1     110.324 126.287 135.695  0.00  0.00    +0.000 C 
ATOM     11  C   UNL     1     110.779 125.623 135.871  0.00  0.00    +0.000 C 
ATOM     12  C   UNL     1     111.306 125.640 136.505  0.00  0.00    +0.000 A 
ATOM     13  C   UNL     1     111.380 126.323 136.963  0.00  0.00    +0.000 A 
ATOM     14  C   UNL     1     111.775 124.941 136.679  0.00  0.00    +0.000 A 
ATOM     15  C   UNL     1     111.926 126.353 137.625  0.00  0.00    +0.000 A 
ATOM     16  C   UNL     1     112.402 125.665 137.814  0.00  0.00    +0.000 A 
ATOM     17  C   UNL     1     112.327 124.953 137.339  0.00  0.00    +0.000 A 
BRANCH  14  18
ATOM     18  O   UNL     1     111.696 124.262 136.217  0.00  0.00    +0.000 OA
ATOM     19  C   UNL     1     111.856 123.521 136.541  0.00  0.00    +0.000 C 
ENDBRANCH  14  18
BRANCH  16  20
ATOM     20  O   UNL     1     112.929 125.685 138.449  0.00  0.00    +0.000 OA
ATOM     21  C   UNL     1     113.679 126.016 138.353  0.00  0.00    +0.000 C 
ENDBRANCH  16  20
ENDBRANCH   2   9
BRANCH   5  22
ATOM     22  O   UNL     1     110.994 128.135 135.146  0.00  0.00    +0.000 OA
ATOM     23  C   UNL     1     111.290 128.713 134.638  0.00  0.00    +0.000 C 
ENDBRANCH   5  22
BRANCH   1  24
ATOM     24  O   UNL     1     108.579 129.632 135.445  0.00  0.00    +0.000 OA
BRANCH  24  33
ATOM     25  O   UNL     1     108.914 130.349 136.633  0.00  0.00    +0.000 OA
ATOM     26  O   UNL     1     109.161 132.488 136.991  0.00  0.00    +0.000 OA
ATOM     27  O   UNL     1     108.780 132.482 135.385  0.00  0.00    +0.000 OA
ATOM     28  O   UNL     1     108.489 131.053 134.612  0.00  0.00    +0.000 OA
ATOM     29  C   UNL     1     109.060 131.063 137.020  0.00  0.00    +0.000 C 
ATOM     30  C   UNL     1     109.015 131.774 136.604  0.00  0.00    +0.000 C 
ATOM     31  C   UNL     1     108.825 131.771 135.801  0.00  0.00    +0.000 C 
ATOM     32  C   UNL     1     108.679 131.056 135.414  0.00  0.00    +0.000 C 
ATOM     33  C   UNL     1     108.724 130.346 135.831  0.00  0.00    +0.000 C 
BRANCH  29  34
ATOM     34  C   UNL     1     109.250 131.067 137.822  0.00  0.00    +0.000 C 
BRANCH  34  35
ATOM     35  O   UNL     1     108.742 130.715 138.369  0.00  0.00    +0.000 OA
BRANCH  35  41
ATOM     36  O   UNL     1     109.735 130.031 139.136  0.00  0.00    +0.000 OA
ATOM     37  O   UNL     1     107.918 131.072 139.753  0.00  0.00    +0.000 OA
ATOM     38  O   UNL     1     108.499 130.567 141.213  0.00  0.00    +0.000 OA
ATOM     39  O   UNL     1     109.903 129.704 141.288  0.00  0.00    +0.000 OA
ATOM     40  C   UNL     1     108.621 130.641 139.791  0.00  0.00    +0.000 C 
ATOM     41  C   UNL     1     109.033 130.462 139.099  0.00  0.00    +0.000 C 
ATOM     42  C   UNL     1     108.911 130.388 140.521  0.00  0.00    +0.000 C 
ATOM     43  C   UNL     1     109.614 129.957 140.558  0.00  0.00    +0.000 C 
ATOM     44  C   UNL     1     110.026 129.778 139.866  0.00  0.00    +0.000 C 
ATOM     45  C   UNL     1     110.727 129.347 139.903  0.00  0.00    +0.000 C 
ENDBRANCH  35  41
ENDBRANCH  34  35
ENDBRANCH  29  34
ENDBRANCH  24  33
ENDBRANCH   1  24
TORSDOF 9
ENDMDL
