MODEL 1
REMARK VINA RESULT:      -8.3      0.000      0.000
REMARK  Name = 5080434
REMARK  7 active torsions:
REMARK  status: ('A' for Active; 'I' for Inactive)
REMARK    1  A    between atoms: O_2  and  C_14
REMARK    2  A    between atoms: O_2  and  C_16
REMARK    3  A    between atoms: C_13  and  C_15
REMARK    4  A    between atoms: C_17  and  C_19
REMARK    5  A    between atoms: C_19  and  C_21
REMARK    6  A    between atoms: C_21  and  C_23
REMARK    7  A    between atoms: C_23  and  C_25
REMARK                            x       y       z     vdW  Elec       q    Type
REMARK                         _______ _______ _______ _____ _____    ______ ____
ROOT
ATOM      1  O   UNL     1     114.587 128.579 134.812  0.00  0.00    +0.000 OA
ATOM      2  O   UNL     1     114.942 131.164 135.975  0.00  0.00    +0.000 OA
ATOM      3  C   UNL     1     113.690 129.484 136.584  0.00  0.00    +0.000 A 
ATOM      4  C   UNL     1     113.870 128.934 135.995  0.00  0.00    +0.000 A 
ATOM      5  C   UNL     1     114.047 130.227 136.577  0.00  0.00    +0.000 A 
ATOM      6  C   UNL     1     114.407 129.128 135.400  0.00  0.00    +0.000 A 
ATOM      7  C   UNL     1     114.585 130.421 135.981  0.00  0.00    +0.000 A 
ATOM      8  C   UNL     1     114.764 129.872 135.393  0.00  0.00    +0.000 A 
ENDROOT
BRANCH   4  10
ATOM      9  O   UNL     1     112.783 128.080 135.632  0.00  0.00    +0.000 OA
ATOM     10  C   UNL     1     113.512 128.191 136.002  0.00  0.00    +0.000 C 
BRANCH  10  11
ATOM     11  C   UNL     1     113.884 127.558 136.381  0.00  0.00    +0.000 C 
BRANCH  11  12
ATOM     12  C   UNL     1     113.526 126.815 136.388  0.00  0.00    +0.000 C 
BRANCH  12  13
ATOM     13  C   UNL     1     113.899 126.182 136.765  0.00  0.00    +0.000 A 
ATOM     14  C   UNL     1     113.782 126.058 137.572  0.00  0.00    +0.000 A 
ATOM     15  C   UNL     1     114.387 125.675 136.335  0.00  0.00    +0.000 A 
ATOM     16  C   UNL     1     114.155 125.425 137.950  0.00  0.00    +0.000 A 
ATOM     17  C   UNL     1     114.758 125.043 136.712  0.00  0.00    +0.000 A 
ATOM     18  C   UNL     1     114.643 124.917 137.520  0.00  0.00    +0.000 A 
ENDBRANCH  12  13
ENDBRANCH  11  12
ENDBRANCH  10  11
ENDBRANCH   4  10
BRANCH   3  19
ATOM     19  O   UNL     1     113.152 129.290 137.179  0.00  0.00    +0.000 OA
BRANCH  19  28
ATOM     20  O   UNL     1     112.157 130.301 137.019  0.00  0.00    +0.000 OA
ATOM     21  O   UNL     1     112.239 130.768 139.448  0.00  0.00    +0.000 OA
ATOM     22  O   UNL     1     111.215 131.624 138.477  0.00  0.00    +0.000 OA
ATOM     23  O   UNL     1     113.207 129.601 138.799  0.00  0.00    +0.000 OA
ATOM     24  C   UNL     1     112.212 130.612 138.638  0.00  0.00    +0.000 C 
ATOM     25  C   UNL     1     111.699 131.041 138.152  0.00  0.00    +0.000 C 
ATOM     26  C   UNL     1     112.696 130.029 138.313  0.00  0.00    +0.000 C 
ATOM     27  C   UNL     1     111.672 130.885 137.343  0.00  0.00    +0.000 C 
ATOM     28  C   UNL     1     112.668 129.873 137.503  0.00  0.00    +0.000 C 
BRANCH  27  30
ATOM     29  O   UNL     1     110.740 130.929 136.261  0.00  0.00    +0.000 OA
ATOM     30  C   UNL     1     111.160 131.313 136.858  0.00  0.00    +0.000 C 
ENDBRANCH  27  30
ENDBRANCH  19  28
ENDBRANCH   3  19
TORSDOF 7
ENDMDL
MODEL 2
REMARK VINA RESULT:      -8.2     12.172     14.011
REMARK  Name = 5080434
REMARK  7 active torsions:
REMARK  status: ('A' for Active; 'I' for Inactive)
REMARK    1  A    between atoms: O_2  and  C_14
REMARK    2  A    between atoms: O_2  and  C_16
REMARK    3  A    between atoms: C_13  and  C_15
REMARK    4  A    between atoms: C_17  and  C_19
REMARK    5  A    between atoms: C_19  and  C_21
REMARK    6  A    between atoms: C_21  and  C_23
REMARK    7  A    between atoms: C_23  and  C_25
REMARK                            x       y       z     vdW  Elec       q    Type
REMARK                         _______ _______ _______ _____ _____    ______ ____
ROOT
ATOM      1  O   UNL     1     108.469 125.418 147.661  0.00  0.00    +0.000 OA
ATOM      2  O   UNL     1     107.125 123.821 149.612  0.00  0.00    +0.000 OA
ATOM      3  C   UNL     1     106.372 124.837 147.834  0.00  0.00    +0.000 A 
ATOM      4  C   UNL     1     107.065 125.182 147.547  0.00  0.00    +0.000 A 
ATOM      5  C   UNL     1     106.393 124.384 148.523  0.00  0.00    +0.000 A 
ATOM      6  C   UNL     1     107.777 125.073 147.948  0.00  0.00    +0.000 A 
ATOM      7  C   UNL     1     107.105 124.274 148.924  0.00  0.00    +0.000 A 
ATOM      8  C   UNL     1     107.797 124.619 148.637  0.00  0.00    +0.000 A 
ENDROOT
BRANCH   4  10
ATOM      9  O   UNL     1     107.085 125.269 146.120  0.00  0.00    +0.000 OA
ATOM     10  C   UNL     1     107.044 125.636 146.858  0.00  0.00    +0.000 C 
BRANCH  10  11
ATOM     11  C   UNL     1     106.981 126.458 146.908  0.00  0.00    +0.000 C 
BRANCH  11  12
ATOM     12  C   UNL     1     106.900 126.907 146.221  0.00  0.00    +0.000 C 
BRANCH  12  13
ATOM     13  C   UNL     1     106.837 127.729 146.270  0.00  0.00    +0.000 A 
ATOM     14  C   UNL     1     106.147 128.072 146.562  0.00  0.00    +0.000 A 
ATOM     15  C   UNL     1     107.465 128.206 146.028  0.00  0.00    +0.000 A 
ATOM     16  C   UNL     1     106.084 128.894 146.612  0.00  0.00    +0.000 A 
ATOM     17  C   UNL     1     107.402 129.026 146.077  0.00  0.00    +0.000 A 
ATOM     18  C   UNL     1     106.712 129.371 146.370  0.00  0.00    +0.000 A 
ENDBRANCH  12  13
ENDBRANCH  11  12
ENDBRANCH  10  11
ENDBRANCH   4  10
BRANCH   3  19
ATOM     19  O   UNL     1     105.659 124.946 147.433  0.00  0.00    +0.000 OA
BRANCH  19  28
ATOM     20  O   UNL     1     104.817 125.408 148.490  0.00  0.00    +0.000 OA
ATOM     21  O   UNL     1     103.058 123.817 147.785  0.00  0.00    +0.000 OA
ATOM     22  O   UNL     1     102.802 124.810 149.077  0.00  0.00    +0.000 OA
ATOM     23  O   UNL     1     104.486 123.885 146.963  0.00  0.00    +0.000 OA
ATOM     24  C   UNL     1     103.645 124.347 148.020  0.00  0.00    +0.000 C 
ATOM     25  C   UNL     1     103.517 124.845 148.666  0.00  0.00    +0.000 C 
ATOM     26  C   UNL     1     104.359 124.382 147.609  0.00  0.00    +0.000 C 
ATOM     27  C   UNL     1     104.103 125.375 148.902  0.00  0.00    +0.000 C 
ATOM     28  C   UNL     1     104.945 124.912 147.844  0.00  0.00    +0.000 C 
BRANCH  27  30
ATOM     29  O   UNL     1     104.207 126.662 149.513  0.00  0.00    +0.000 OA
ATOM     30  C   UNL     1     103.975 125.871 149.547  0.00  0.00    +0.000 C 
ENDBRANCH  27  30
ENDBRANCH  19  28
ENDBRANCH   3  19
TORSDOF 7
ENDMDL
MODEL 3
REMARK VINA RESULT:      -8.1      3.919      4.821
REMARK  Name = 5080434
REMARK  7 active torsions:
REMARK  status: ('A' for Active; 'I' for Inactive)
REMARK    1  A    between atoms: O_2  and  C_14
REMARK    2  A    between atoms: O_2  and  C_16
REMARK    3  A    between atoms: C_13  and  C_15
REMARK    4  A    between atoms: C_17  and  C_19
REMARK    5  A    between atoms: C_19  and  C_21
REMARK    6  A    between atoms: C_21  and  C_23
REMARK    7  A    between atoms: C_23  and  C_25
REMARK                            x       y       z     vdW  Elec       q    Type
REMARK                         _______ _______ _______ _____ _____    ______ ____
ROOT
ATOM      1  O   UNL     1     110.504 125.334 136.310  0.00  0.00    +0.000 OA
ATOM      2  O   UNL     1     109.149 127.472 137.636  0.00  0.00    +0.000 OA
ATOM      3  C   UNL     1     110.735 126.141 138.325  0.00  0.00    +0.000 A 
ATOM      4  C   UNL     1     110.847 125.672 137.654  0.00  0.00    +0.000 A 
ATOM      5  C   UNL     1     110.169 126.741 138.318  0.00  0.00    +0.000 A 
ATOM      6  C   UNL     1     110.392 125.803 136.979  0.00  0.00    +0.000 A 
ATOM      7  C   UNL     1     109.715 126.872 137.642  0.00  0.00    +0.000 A 
ATOM      8  C   UNL     1     109.826 126.403 136.973  0.00  0.00    +0.000 A 
ENDROOT
BRANCH   4  10
ATOM      9  O   UNL     1     111.219 124.324 137.952  0.00  0.00    +0.000 OA
ATOM     10  C   UNL     1     111.413 125.072 137.661  0.00  0.00    +0.000 C 
BRANCH  10  11
ATOM     11  C   UNL     1     112.174 125.219 137.377  0.00  0.00    +0.000 C 
BRANCH  11  12
ATOM     12  C   UNL     1     112.728 124.609 137.347  0.00  0.00    +0.000 C 
BRANCH  12  13
ATOM     13  C   UNL     1     113.506 124.770 137.122  0.00  0.00    +0.000 A 
ATOM     14  C   UNL     1     113.722 124.723 136.327  0.00  0.00    +0.000 A 
ATOM     15  C   UNL     1     114.066 124.977 137.691  0.00  0.00    +0.000 A 
ATOM     16  C   UNL     1     114.500 124.884 136.102  0.00  0.00    +0.000 A 
ATOM     17  C   UNL     1     114.843 125.137 137.466  0.00  0.00    +0.000 A 
ATOM     18  C   UNL     1     115.061 125.091 136.671  0.00  0.00    +0.000 A 
ENDBRANCH  12  13
ENDBRANCH  11  12
ENDBRANCH  10  11
ENDBRANCH   4  10
BRANCH   3  19
ATOM     19  O   UNL     1     111.190 126.010 139.000  0.00  0.00    +0.000 OA
BRANCH  19  28
ATOM     20  O   UNL     1     110.177 125.779 139.980  0.00  0.00    +0.000 OA
ATOM     21  O   UNL     1     111.305 127.357 141.518  0.00  0.00    +0.000 OA
ATOM     22  O   UNL     1     109.916 126.600 141.986  0.00  0.00    +0.000 OA
ATOM     23  O   UNL     1     111.942 127.062 140.025  0.00  0.00    +0.000 OA
ATOM     24  C   UNL     1     110.929 126.831 141.005  0.00  0.00    +0.000 C 
ATOM     25  C   UNL     1     110.234 126.452 141.239  0.00  0.00    +0.000 C 
ATOM     26  C   UNL     1     111.247 126.683 140.259  0.00  0.00    +0.000 C 
ATOM     27  C   UNL     1     109.858 125.926 140.727  0.00  0.00    +0.000 C 
ATOM     28  C   UNL     1     110.871 126.157 139.746  0.00  0.00    +0.000 C 
BRANCH  27  30
ATOM     29  O   UNL     1     109.115 124.725 140.944  0.00  0.00    +0.000 OA
ATOM     30  C   UNL     1     109.164 125.548 140.961  0.00  0.00    +0.000 C 
ENDBRANCH  27  30
ENDBRANCH  19  28
ENDBRANCH   3  19
TORSDOF 7
ENDMDL
MODEL 4
REMARK VINA RESULT:      -8.1      2.793      4.262
REMARK  Name = 5080434
REMARK  7 active torsions:
REMARK  status: ('A' for Active; 'I' for Inactive)
REMARK    1  A    between atoms: O_2  and  C_14
REMARK    2  A    between atoms: O_2  and  C_16
REMARK    3  A    between atoms: C_13  and  C_15
REMARK    4  A    between atoms: C_17  and  C_19
REMARK    5  A    between atoms: C_19  and  C_21
REMARK    6  A    between atoms: C_21  and  C_23
REMARK    7  A    between atoms: C_23  and  C_25
REMARK                            x       y       z     vdW  Elec       q    Type
REMARK                         _______ _______ _______ _____ _____    ______ ____
ROOT
ATOM      1  O   UNL     1     113.148 123.991 136.171  0.00  0.00    +0.000 OA
ATOM      2  O   UNL     1     115.231 125.226 137.687  0.00  0.00    +0.000 OA
ATOM      3  C   UNL     1     113.062 125.406 137.830  0.00  0.00    +0.000 A 
ATOM      4  C   UNL     1     112.823 124.897 137.226  0.00  0.00    +0.000 A 
ATOM      5  C   UNL     1     113.865 125.515 137.984  0.00  0.00    +0.000 A 
ATOM      6  C   UNL     1     113.387 124.498 136.775  0.00  0.00    +0.000 A 
ATOM      7  C   UNL     1     114.429 125.116 137.533  0.00  0.00    +0.000 A 
ATOM      8  C   UNL     1     114.190 124.608 136.929  0.00  0.00    +0.000 A 
ENDROOT
BRANCH   4  10
ATOM      9  O   UNL     1     111.588 124.233 137.504  0.00  0.00    +0.000 OA
ATOM     10  C   UNL     1     112.020 124.788 137.072  0.00  0.00    +0.000 C 
BRANCH  10  11
ATOM     11  C   UNL     1     111.647 125.236 136.487  0.00  0.00    +0.000 C 
BRANCH  11  12
ATOM     12  C   UNL     1     110.852 125.104 136.310  0.00  0.00    +0.000 C 
BRANCH  12  13
ATOM     13  C   UNL     1     110.430 125.659 135.869  0.00  0.00    +0.000 A 
ATOM     14  C   UNL     1     109.898 126.165 136.244  0.00  0.00    +0.000 A 
ATOM     15  C   UNL     1     110.541 125.708 135.053  0.00  0.00    +0.000 A 
ATOM     16  C   UNL     1     109.475 126.720 135.802  0.00  0.00    +0.000 A 
ATOM     17  C   UNL     1     110.120 126.263 134.612  0.00  0.00    +0.000 A 
ATOM     18  C   UNL     1     109.586 126.769 134.986  0.00  0.00    +0.000 A 
ENDBRANCH  12  13
ENDBRANCH  11  12
ENDBRANCH  10  11
ENDBRANCH   4  10
BRANCH   3  19
ATOM     19  O   UNL     1     112.497 125.805 138.281  0.00  0.00    +0.000 OA
BRANCH  19  28
ATOM     20  O   UNL     1     112.818 127.171 138.016  0.00  0.00    +0.000 OA
ATOM     21  O   UNL     1     112.779 127.651 140.444  0.00  0.00    +0.000 OA
ATOM     22  O   UNL     1     113.113 128.858 139.370  0.00  0.00    +0.000 OA
ATOM     23  O   UNL     1     112.471 126.125 139.900  0.00  0.00    +0.000 OA
ATOM     24  C   UNL     1     112.792 127.491 139.635  0.00  0.00    +0.000 C 
ATOM     25  C   UNL     1     112.959 128.095 139.097  0.00  0.00    +0.000 C 
ATOM     26  C   UNL     1     112.638 126.728 139.362  0.00  0.00    +0.000 C 
ATOM     27  C   UNL     1     112.972 127.935 138.288  0.00  0.00    +0.000 C 
ATOM     28  C   UNL     1     112.651 126.568 138.553  0.00  0.00    +0.000 C 
BRANCH  27  30
ATOM     29  O   UNL     1     112.731 128.579 137.035  0.00  0.00    +0.000 OA
ATOM     30  C   UNL     1     113.139 128.538 137.751  0.00  0.00    +0.000 C 
ENDBRANCH  27  30
ENDBRANCH  19  28
ENDBRANCH   3  19
TORSDOF 7
ENDMDL
MODEL 5
REMARK VINA RESULT:      -7.9     12.804     14.402
REMARK  Name = 5080434
REMARK  7 active torsions:
REMARK  status: ('A' for Active; 'I' for Inactive)
REMARK    1  A    between atoms: O_2  and  C_14
REMARK    2  A    between atoms: O_2  and  C_16
REMARK    3  A    between atoms: C_13  and  C_15
REMARK    4  A    between atoms: C_17  and  C_19
REMARK    5  A    between atoms: C_19  and  C_21
REMARK    6  A    between atoms: C_21  and  C_23
REMARK    7  A    between atoms: C_23  and  C_25
REMARK                            x       y       z     vdW  Elec       q    Type
REMARK                         _______ _______ _______ _____ _____    ______ ____
ROOT
ATOM      1  O   UNL     1     104.089 124.924 149.253  0.00  0.00    +0.000 OA
ATOM      2  O   UNL     1     106.764 124.403 148.396  0.00  0.00    +0.000 OA
ATOM      3  C   UNL     1     104.946 124.782 147.250  0.00  0.00    +0.000 A 
ATOM      4  C   UNL     1     104.397 124.883 147.858  0.00  0.00    +0.000 A 
ATOM      5  C   UNL     1     105.735 124.622 147.430  0.00  0.00    +0.000 A 
ATOM      6  C   UNL     1     104.637 124.823 148.645  0.00  0.00    +0.000 A 
ATOM      7  C   UNL     1     105.975 124.563 148.217  0.00  0.00    +0.000 A 
ATOM      8  C   UNL     1     105.427 124.663 148.824  0.00  0.00    +0.000 A 
ENDROOT
BRANCH   4  10
ATOM      9  O   UNL     1     103.343 125.823 147.641  0.00  0.00    +0.000 OA
ATOM     10  C   UNL     1     103.608 125.043 147.679  0.00  0.00    +0.000 C 
BRANCH  10  11
ATOM     11  C   UNL     1     103.084 124.421 147.536  0.00  0.00    +0.000 C 
BRANCH  11  12
ATOM     12  C   UNL     1     102.282 124.577 147.418  0.00  0.00    +0.000 C 
BRANCH  12  13
ATOM     13  C   UNL     1     101.769 123.964 147.210  0.00  0.00    +0.000 A 
ATOM     14  C   UNL     1     101.417 123.505 147.798  0.00  0.00    +0.000 A 
ATOM     15  C   UNL     1     101.609 123.811 146.415  0.00  0.00    +0.000 A 
ATOM     16  C   UNL     1     100.904 122.893 147.590  0.00  0.00    +0.000 A 
ATOM     17  C   UNL     1     101.097 123.200 146.208  0.00  0.00    +0.000 A 
ATOM     18  C   UNL     1     100.744 122.740 146.795  0.00  0.00    +0.000 A 
ENDBRANCH  12  13
ENDBRANCH  11  12
ENDBRANCH  10  11
ENDBRANCH   4  10
BRANCH   3  19
ATOM     19  O   UNL     1     104.706 124.841 146.463  0.00  0.00    +0.000 OA
BRANCH  19  28
ATOM     20  O   UNL     1     105.507 125.920 145.980  0.00  0.00    +0.000 OA
ATOM     21  O   UNL     1     106.184 124.545 144.036  0.00  0.00    +0.000 OA
ATOM     22  O   UNL     1     106.760 126.083 144.200  0.00  0.00    +0.000 OA
ATOM     23  O   UNL     1     105.157 123.925 145.167  0.00  0.00    +0.000 OA
ATOM     24  C   UNL     1     105.958 125.004 144.684  0.00  0.00    +0.000 C 
ATOM     25  C   UNL     1     106.247 125.773 144.766  0.00  0.00    +0.000 C 
ATOM     26  C   UNL     1     105.445 124.694 145.250  0.00  0.00    +0.000 C 
ATOM     27  C   UNL     1     106.021 126.231 145.414  0.00  0.00    +0.000 C 
ATOM     28  C   UNL     1     105.219 125.152 145.898  0.00  0.00    +0.000 C 
BRANCH  27  30
ATOM     29  O   UNL     1     105.804 127.607 145.732  0.00  0.00    +0.000 OA
ATOM     30  C   UNL     1     106.309 126.999 145.496  0.00  0.00    +0.000 C 
ENDBRANCH  27  30
ENDBRANCH  19  28
ENDBRANCH   3  19
TORSDOF 7
ENDMDL
MODEL 6
REMARK VINA RESULT:      -7.8     13.249     14.894
REMARK  Name = 5080434
REMARK  7 active torsions:
REMARK  status: ('A' for Active; 'I' for Inactive)
REMARK    1  A    between atoms: O_2  and  C_14
REMARK    2  A    between atoms: O_2  and  C_16
REMARK    3  A    between atoms: C_13  and  C_15
REMARK    4  A    between atoms: C_17  and  C_19
REMARK    5  A    between atoms: C_19  and  C_21
REMARK    6  A    between atoms: C_21  and  C_23
REMARK    7  A    between atoms: C_23  and  C_25
REMARK                            x       y       z     vdW  Elec       q    Type
REMARK                         _______ _______ _______ _____ _____    ______ ____
ROOT
ATOM      1  O   UNL     1     102.563 125.987 148.547  0.00  0.00    +0.000 OA
ATOM      2  O   UNL     1     104.886 127.610 148.917  0.00  0.00    +0.000 OA
ATOM      3  C   UNL     1     104.678 125.456 148.640  0.00  0.00    +0.000 A 
ATOM      4  C   UNL     1     103.859 125.386 148.570  0.00  0.00    +0.000 A 
ATOM      5  C   UNL     1     105.020 126.197 148.755  0.00  0.00    +0.000 A 
ATOM      6  C   UNL     1     103.382 126.057 148.617  0.00  0.00    +0.000 A 
ATOM      7  C   UNL     1     104.543 126.869 148.801  0.00  0.00    +0.000 A 
ATOM      8  C   UNL     1     103.725 126.799 148.732  0.00  0.00    +0.000 A 
ENDROOT
BRANCH   4  10
ATOM      9  O   UNL     1     103.379 124.148 149.099  0.00  0.00    +0.000 OA
ATOM     10  C   UNL     1     103.517 124.644 148.455  0.00  0.00    +0.000 C 
BRANCH  10  11
ATOM     11  C   UNL     1     103.313 124.398 147.693  0.00  0.00    +0.000 C 
BRANCH  11  12
ATOM     12  C   UNL     1     102.980 123.653 147.577  0.00  0.00    +0.000 C 
BRANCH  12  13
ATOM     13  C   UNL     1     102.752 123.417 146.819  0.00  0.00    +0.000 A 
ATOM     14  C   UNL     1     103.322 123.173 146.275  0.00  0.00    +0.000 A 
ATOM     15  C   UNL     1     101.955 123.425 146.607  0.00  0.00    +0.000 A 
ATOM     16  C   UNL     1     103.094 122.938 145.517  0.00  0.00    +0.000 A 
ATOM     17  C   UNL     1     101.728 123.190 145.850  0.00  0.00    +0.000 A 
ATOM     18  C   UNL     1     102.297 122.946 145.304  0.00  0.00    +0.000 A 
ENDBRANCH  12  13
ENDBRANCH  11  12
ENDBRANCH  10  11
ENDBRANCH   4  10
BRANCH   3  19
ATOM     19  O   UNL     1     105.155 124.784 148.593  0.00  0.00    +0.000 OA
BRANCH  19  28
ATOM     20  O   UNL     1     106.103 125.119 147.579  0.00  0.00    +0.000 OA
ATOM     21  O   UNL     1     107.953 124.510 149.106  0.00  0.00    +0.000 OA
ATOM     22  O   UNL     1     108.284 125.049 147.582  0.00  0.00    +0.000 OA
ATOM     23  O   UNL     1     106.388 124.378 149.611  0.00  0.00    +0.000 OA
ATOM     24  C   UNL     1     107.336 124.713 148.597  0.00  0.00    +0.000 C 
ATOM     25  C   UNL     1     107.502 124.983 147.835  0.00  0.00    +0.000 C 
ATOM     26  C   UNL     1     106.554 124.647 148.849  0.00  0.00    +0.000 C 
ATOM     27  C   UNL     1     106.885 125.186 147.325  0.00  0.00    +0.000 C 
ATOM     28  C   UNL     1     105.937 124.850 148.340  0.00  0.00    +0.000 C 
BRANCH  27  30
ATOM     29  O   UNL     1     106.777 125.035 145.909  0.00  0.00    +0.000 OA
ATOM     30  C   UNL     1     107.051 125.455 146.564  0.00  0.00    +0.000 C 
ENDBRANCH  27  30
ENDBRANCH  19  28
ENDBRANCH   3  19
TORSDOF 7
ENDMDL
MODEL 7
REMARK VINA RESULT:      -7.8      2.805      4.658
REMARK  Name = 5080434
REMARK  7 active torsions:
REMARK  status: ('A' for Active; 'I' for Inactive)
REMARK    1  A    between atoms: O_2  and  C_14
REMARK    2  A    between atoms: O_2  and  C_16
REMARK    3  A    between atoms: C_13  and  C_15
REMARK    4  A    between atoms: C_17  and  C_19
REMARK    5  A    between atoms: C_19  and  C_21
REMARK    6  A    between atoms: C_21  and  C_23
REMARK    7  A    between atoms: C_23  and  C_25
REMARK                            x       y       z     vdW  Elec       q    Type
REMARK                         _______ _______ _______ _____ _____    ______ ____
ROOT
ATOM      1  O   UNL     1     114.275 125.318 136.664  0.00  0.00    +0.000 OA
ATOM      2  O   UNL     1     111.920 123.725 136.390  0.00  0.00    +0.000 OA
ATOM      3  C   UNL     1     112.163 125.851 136.813  0.00  0.00    +0.000 A 
ATOM      4  C   UNL     1     112.986 125.917 136.810  0.00  0.00    +0.000 A 
ATOM      5  C   UNL     1     111.808 125.120 136.673  0.00  0.00    +0.000 A 
ATOM      6  C   UNL     1     113.453 125.252 136.667  0.00  0.00    +0.000 A 
ATOM      7  C   UNL     1     112.275 124.455 136.530  0.00  0.00    +0.000 A 
ATOM      8  C   UNL     1     113.097 124.521 136.527  0.00  0.00    +0.000 A 
ENDROOT
BRANCH   4  10
ATOM      9  O   UNL     1     113.565 126.859 137.716  0.00  0.00    +0.000 OA
ATOM     10  C   UNL     1     113.341 126.648 136.950  0.00  0.00    +0.000 C 
BRANCH  10  11
ATOM     11  C   UNL     1     113.473 127.170 136.324  0.00  0.00    +0.000 C 
BRANCH  11  12
ATOM     12  C   UNL     1     113.847 127.892 136.460  0.00  0.00    +0.000 C 
BRANCH  12  13
ATOM     13  C   UNL     1     113.933 128.435 135.844  0.00  0.00    +0.000 A 
ATOM     14  C   UNL     1     114.642 128.472 135.424  0.00  0.00    +0.000 A 
ATOM     15  C   UNL     1     113.310 128.940 135.649  0.00  0.00    +0.000 A 
ATOM     16  C   UNL     1     114.727 129.015 134.808  0.00  0.00    +0.000 A 
ATOM     17  C   UNL     1     113.396 129.482 135.034  0.00  0.00    +0.000 A 
ATOM     18  C   UNL     1     114.104 129.520 134.613  0.00  0.00    +0.000 A 
ENDBRANCH  12  13
ENDBRANCH  11  12
ENDBRANCH  10  11
ENDBRANCH   4  10
BRANCH   3  19
ATOM     19  O   UNL     1     111.697 126.516 136.956  0.00  0.00    +0.000 OA
BRANCH  19  28
ATOM     20  O   UNL     1     111.008 126.145 138.151  0.00  0.00    +0.000 OA
ATOM     21  O   UNL     1     108.861 126.822 137.124  0.00  0.00    +0.000 OA
ATOM     22  O   UNL     1     108.888 126.224 138.662  0.00  0.00    +0.000 OA
ATOM     23  O   UNL     1     110.265 126.968 136.271  0.00  0.00    +0.000 OA
ATOM     24  C   UNL     1     109.577 126.596 137.466  0.00  0.00    +0.000 C 
ATOM     25  C   UNL     1     109.590 126.297 138.236  0.00  0.00    +0.000 C 
ATOM     26  C   UNL     1     110.279 126.669 137.040  0.00  0.00    +0.000 C 
ATOM     27  C   UNL     1     110.306 126.072 138.578  0.00  0.00    +0.000 C 
ATOM     28  C   UNL     1     110.995 126.443 137.382  0.00  0.00    +0.000 C 
BRANCH  27  30
ATOM     29  O   UNL     1     110.947 125.957 139.850  0.00  0.00    +0.000 OA
ATOM     30  C   UNL     1     110.320 125.773 139.346  0.00  0.00    +0.000 C 
ENDBRANCH  27  30
ENDBRANCH  19  28
ENDBRANCH   3  19
TORSDOF 7
ENDMDL
MODEL 8
REMARK VINA RESULT:      -7.8      2.405      3.315
REMARK  Name = 5080434
REMARK  7 active torsions:
REMARK  status: ('A' for Active; 'I' for Inactive)
REMARK    1  A    between atoms: O_2  and  C_14
REMARK    2  A    between atoms: O_2  and  C_16
REMARK    3  A    between atoms: C_13  and  C_15
REMARK    4  A    between atoms: C_17  and  C_19
REMARK    5  A    between atoms: C_19  and  C_21
REMARK    6  A    between atoms: C_21  and  C_23
REMARK    7  A    between atoms: C_23  and  C_25
REMARK                            x       y       z     vdW  Elec       q    Type
REMARK                         _______ _______ _______ _____ _____    ______ ____
ROOT
ATOM      1  O   UNL     1     113.439 128.678 138.027  0.00  0.00    +0.000 OA
ATOM      2  O   UNL     1     110.875 129.447 139.024  0.00  0.00    +0.000 OA
ATOM      3  C   UNL     1     111.430 128.115 137.388  0.00  0.00    +0.000 A 
ATOM      4  C   UNL     1     112.253 128.160 137.423  0.00  0.00    +0.000 A 
ATOM      5  C   UNL     1     110.971 128.544 137.922  0.00  0.00    +0.000 A 
ATOM      6  C   UNL     1     112.617 128.633 137.992  0.00  0.00    +0.000 A 
ATOM      7  C   UNL     1     111.334 129.018 138.491  0.00  0.00    +0.000 A 
ATOM      8  C   UNL     1     112.157 129.063 138.526  0.00  0.00    +0.000 A 
ENDROOT
BRANCH   4  10
ATOM      9  O   UNL     1     112.915 128.060 136.160  0.00  0.00    +0.000 OA
ATOM     10  C   UNL     1     112.712 127.730 136.889  0.00  0.00    +0.000 C 
BRANCH  10  11
ATOM     11  C   UNL     1     112.968 126.969 137.083  0.00  0.00    +0.000 C 
BRANCH  11  12
ATOM     12  C   UNL     1     113.452 126.552 136.562  0.00  0.00    +0.000 C 
BRANCH  12  13
ATOM     13  C   UNL     1     113.683 125.780 136.743  0.00  0.00    +0.000 A 
ATOM     14  C   UNL     1     114.402 125.644 137.123  0.00  0.00    +0.000 A 
ATOM     15  C   UNL     1     113.194 125.145 136.543  0.00  0.00    +0.000 A 
ATOM     16  C   UNL     1     114.633 124.872 137.304  0.00  0.00    +0.000 A 
ATOM     17  C   UNL     1     113.425 124.375 136.724  0.00  0.00    +0.000 A 
ATOM     18  C   UNL     1     114.144 124.237 137.104  0.00  0.00    +0.000 A 
ENDBRANCH  12  13
ENDBRANCH  11  12
ENDBRANCH  10  11
ENDBRANCH   4  10
BRANCH   3  19
ATOM     19  O   UNL     1     111.066 127.641 136.819  0.00  0.00    +0.000 OA
BRANCH  19  28
ATOM     20  O   UNL     1     110.213 128.570 136.149  0.00  0.00    +0.000 OA
ATOM     21  O   UNL     1     108.311 127.006 136.402  0.00  0.00    +0.000 OA
ATOM     22  O   UNL     1     108.092 128.458 135.648  0.00  0.00    +0.000 OA
ATOM     23  O   UNL     1     109.798 126.598 136.987  0.00  0.00    +0.000 OA
ATOM     24  C   UNL     1     108.945 127.528 136.318  0.00  0.00    +0.000 C 
ATOM     25  C   UNL     1     108.835 128.254 135.940  0.00  0.00    +0.000 C 
ATOM     26  C   UNL     1     109.689 127.324 136.610  0.00  0.00    +0.000 C 
ATOM     27  C   UNL     1     109.469 128.775 135.856  0.00  0.00    +0.000 C 
ATOM     28  C   UNL     1     110.323 127.845 136.526  0.00  0.00    +0.000 C 
BRANCH  27  30
ATOM     29  O   UNL     1     109.889 129.748 134.898  0.00  0.00    +0.000 OA
ATOM     30  C   UNL     1     109.359 129.500 135.479  0.00  0.00    +0.000 C 
ENDBRANCH  27  30
ENDBRANCH  19  28
ENDBRANCH   3  19
TORSDOF 7
ENDMDL
MODEL 9
REMARK VINA RESULT:      -7.8      1.795      3.089
REMARK  Name = 5080434
REMARK  7 active torsions:
REMARK  status: ('A' for Active; 'I' for Inactive)
REMARK    1  A    between atoms: O_2  and  C_14
REMARK    2  A    between atoms: O_2  and  C_16
REMARK    3  A    between atoms: C_13  and  C_15
REMARK    4  A    between atoms: C_17  and  C_19
REMARK    5  A    between atoms: C_19  and  C_21
REMARK    6  A    between atoms: C_21  and  C_23
REMARK    7  A    between atoms: C_23  and  C_25
REMARK                            x       y       z     vdW  Elec       q    Type
REMARK                         _______ _______ _______ _____ _____    ______ ____
ROOT
ATOM      1  O   UNL     1     114.313 126.842 140.615  0.00  0.00    +0.000 OA
ATOM      2  O   UNL     1     114.249 129.658 141.093  0.00  0.00    +0.000 OA
ATOM      3  C   UNL     1     113.171 128.430 139.646  0.00  0.00    +0.000 A 
ATOM      4  C   UNL     1     113.465 127.681 139.829  0.00  0.00    +0.000 A 
ATOM      5  C   UNL     1     113.433 129.089 140.068  0.00  0.00    +0.000 A 
ATOM      6  C   UNL     1     114.020 127.591 140.433  0.00  0.00    +0.000 A 
ATOM      7  C   UNL     1     113.988 128.999 140.672  0.00  0.00    +0.000 A 
ATOM      8  C   UNL     1     114.281 128.251 140.854  0.00  0.00    +0.000 A 
ENDROOT
BRANCH   4  10
ATOM      9  O   UNL     1     112.493 126.656 139.611  0.00  0.00    +0.000 OA
ATOM     10  C   UNL     1     113.204 127.022 139.407  0.00  0.00    +0.000 C 
BRANCH  10  11
ATOM     11  C   UNL     1     113.654 126.728 138.780  0.00  0.00    +0.000 C 
BRANCH  11  12
ATOM     12  C   UNL     1     113.404 126.056 138.373  0.00  0.00    +0.000 C 
BRANCH  12  13
ATOM     13  C   UNL     1     113.848 125.770 137.738  0.00  0.00    +0.000 A 
ATOM     14  C   UNL     1     114.340 125.116 137.841  0.00  0.00    +0.000 A 
ATOM     15  C   UNL     1     113.798 126.138 137.001  0.00  0.00    +0.000 A 
ATOM     16  C   UNL     1     114.784 124.831 137.205  0.00  0.00    +0.000 A 
ATOM     17  C   UNL     1     114.240 125.852 136.367  0.00  0.00    +0.000 A 
ATOM     18  C   UNL     1     114.734 125.199 136.469  0.00  0.00    +0.000 A 
ENDBRANCH  12  13
ENDBRANCH  11  12
ENDBRANCH  10  11
ENDBRANCH   4  10
BRANCH   3  19
ATOM     19  O   UNL     1     112.617 128.520 139.042  0.00  0.00    +0.000 OA
BRANCH  19  28
ATOM     20  O   UNL     1     113.228 129.487 138.187  0.00  0.00    +0.000 OA
ATOM     21  O   UNL     1     111.152 130.834 138.227  0.00  0.00    +0.000 OA
ATOM     22  O   UNL     1     112.455 131.353 137.358  0.00  0.00    +0.000 OA
ATOM     23  O   UNL     1     111.233 129.418 139.069  0.00  0.00    +0.000 OA
ATOM     24  C   UNL     1     111.844 130.385 138.214  0.00  0.00    +0.000 C 
ATOM     25  C   UNL     1     112.496 130.644 137.779  0.00  0.00    +0.000 C 
ATOM     26  C   UNL     1     111.885 129.677 138.634  0.00  0.00    +0.000 C 
ATOM     27  C   UNL     1     113.188 130.195 137.765  0.00  0.00    +0.000 C 
ATOM     28  C   UNL     1     112.577 129.228 138.621  0.00  0.00    +0.000 C 
BRANCH  27  30
ATOM     29  O   UNL     1     114.238 129.932 136.832  0.00  0.00    +0.000 OA
ATOM     30  C   UNL     1     113.839 130.454 137.331  0.00  0.00    +0.000 C 
ENDBRANCH  27  30
ENDBRANCH  19  28
ENDBRANCH   3  19
TORSDOF 7
ENDMDL
MODEL 10
REMARK VINA RESULT:      -7.7      3.536      4.710
REMARK  Name = 5080434
REMARK  7 active torsions:
REMARK  status: ('A' for Active; 'I' for Inactive)
REMARK    1  A    between atoms: O_2  and  C_14
REMARK    2  A    between atoms: O_2  and  C_16
REMARK    3  A    between atoms: C_13  and  C_15
REMARK    4  A    between atoms: C_17  and  C_19
REMARK    5  A    between atoms: C_19  and  C_21
REMARK    6  A    between atoms: C_21  and  C_23
REMARK    7  A    between atoms: C_23  and  C_25
REMARK                            x       y       z     vdW  Elec       q    Type
REMARK                         _______ _______ _______ _____ _____    ______ ____
ROOT
ATOM      1  O   UNL     1     114.081 124.771 137.354  0.00  0.00    +0.000 OA
ATOM      2  O   UNL     1     111.742 123.423 136.419  0.00  0.00    +0.000 OA
ATOM      3  C   UNL     1     111.999 125.419 137.262  0.00  0.00    +0.000 A 
ATOM      4  C   UNL     1     112.813 125.426 137.402  0.00  0.00    +0.000 A 
ATOM      5  C   UNL     1     111.643 124.751 136.935  0.00  0.00    +0.000 A 
ATOM      6  C   UNL     1     113.269 124.764 137.214  0.00  0.00    +0.000 A 
ATOM      7  C   UNL     1     112.099 124.090 136.747  0.00  0.00    +0.000 A 
ATOM      8  C   UNL     1     112.911 124.097 136.886  0.00  0.00    +0.000 A 
ENDROOT
BRANCH   4  10
ATOM      9  O   UNL     1     113.445 126.697 137.239  0.00  0.00    +0.000 OA
ATOM     10  C   UNL     1     113.169 126.094 137.730  0.00  0.00    +0.000 C 
BRANCH  10  11
ATOM     11  C   UNL     1     113.249 126.158 138.549  0.00  0.00    +0.000 C 
BRANCH  11  12
ATOM     12  C   UNL     1     113.533 126.857 138.881  0.00  0.00    +0.000 C 
BRANCH  12  13
ATOM     13  C   UNL     1     113.621 126.919 139.700  0.00  0.00    +0.000 A 
ATOM     14  C   UNL     1     112.956 126.994 140.181  0.00  0.00    +0.000 A 
ATOM     15  C   UNL     1     114.375 126.905 140.036  0.00  0.00    +0.000 A 
ATOM     16  C   UNL     1     113.044 127.055 141.000  0.00  0.00    +0.000 A 
ATOM     17  C   UNL     1     114.463 126.966 140.853  0.00  0.00    +0.000 A 
ATOM     18  C   UNL     1     113.797 127.041 141.336  0.00  0.00    +0.000 A 
ENDBRANCH  12  13
ENDBRANCH  11  12
ENDBRANCH  10  11
ENDBRANCH   4  10
BRANCH   3  19
ATOM     19  O   UNL     1     111.543 126.081 137.451  0.00  0.00    +0.000 OA
BRANCH  19  28
ATOM     20  O   UNL     1     110.967 126.382 136.179  0.00  0.00    +0.000 OA
ATOM     21  O   UNL     1     108.745 126.623 137.243  0.00  0.00    +0.000 OA
ATOM     22  O   UNL     1     108.909 126.844 135.616  0.00  0.00    +0.000 OA
ATOM     23  O   UNL     1     110.062 126.241 138.160  0.00  0.00    +0.000 OA
ATOM     24  C   UNL     1     109.486 126.542 136.888  0.00  0.00    +0.000 C 
ATOM     25  C   UNL     1     109.568 126.653 136.074  0.00  0.00    +0.000 C 
ATOM     26  C   UNL     1     110.144 126.352 137.346  0.00  0.00    +0.000 C 
ATOM     27  C   UNL     1     110.308 126.573 135.720  0.00  0.00    +0.000 C 
ATOM     28  C   UNL     1     110.885 126.271 136.992  0.00  0.00    +0.000 C 
BRANCH  27  30
ATOM     29  O   UNL     1     110.974 127.188 134.615  0.00  0.00    +0.000 OA
ATOM     30  C   UNL     1     110.390 126.683 134.907  0.00  0.00    +0.000 C 
ENDBRANCH  27  30
ENDBRANCH  19  28
ENDBRANCH   3  19
TORSDOF 7
ENDMDL
