MODEL 1
REMARK VINA RESULT:      -9.9      0.000      0.000
REMARK  Name = 44259094
REMARK  6 active torsions:
REMARK  status: ('A' for Active; 'I' for Inactive)
REMARK    1  A    between atoms: O_1  and  C_17
REMARK    2  A    between atoms: O_1  and  C_22
REMARK    3  A    between atoms: O_4  and  C_21
REMARK    4  A    between atoms: O_4  and  C_28
REMARK    5  A    between atoms: C_20  and  C_26
REMARK    6  A    between atoms: C_29  and  C_32
REMARK                            x       y       z     vdW  Elec       q    Type
REMARK                         _______ _______ _______ _____ _____    ______ ____
ROOT
ATOM      1  O   UNL     1     112.074 127.094 137.522  0.00  0.00    +0.000 OA
ENDROOT
BRANCH   1   6
ATOM      2  O   UNL     1     113.378 126.113 138.971  0.00  0.00    +0.000 OA
ATOM      3  O   UNL     1     112.467 128.366 138.498  0.00  0.00    +0.000 OA
ATOM      4  O   UNL     1     113.160 128.917 139.637  0.00  0.00    +0.000 OA
ATOM      5  O   UNL     1     114.805 127.156 141.285  0.00  0.00    +0.000 OA
ATOM      6  C   UNL     1     112.574 126.979 138.168  0.00  0.00    +0.000 A 
ATOM      7  C   UNL     1     112.878 126.228 138.325  0.00  0.00    +0.000 A 
ATOM      8  C   UNL     1     112.770 127.614 138.655  0.00  0.00    +0.000 A 
ATOM      9  C   UNL     1     113.271 127.499 139.301  0.00  0.00    +0.000 A 
ATOM     10  C   UNL     1     113.575 126.749 139.459  0.00  0.00    +0.000 A 
ATOM     11  C   UNL     1     113.468 128.170 139.802  0.00  0.00    +0.000 A 
ATOM     12  C   UNL     1     114.097 126.616 140.129  0.00  0.00    +0.000 A 
ATOM     13  C   UNL     1     113.989 128.056 140.476  0.00  0.00    +0.000 A 
ATOM     14  C   UNL     1     114.305 127.274 140.640  0.00  0.00    +0.000 A 
BRANCH   7  17
ATOM     15  O   UNL     1     113.535 124.460 136.178  0.00  0.00    +0.000 OA
ATOM     16  O   UNL     1     112.091 123.685 136.375  0.00  0.00    +0.000 OA
ATOM     17  C   UNL     1     112.681 125.593 137.838  0.00  0.00    +0.000 A 
ATOM     18  C   UNL     1     113.206 125.344 137.252  0.00  0.00    +0.000 A 
ATOM     19  C   UNL     1     111.960 125.205 137.936  0.00  0.00    +0.000 A 
ATOM     20  C   UNL     1     113.010 124.709 136.764  0.00  0.00    +0.000 A 
ATOM     21  C   UNL     1     111.763 124.569 137.448  0.00  0.00    +0.000 A 
ATOM     22  C   UNL     1     112.288 124.321 136.863  0.00  0.00    +0.000 A 
ENDBRANCH   7  17
ENDBRANCH   1   6
BRANCH   1  30
ATOM     23  O   UNL     1     113.044 127.768 136.718  0.00  0.00    +0.000 OA
ATOM     24  O   UNL     1     111.251 129.142 135.706  0.00  0.00    +0.000 OA
ATOM     25  O   UNL     1     112.818 129.358 135.240  0.00  0.00    +0.000 OA
ATOM     26  C   UNL     1     111.662 128.118 136.614  0.00  0.00    +0.000 C 
ATOM     27  C   UNL     1     111.849 128.684 136.044  0.00  0.00    +0.000 C 
ATOM     28  C   UNL     1     112.632 128.793 135.810  0.00  0.00    +0.000 C 
ATOM     29  C   UNL     1     113.230 128.335 136.147  0.00  0.00    +0.000 C 
ATOM     30  C   UNL     1     112.259 127.660 136.951  0.00  0.00    +0.000 C 
BRANCH  29  32
ATOM     31  O   UNL     1     114.453 127.800 135.639  0.00  0.00    +0.000 OA
ATOM     32  C   UNL     1     114.013 128.442 135.915  0.00  0.00    +0.000 C 
ENDBRANCH  29  32
BRANCH  26  33
ATOM     33  O   UNL     1     110.879 128.010 136.848  0.00  0.00    +0.000 OA
BRANCH  33  38
ATOM     34  O   UNL     1     110.633 127.241 135.669  0.00  0.00    +0.000 OA
ATOM     35  O   UNL     1     109.306 127.810 137.304  0.00  0.00    +0.000 OA
ATOM     36  O   UNL     1     108.275 126.941 136.354  0.00  0.00    +0.000 OA
ATOM     37  O   UNL     1     108.816 126.271 134.946  0.00  0.00    +0.000 OA
ATOM     38  C   UNL     1     110.363 127.575 136.372  0.00  0.00    +0.000 C 
ATOM     39  C   UNL     1     109.576 127.475 136.601  0.00  0.00    +0.000 C 
ATOM     40  C   UNL     1     109.060 127.041 136.125  0.00  0.00    +0.000 C 
ATOM     41  C   UNL     1     109.332 126.706 135.422  0.00  0.00    +0.000 C 
ATOM     42  C   UNL     1     110.118 126.806 135.193  0.00  0.00    +0.000 C 
ENDBRANCH  33  38
ENDBRANCH  26  33
ENDBRANCH   1  30
TORSDOF 6
ENDMDL
MODEL 2
REMARK VINA RESULT:      -9.8      2.215      4.116
REMARK  Name = 44259094
REMARK  6 active torsions:
REMARK  status: ('A' for Active; 'I' for Inactive)
REMARK    1  A    between atoms: O_1  and  C_17
REMARK    2  A    between atoms: O_1  and  C_22
REMARK    3  A    between atoms: O_4  and  C_21
REMARK    4  A    between atoms: O_4  and  C_28
REMARK    5  A    between atoms: C_20  and  C_26
REMARK    6  A    between atoms: C_29  and  C_32
REMARK                            x       y       z     vdW  Elec       q    Type
REMARK                         _______ _______ _______ _____ _____    ______ ____
ROOT
ATOM      1  O   UNL     1     111.592 126.395 138.994  0.00  0.00    +0.000 OA
ENDROOT
BRANCH   1   6
ATOM      2  O   UNL     1     113.740 126.179 138.678  0.00  0.00    +0.000 OA
ATOM      3  O   UNL     1     111.616 125.309 137.752  0.00  0.00    +0.000 OA
ATOM      4  O   UNL     1     112.331 124.494 136.800  0.00  0.00    +0.000 OA
ATOM      5  O   UNL     1     115.250 124.562 136.784  0.00  0.00    +0.000 OA
ATOM      6  C   UNL     1     112.312 126.142 138.682  0.00  0.00    +0.000 A 
ATOM      7  C   UNL     1     113.020 126.432 138.991  0.00  0.00    +0.000 A 
ATOM      8  C   UNL     1     112.324 125.599 138.061  0.00  0.00    +0.000 A 
ATOM      9  C   UNL     1     113.044 125.346 137.749  0.00  0.00    +0.000 A 
ATOM     10  C   UNL     1     113.753 125.635 138.057  0.00  0.00    +0.000 A 
ATOM     11  C   UNL     1     113.044 124.779 137.102  0.00  0.00    +0.000 A 
ATOM     12  C   UNL     1     114.510 125.380 137.741  0.00  0.00    +0.000 A 
ATOM     13  C   UNL     1     113.792 124.512 136.773  0.00  0.00    +0.000 A 
ATOM     14  C   UNL     1     114.528 124.814 137.094  0.00  0.00    +0.000 A 
BRANCH   7  17
ATOM     15  O   UNL     1     113.152 129.132 139.921  0.00  0.00    +0.000 OA
ATOM     16  O   UNL     1     112.972 128.605 141.474  0.00  0.00    +0.000 OA
ATOM     17  C   UNL     1     113.008 126.975 139.611  0.00  0.00    +0.000 A 
ATOM     18  C   UNL     1     113.086 127.782 139.456  0.00  0.00    +0.000 A 
ATOM     19  C   UNL     1     112.918 126.712 140.387  0.00  0.00    +0.000 A 
ATOM     20  C   UNL     1     113.074 128.325 140.076  0.00  0.00    +0.000 A 
ATOM     21  C   UNL     1     112.906 127.256 141.009  0.00  0.00    +0.000 A 
ATOM     22  C   UNL     1     112.984 128.062 140.853  0.00  0.00    +0.000 A 
ENDBRANCH   7  17
ENDBRANCH   1   6
BRANCH   1  30
ATOM     23  O   UNL     1     111.249 127.228 137.884  0.00  0.00    +0.000 OA
ATOM     24  O   UNL     1     108.853 126.719 138.242  0.00  0.00    +0.000 OA
ATOM     25  O   UNL     1     109.309 127.721 137.014  0.00  0.00    +0.000 OA
ATOM     26  C   UNL     1     110.222 126.557 138.619  0.00  0.00    +0.000 C 
ATOM     27  C   UNL     1     109.652 126.889 138.123  0.00  0.00    +0.000 C 
ATOM     28  C   UNL     1     109.879 127.390 137.509  0.00  0.00    +0.000 C 
ATOM     29  C   UNL     1     110.678 127.559 137.390  0.00  0.00    +0.000 C 
ATOM     30  C   UNL     1     111.021 126.726 138.499  0.00  0.00    +0.000 C 
BRANCH  29  32
ATOM     31  O   UNL     1     111.292 128.771 136.945  0.00  0.00    +0.000 OA
ATOM     32  C   UNL     1     110.906 128.060 136.776  0.00  0.00    +0.000 C 
ENDBRANCH  29  32
BRANCH  26  33
ATOM     33  O   UNL     1     109.995 126.056 139.232  0.00  0.00    +0.000 OA
BRANCH  33  38
ATOM     34  O   UNL     1     109.631 127.188 140.024  0.00  0.00    +0.000 OA
ATOM     35  O   UNL     1     109.441 125.050 140.417  0.00  0.00    +0.000 OA
ATOM     36  O   UNL     1     108.800 125.680 141.801  0.00  0.00    +0.000 OA
ATOM     37  O   UNL     1     108.713 127.316 142.000  0.00  0.00    +0.000 OA
ATOM     38  C   UNL     1     109.674 126.371 139.924  0.00  0.00    +0.000 C 
ATOM     39  C   UNL     1     109.397 125.868 140.517  0.00  0.00    +0.000 C 
ATOM     40  C   UNL     1     109.077 126.183 141.209  0.00  0.00    +0.000 C 
ATOM     41  C   UNL     1     109.033 127.001 141.308  0.00  0.00    +0.000 C 
ATOM     42  C   UNL     1     109.310 127.503 140.716  0.00  0.00    +0.000 C 
ENDBRANCH  33  38
ENDBRANCH  26  33
ENDBRANCH   1  30
TORSDOF 6
ENDMDL
MODEL 3
REMARK VINA RESULT:      -9.7      2.817      4.620
REMARK  Name = 44259094
REMARK  6 active torsions:
REMARK  status: ('A' for Active; 'I' for Inactive)
REMARK    1  A    between atoms: O_1  and  C_17
REMARK    2  A    between atoms: O_1  and  C_22
REMARK    3  A    between atoms: O_4  and  C_21
REMARK    4  A    between atoms: O_4  and  C_28
REMARK    5  A    between atoms: C_20  and  C_26
REMARK    6  A    between atoms: C_29  and  C_32
REMARK                            x       y       z     vdW  Elec       q    Type
REMARK                         _______ _______ _______ _____ _____    ______ ____
ROOT
ATOM      1  O   UNL     1     110.457 129.677 137.665  0.00  0.00    +0.000 OA
ENDROOT
BRANCH   1   6
ATOM      2  O   UNL     1     111.754 128.014 138.225  0.00  0.00    +0.000 OA
ATOM      3  O   UNL     1     109.398 128.724 138.497  0.00  0.00    +0.000 OA
ATOM      4  O   UNL     1     109.095 127.530 139.249  0.00  0.00    +0.000 OA
ATOM      5  O   UNL     1     111.215 125.582 139.734  0.00  0.00    +0.000 OA
ATOM      6  C   UNL     1     110.713 128.964 137.991  0.00  0.00    +0.000 A 
ATOM      7  C   UNL     1     111.498 128.727 137.900  0.00  0.00    +0.000 A 
ATOM      8  C   UNL     1     110.184 128.488 138.406  0.00  0.00    +0.000 A 
ATOM      9  C   UNL     1     110.439 127.774 138.732  0.00  0.00    +0.000 A 
ATOM     10  C   UNL     1     111.224 127.536 138.642  0.00  0.00    +0.000 A 
ATOM     11  C   UNL     1     109.878 127.285 139.163  0.00  0.00    +0.000 A 
ATOM     12  C   UNL     1     111.503 126.796 138.975  0.00  0.00    +0.000 A 
ATOM     13  C   UNL     1     110.139 126.541 139.504  0.00  0.00    +0.000 A 
ATOM     14  C   UNL     1     110.956 126.295 139.410  0.00  0.00    +0.000 A 
BRANCH   7  17
ATOM     15  O   UNL     1     113.301 130.944 137.824  0.00  0.00    +0.000 OA
ATOM     16  O   UNL     1     113.616 130.633 136.235  0.00  0.00    +0.000 OA
ATOM     17  C   UNL     1     112.027 129.203 137.484  0.00  0.00    +0.000 A 
ATOM     18  C   UNL     1     112.400 129.835 137.862  0.00  0.00    +0.000 A 
ATOM     19  C   UNL     1     112.185 129.048 136.689  0.00  0.00    +0.000 A 
ATOM     20  C   UNL     1     112.929 130.312 137.446  0.00  0.00    +0.000 A 
ATOM     21  C   UNL     1     112.715 129.525 136.272  0.00  0.00    +0.000 A 
ATOM     22  C   UNL     1     113.086 130.156 136.651  0.00  0.00    +0.000 A 
ENDBRANCH   7  17
ENDBRANCH   1   6
BRANCH   1  30
ATOM     23  O   UNL     1     109.713 129.078 136.603  0.00  0.00    +0.000 OA
ATOM     24  O   UNL     1     108.087 130.942 136.690  0.00  0.00    +0.000 OA
ATOM     25  O   UNL     1     107.886 129.722 135.599  0.00  0.00    +0.000 OA
ATOM     26  C   UNL     1     109.272 130.310 137.178  0.00  0.00    +0.000 C 
ATOM     27  C   UNL     1     108.629 130.321 136.661  0.00  0.00    +0.000 C 
ATOM     28  C   UNL     1     108.528 129.711 136.115  0.00  0.00    +0.000 C 
ATOM     29  C   UNL     1     109.070 129.090 136.086  0.00  0.00    +0.000 C 
ATOM     30  C   UNL     1     109.814 129.689 137.149  0.00  0.00    +0.000 C 
BRANCH  29  32
ATOM     31  O   UNL     1     109.539 128.350 134.957  0.00  0.00    +0.000 OA
ATOM     32  C   UNL     1     108.970 128.479 135.541  0.00  0.00    +0.000 C 
ENDBRANCH  29  32
BRANCH  26  33
ATOM     33  O   UNL     1     109.373 130.920 137.723  0.00  0.00    +0.000 OA
BRANCH  33  38
ATOM     34  O   UNL     1     109.877 131.765 136.687  0.00  0.00    +0.000 OA
ATOM     35  O   UNL     1     109.628 132.121 138.825  0.00  0.00    +0.000 OA
ATOM     36  O   UNL     1     110.258 133.567 138.339  0.00  0.00    +0.000 OA
ATOM     37  O   UNL     1     110.635 133.810 136.751  0.00  0.00    +0.000 OA
ATOM     38  C   UNL     1     109.689 131.643 137.480  0.00  0.00    +0.000 C 
ATOM     39  C   UNL     1     109.816 132.244 138.032  0.00  0.00    +0.000 C 
ATOM     40  C   UNL     1     110.131 132.967 137.789  0.00  0.00    +0.000 C 
ATOM     41  C   UNL     1     110.319 133.088 136.994  0.00  0.00    +0.000 C 
ATOM     42  C   UNL     1     110.192 132.488 136.444  0.00  0.00    +0.000 C 
ENDBRANCH  33  38
ENDBRANCH  26  33
ENDBRANCH   1  30
TORSDOF 6
ENDMDL
MODEL 4
REMARK VINA RESULT:      -9.7      2.393      4.581
REMARK  Name = 44259094
REMARK  6 active torsions:
REMARK  status: ('A' for Active; 'I' for Inactive)
REMARK    1  A    between atoms: O_1  and  C_17
REMARK    2  A    between atoms: O_1  and  C_22
REMARK    3  A    between atoms: O_4  and  C_21
REMARK    4  A    between atoms: O_4  and  C_28
REMARK    5  A    between atoms: C_20  and  C_26
REMARK    6  A    between atoms: C_29  and  C_32
REMARK                            x       y       z     vdW  Elec       q    Type
REMARK                         _______ _______ _______ _____ _____    ______ ____
ROOT
ATOM      1  O   UNL     1     111.141 129.120 136.941  0.00  0.00    +0.000 OA
ENDROOT
BRANCH   1   6
ATOM      2  O   UNL     1     110.535 127.446 135.679  0.00  0.00    +0.000 OA
ATOM      3  O   UNL     1     111.996 127.887 137.627  0.00  0.00    +0.000 OA
ATOM      4  O   UNL     1     112.385 126.498 137.686  0.00  0.00    +0.000 OA
ATOM      5  O   UNL     1     111.273 124.629 135.737  0.00  0.00    +0.000 OA
ATOM      6  C   UNL     1     111.082 128.356 136.634  0.00  0.00    +0.000 A 
ATOM      7  C   UNL     1     110.594 128.210 135.985  0.00  0.00    +0.000 A 
ATOM      8  C   UNL     1     111.509 127.740 136.977  0.00  0.00    +0.000 A 
ATOM      9  C   UNL     1     111.449 126.976 136.671  0.00  0.00    +0.000 A 
ATOM     10  C   UNL     1     110.963 126.829 136.022  0.00  0.00    +0.000 A 
ATOM     11  C   UNL     1     111.900 126.342 137.037  0.00  0.00    +0.000 A 
ATOM     12  C   UNL     1     110.892 126.038 135.693  0.00  0.00    +0.000 A 
ATOM     13  C   UNL     1     111.842 125.545 136.722  0.00  0.00    +0.000 A 
ATOM     14  C   UNL     1     111.335 125.392 136.046  0.00  0.00    +0.000 A 
BRANCH   7  17
ATOM     15  O   UNL     1     108.277 129.882 135.925  0.00  0.00    +0.000 OA
ATOM     16  O   UNL     1     108.884 130.676 134.612  0.00  0.00    +0.000 OA
ATOM     17  C   UNL     1     110.167 128.826 135.642  0.00  0.00    +0.000 A 
ATOM     18  C   UNL     1     109.436 129.046 135.955  0.00  0.00    +0.000 A 
ATOM     19  C   UNL     1     110.470 129.222 134.986  0.00  0.00    +0.000 A 
ATOM     20  C   UNL     1     109.008 129.662 135.612  0.00  0.00    +0.000 A 
ATOM     21  C   UNL     1     110.042 129.840 134.642  0.00  0.00    +0.000 A 
ATOM     22  C   UNL     1     109.312 130.059 134.956  0.00  0.00    +0.000 A 
ENDBRANCH   7  17
ENDBRANCH   1   6
BRANCH   1  30
ATOM     23  O   UNL     1     112.459 129.355 136.440  0.00  0.00    +0.000 OA
ATOM     24  O   UNL     1     112.943 130.799 138.391  0.00  0.00    +0.000 OA
ATOM     25  O   UNL     1     114.098 130.552 137.240  0.00  0.00    +0.000 OA
ATOM     26  C   UNL     1     112.042 129.960 137.666  0.00  0.00    +0.000 C 
ATOM     27  C   UNL     1     112.781 130.318 137.740  0.00  0.00    +0.000 C 
ATOM     28  C   UNL     1     113.359 130.194 137.165  0.00  0.00    +0.000 C 
ATOM     29  C   UNL     1     113.198 129.713 136.515  0.00  0.00    +0.000 C 
ATOM     30  C   UNL     1     111.880 129.478 137.016  0.00  0.00    +0.000 C 
BRANCH  29  32
ATOM     31  O   UNL     1     113.632 129.813 135.157  0.00  0.00    +0.000 OA
ATOM     32  C   UNL     1     113.775 129.589 135.939  0.00  0.00    +0.000 C 
ENDBRANCH  29  32
BRANCH  26  33
ATOM     33  O   UNL     1     111.464 130.083 138.241  0.00  0.00    +0.000 OA
BRANCH  33  38
ATOM     34  O   UNL     1     111.186 131.370 137.687  0.00  0.00    +0.000 OA
ATOM     35  O   UNL     1     110.304 130.327 139.389  0.00  0.00    +0.000 OA
ATOM     36  O   UNL     1     109.447 131.737 139.408  0.00  0.00    +0.000 OA
ATOM     37  O   UNL     1     109.750 132.902 138.280  0.00  0.00    +0.000 OA
ATOM     38  C   UNL     1     111.035 130.788 138.251  0.00  0.00    +0.000 C 
ATOM     39  C   UNL     1     110.455 130.910 138.825  0.00  0.00    +0.000 C 
ATOM     40  C   UNL     1     110.026 131.615 138.835  0.00  0.00    +0.000 C 
ATOM     41  C   UNL     1     110.178 132.197 138.270  0.00  0.00    +0.000 C 
ATOM     42  C   UNL     1     110.758 132.075 137.697  0.00  0.00    +0.000 C 
ENDBRANCH  33  38
ENDBRANCH  26  33
ENDBRANCH   1  30
TORSDOF 6
ENDMDL
MODEL 5
REMARK VINA RESULT:      -9.7      1.585      4.400
REMARK  Name = 44259094
REMARK  6 active torsions:
REMARK  status: ('A' for Active; 'I' for Inactive)
REMARK    1  A    between atoms: O_1  and  C_17
REMARK    2  A    between atoms: O_1  and  C_22
REMARK    3  A    between atoms: O_4  and  C_21
REMARK    4  A    between atoms: O_4  and  C_28
REMARK    5  A    between atoms: C_20  and  C_26
REMARK    6  A    between atoms: C_29  and  C_32
REMARK                            x       y       z     vdW  Elec       q    Type
REMARK                         _______ _______ _______ _____ _____    ______ ____
ROOT
ATOM      1  O   UNL     1     112.185 127.475 137.955  0.00  0.00    +0.000 OA
ENDROOT
BRANCH   1   6
ATOM      2  O   UNL     1     112.432 125.313 138.120  0.00  0.00    +0.000 OA
ATOM      3  O   UNL     1     111.578 126.981 136.502  0.00  0.00    +0.000 OA
ATOM      4  O   UNL     1     111.242 125.939 135.562  0.00  0.00    +0.000 OA
ATOM      5  O   UNL     1     111.781 123.159 136.272  0.00  0.00    +0.000 OA
ATOM      6  C   UNL     1     112.166 126.672 137.768  0.00  0.00    +0.000 A 
ATOM      7  C   UNL     1     112.450 126.117 138.307  0.00  0.00    +0.000 A 
ATOM      8  C   UNL     1     111.862 126.425 137.042  0.00  0.00    +0.000 A 
ATOM      9  C   UNL     1     111.844 125.622 136.855  0.00  0.00    +0.000 A 
ATOM     10  C   UNL     1     112.128 125.066 137.394  0.00  0.00    +0.000 A 
ATOM     11  C   UNL     1     111.525 125.376 136.095  0.00  0.00    +0.000 A 
ATOM     12  C   UNL     1     112.114 124.226 137.211  0.00  0.00    +0.000 A 
ATOM     13  C   UNL     1     111.503 124.541 135.895  0.00  0.00    +0.000 A 
ATOM     14  C   UNL     1     111.799 123.962 136.457  0.00  0.00    +0.000 A 
BRANCH   7  17
ATOM     15  O   UNL     1     112.107 126.574 141.107  0.00  0.00    +0.000 OA
ATOM     16  O   UNL     1     113.665 127.106 141.212  0.00  0.00    +0.000 OA
ATOM     17  C   UNL     1     112.754 126.364 139.033  0.00  0.00    +0.000 A 
ATOM     18  C   UNL     1     112.279 126.345 139.707  0.00  0.00    +0.000 A 
ATOM     19  C   UNL     1     113.533 126.630 139.085  0.00  0.00    +0.000 A 
ATOM     20  C   UNL     1     112.582 126.592 140.433  0.00  0.00    +0.000 A 
ATOM     21  C   UNL     1     113.837 126.877 139.812  0.00  0.00    +0.000 A 
ATOM     22  C   UNL     1     113.361 126.858 140.485  0.00  0.00    +0.000 A 
ENDBRANCH   7  17
ENDBRANCH   1   6
BRANCH   1  30
ATOM     23  O   UNL     1     110.784 127.588 138.213  0.00  0.00    +0.000 OA
ATOM     24  O   UNL     1     110.812 129.910 137.358  0.00  0.00    +0.000 OA
ATOM     25  O   UNL     1     109.403 129.248 137.901  0.00  0.00    +0.000 OA
ATOM     26  C   UNL     1     111.499 128.693 137.656  0.00  0.00    +0.000 C 
ATOM     27  C   UNL     1     110.803 129.136 137.643  0.00  0.00    +0.000 C 
ATOM     28  C   UNL     1     110.098 128.806 137.914  0.00  0.00    +0.000 C 
ATOM     29  C   UNL     1     110.088 128.031 138.199  0.00  0.00    +0.000 C 
ATOM     30  C   UNL     1     111.489 127.919 137.941  0.00  0.00    +0.000 C 
BRANCH  29  32
ATOM     31  O   UNL     1     109.322 127.448 139.255  0.00  0.00    +0.000 OA
ATOM     32  C   UNL     1     109.384 127.700 138.471  0.00  0.00    +0.000 C 
ENDBRANCH  29  32
BRANCH  26  33
ATOM     33  O   UNL     1     112.204 129.024 137.385  0.00  0.00    +0.000 OA
BRANCH  33  38
ATOM     34  O   UNL     1     112.358 129.716 138.626  0.00  0.00    +0.000 OA
ATOM     35  O   UNL     1     113.630 129.661 136.853  0.00  0.00    +0.000 OA
ATOM     36  O   UNL     1     114.496 130.672 137.829  0.00  0.00    +0.000 OA
ATOM     37  O   UNL     1     113.936 131.044 139.335  0.00  0.00    +0.000 OA
ATOM     38  C   UNL     1     112.637 129.529 137.872  0.00  0.00    +0.000 C 
ATOM     39  C   UNL     1     113.351 129.848 137.607  0.00  0.00    +0.000 C 
ATOM     40  C   UNL     1     113.784 130.353 138.094  0.00  0.00    +0.000 C 
ATOM     41  C   UNL     1     113.503 130.539 138.848  0.00  0.00    +0.000 C 
ATOM     42  C   UNL     1     112.791 130.221 139.113  0.00  0.00    +0.000 C 
ENDBRANCH  33  38
ENDBRANCH  26  33
ENDBRANCH   1  30
TORSDOF 6
ENDMDL
MODEL 6
REMARK VINA RESULT:      -9.6      1.632      3.758
REMARK  Name = 44259094
REMARK  6 active torsions:
REMARK  status: ('A' for Active; 'I' for Inactive)
REMARK    1  A    between atoms: O_1  and  C_17
REMARK    2  A    between atoms: O_1  and  C_22
REMARK    3  A    between atoms: O_4  and  C_21
REMARK    4  A    between atoms: O_4  and  C_28
REMARK    5  A    between atoms: C_20  and  C_26
REMARK    6  A    between atoms: C_29  and  C_32
REMARK                            x       y       z     vdW  Elec       q    Type
REMARK                         _______ _______ _______ _____ _____    ______ ____
ROOT
ATOM      1  O   UNL     1     111.175 127.738 136.927  0.00  0.00    +0.000 OA
ENDROOT
BRANCH   1   6
ATOM      2  O   UNL     1     112.753 126.377 136.278  0.00  0.00    +0.000 OA
ATOM      3  O   UNL     1     110.669 126.325 137.612  0.00  0.00    +0.000 OA
ATOM      4  O   UNL     1     110.835 124.915 137.870  0.00  0.00    +0.000 OA
ATOM      5  O   UNL     1     113.154 123.533 136.758  0.00  0.00    +0.000 OA
ATOM      6  C   UNL     1     111.617 127.049 136.825  0.00  0.00    +0.000 A 
ATOM      7  C   UNL     1     112.312 127.067 136.381  0.00  0.00    +0.000 A 
ATOM      8  C   UNL     1     111.364 126.343 137.167  0.00  0.00    +0.000 A 
ATOM      9  C   UNL     1     111.805 125.653 137.065  0.00  0.00    +0.000 A 
ATOM     10  C   UNL     1     112.500 125.670 136.621  0.00  0.00    +0.000 A 
ATOM     11  C   UNL     1     111.531 124.923 137.427  0.00  0.00    +0.000 A 
ATOM     12  C   UNL     1     112.969 124.959 136.507  0.00  0.00    +0.000 A 
ATOM     13  C   UNL     1     111.987 124.202 137.324  0.00  0.00    +0.000 A 
ATOM     14  C   UNL     1     112.710 124.221 136.861  0.00  0.00    +0.000 A 
BRANCH   7  17
ATOM     15  O   UNL     1     113.997 129.374 136.425  0.00  0.00    +0.000 OA
ATOM     16  O   UNL     1     113.324 129.893 135.010  0.00  0.00    +0.000 OA
ATOM     17  C   UNL     1     112.565 127.773 136.038  0.00  0.00    +0.000 A 
ATOM     18  C   UNL     1     113.154 128.221 136.403  0.00  0.00    +0.000 A 
ATOM     19  C   UNL     1     112.228 128.032 135.331  0.00  0.00    +0.000 A 
ATOM     20  C   UNL     1     113.407 128.926 136.060  0.00  0.00    +0.000 A 
ATOM     21  C   UNL     1     112.482 128.739 134.988  0.00  0.00    +0.000 A 
ATOM     22  C   UNL     1     113.071 129.186 135.353  0.00  0.00    +0.000 A 
ENDBRANCH   7  17
ENDBRANCH   1   6
BRANCH   1  30
ATOM     23  O   UNL     1     111.563 127.953 138.286  0.00  0.00    +0.000 OA
ATOM     24  O   UNL     1     109.335 128.915 138.771  0.00  0.00    +0.000 OA
ATOM     25  O   UNL     1     110.466 128.809 139.966  0.00  0.00    +0.000 OA
ATOM     26  C   UNL     1     110.255 128.327 137.849  0.00  0.00    +0.000 C 
ATOM     27  C   UNL     1     110.078 128.594 138.609  0.00  0.00    +0.000 C 
ATOM     28  C   UNL     1     110.643 128.541 139.207  0.00  0.00    +0.000 C 
ATOM     29  C   UNL     1     111.386 128.221 139.045  0.00  0.00    +0.000 C 
ATOM     30  C   UNL     1     110.997 128.006 137.687  0.00  0.00    +0.000 C 
BRANCH  29  32
ATOM     31  O   UNL     1     112.665 128.578 139.573  0.00  0.00    +0.000 OA
ATOM     32  C   UNL     1     111.951 128.167 139.643  0.00  0.00    +0.000 C 
ENDBRANCH  29  32
BRANCH  26  33
ATOM     33  O   UNL     1     109.690 128.380 137.251  0.00  0.00    +0.000 OA
BRANCH  33  38
ATOM     34  O   UNL     1     109.990 129.768 137.089  0.00  0.00    +0.000 OA
ATOM     35  O   UNL     1     108.514 128.500 136.099  0.00  0.00    +0.000 OA
ATOM     36  O   UNL     1     108.227 129.948 135.362  0.00  0.00    +0.000 OA
ATOM     37  O   UNL     1     109.115 131.276 135.776  0.00  0.00    +0.000 OA
ATOM     38  C   UNL     1     109.546 129.104 136.882  0.00  0.00    +0.000 C 
ATOM     39  C   UNL     1     108.958 129.164 136.306  0.00  0.00    +0.000 C 
ATOM     40  C   UNL     1     108.814 129.888 135.937  0.00  0.00    +0.000 C 
ATOM     41  C   UNL     1     109.259 130.552 136.145  0.00  0.00    +0.000 C 
ATOM     42  C   UNL     1     109.846 130.492 136.720  0.00  0.00    +0.000 C 
ENDBRANCH  33  38
ENDBRANCH  26  33
ENDBRANCH   1  30
TORSDOF 6
ENDMDL
MODEL 7
REMARK VINA RESULT:      -9.6      1.793      3.525
REMARK  Name = 44259094
REMARK  6 active torsions:
REMARK  status: ('A' for Active; 'I' for Inactive)
REMARK    1  A    between atoms: O_1  and  C_17
REMARK    2  A    between atoms: O_1  and  C_22
REMARK    3  A    between atoms: O_4  and  C_21
REMARK    4  A    between atoms: O_4  and  C_28
REMARK    5  A    between atoms: C_20  and  C_26
REMARK    6  A    between atoms: C_29  and  C_32
REMARK                            x       y       z     vdW  Elec       q    Type
REMARK                         _______ _______ _______ _____ _____    ______ ____
ROOT
ATOM      1  O   UNL     1     111.735 127.580 137.665  0.00  0.00    +0.000 OA
ENDROOT
BRANCH   1   6
ATOM      2  O   UNL     1     113.262 127.405 136.115  0.00  0.00    +0.000 OA
ATOM      3  O   UNL     1     112.296 129.130 137.605  0.00  0.00    +0.000 OA
ATOM      4  O   UNL     1     113.177 130.135 137.060  0.00  0.00    +0.000 OA
ATOM      5  O   UNL     1     115.069 129.380 134.969  0.00  0.00    +0.000 OA
ATOM      6  C   UNL     1     112.338 127.780 137.139  0.00  0.00    +0.000 A 
ATOM      7  C   UNL     1     112.659 127.205 136.642  0.00  0.00    +0.000 A 
ATOM      8  C   UNL     1     112.618 128.555 137.109  0.00  0.00    +0.000 A 
ATOM      9  C   UNL     1     113.220 128.755 136.582  0.00  0.00    +0.000 A 
ATOM     10  C   UNL     1     113.543 128.181 136.085  0.00  0.00    +0.000 A 
ATOM     11  C   UNL     1     113.505 129.566 136.560  0.00  0.00    +0.000 A 
ATOM     12  C   UNL     1     114.170 128.376 135.532  0.00  0.00    +0.000 A 
ATOM     13  C   UNL     1     114.132 129.781 136.013  0.00  0.00    +0.000 A 
ATOM     14  C   UNL     1     114.467 129.182 135.496  0.00  0.00    +0.000 A 
BRANCH   7  17
ATOM     15  O   UNL     1     110.971 125.141 135.612  0.00  0.00    +0.000 OA
ATOM     16  O   UNL     1     111.538 124.103 136.763  0.00  0.00    +0.000 OA
ATOM     17  C   UNL     1     112.379 126.430 136.672  0.00  0.00    +0.000 A 
ATOM     18  C   UNL     1     111.815 126.173 136.127  0.00  0.00    +0.000 A 
ATOM     19  C   UNL     1     112.662 125.911 137.247  0.00  0.00    +0.000 A 
ATOM     20  C   UNL     1     111.535 125.398 136.157  0.00  0.00    +0.000 A 
ATOM     21  C   UNL     1     112.382 125.135 137.277  0.00  0.00    +0.000 A 
ATOM     22  C   UNL     1     111.818 124.879 136.732  0.00  0.00    +0.000 A 
ENDBRANCH   7  17
ENDBRANCH   1   6
BRANCH   1  30
ATOM     23  O   UNL     1     110.696 128.228 136.929  0.00  0.00    +0.000 OA
ATOM     24  O   UNL     1     109.522 128.749 139.045  0.00  0.00    +0.000 OA
ATOM     25  O   UNL     1     108.875 129.223 137.604  0.00  0.00    +0.000 OA
ATOM     26  C   UNL     1     110.629 128.164 138.356  0.00  0.00    +0.000 C 
ATOM     27  C   UNL     1     109.914 128.575 138.340  0.00  0.00    +0.000 C 
ATOM     28  C   UNL     1     109.590 128.812 137.620  0.00  0.00    +0.000 C 
ATOM     29  C   UNL     1     109.981 128.639 136.915  0.00  0.00    +0.000 C 
ATOM     30  C   UNL     1     111.020 127.990 137.651  0.00  0.00    +0.000 C 
BRANCH  29  32
ATOM     31  O   UNL     1     109.436 128.309 135.635  0.00  0.00    +0.000 OA
ATOM     32  C   UNL     1     109.657 128.876 136.194  0.00  0.00    +0.000 C 
ENDBRANCH  29  32
BRANCH  26  33
ATOM     33  O   UNL     1     110.953 127.927 139.076  0.00  0.00    +0.000 OA
BRANCH  33  38
ATOM     34  O   UNL     1     110.022 126.844 139.138  0.00  0.00    +0.000 OA
ATOM     35  O   UNL     1     111.590 127.462 140.525  0.00  0.00    +0.000 OA
ATOM     36  O   UNL     1     110.978 126.147 141.311  0.00  0.00    +0.000 OA
ATOM     37  O   UNL     1     109.729 125.297 140.649  0.00  0.00    +0.000 OA
ATOM     38  C   UNL     1     110.647 127.269 139.469  0.00  0.00    +0.000 C 
ATOM     39  C   UNL     1     110.965 127.037 140.194  0.00  0.00    +0.000 C 
ATOM     40  C   UNL     1     110.659 126.379 140.587  0.00  0.00    +0.000 C 
ATOM     41  C   UNL     1     110.035 125.954 140.255  0.00  0.00    +0.000 C 
ATOM     42  C   UNL     1     109.716 126.187 139.531  0.00  0.00    +0.000 C 
ENDBRANCH  33  38
ENDBRANCH  26  33
ENDBRANCH   1  30
TORSDOF 6
ENDMDL
MODEL 8
REMARK VINA RESULT:      -9.6      1.816      3.658
REMARK  Name = 44259094
REMARK  6 active torsions:
REMARK  status: ('A' for Active; 'I' for Inactive)
REMARK    1  A    between atoms: O_1  and  C_17
REMARK    2  A    between atoms: O_1  and  C_22
REMARK    3  A    between atoms: O_4  and  C_21
REMARK    4  A    between atoms: O_4  and  C_28
REMARK    5  A    between atoms: C_20  and  C_26
REMARK    6  A    between atoms: C_29  and  C_32
REMARK                            x       y       z     vdW  Elec       q    Type
REMARK                         _______ _______ _______ _____ _____    ______ ____
ROOT
ATOM      1  O   UNL     1     110.786 127.737 136.792  0.00  0.00    +0.000 OA
ENDROOT
BRANCH   1   6
ATOM      2  O   UNL     1     111.297 125.998 138.007  0.00  0.00    +0.000 OA
ATOM      3  O   UNL     1     111.009 126.595 135.622  0.00  0.00    +0.000 OA
ATOM      4  O   UNL     1     111.328 125.248 135.216  0.00  0.00    +0.000 OA
ATOM      5  O   UNL     1     111.950 123.259 137.262  0.00  0.00    +0.000 OA
ATOM      6  C   UNL     1     110.993 126.967 137.002  0.00  0.00    +0.000 A 
ATOM      7  C   UNL     1     111.090 126.768 137.797  0.00  0.00    +0.000 A 
ATOM      8  C   UNL     1     111.105 126.396 136.417  0.00  0.00    +0.000 A 
ATOM      9  C   UNL     1     111.313 125.626 136.627  0.00  0.00    +0.000 A 
ATOM     10  C   UNL     1     111.409 125.426 137.421  0.00  0.00    +0.000 A 
ATOM     11  C   UNL     1     111.426 125.039 136.008  0.00  0.00    +0.000 A 
ATOM     12  C   UNL     1     111.625 124.628 137.653  0.00  0.00    +0.000 A 
ATOM     13  C   UNL     1     111.642 124.236 136.221  0.00  0.00    +0.000 A 
ATOM     14  C   UNL     1     111.743 124.029 137.049  0.00  0.00    +0.000 A 
BRANCH   7  17
ATOM     15  O   UNL     1     109.344 128.271 139.488  0.00  0.00    +0.000 OA
ATOM     16  O   UNL     1     110.645 129.052 140.137  0.00  0.00    +0.000 OA
ATOM     17  C   UNL     1     110.978 127.339 138.381  0.00  0.00    +0.000 A 
ATOM     18  C   UNL     1     110.217 127.520 138.642  0.00  0.00    +0.000 A 
ATOM     19  C   UNL     1     111.629 127.729 138.706  0.00  0.00    +0.000 A 
ATOM     20  C   UNL     1     110.105 128.090 139.227  0.00  0.00    +0.000 A 
ATOM     21  C   UNL     1     111.518 128.301 139.291  0.00  0.00    +0.000 A 
ATOM     22  C   UNL     1     110.756 128.481 139.551  0.00  0.00    +0.000 A 
ENDBRANCH   7  17
ENDBRANCH   1   6
BRANCH   1  30
ATOM     23  O   UNL     1     112.076 128.092 136.290  0.00  0.00    +0.000 OA
ATOM     24  O   UNL     1     111.018 129.572 134.613  0.00  0.00    +0.000 OA
ATOM     25  O   UNL     1     112.660 129.432 134.671  0.00  0.00    +0.000 OA
ATOM     26  C   UNL     1     110.901 128.655 135.702  0.00  0.00    +0.000 C 
ATOM     27  C   UNL     1     111.371 129.078 135.172  0.00  0.00    +0.000 C 
ATOM     28  C   UNL     1     112.192 129.009 135.201  0.00  0.00    +0.000 C 
ATOM     29  C   UNL     1     112.544 128.516 135.760  0.00  0.00    +0.000 C 
ATOM     30  C   UNL     1     111.254 128.161 136.261  0.00  0.00    +0.000 C 
BRANCH  29  32
ATOM     31  O   UNL     1     113.770 128.623 136.488  0.00  0.00    +0.000 OA
ATOM     32  C   UNL     1     113.366 128.446 135.790  0.00  0.00    +0.000 C 
ENDBRANCH  29  32
BRANCH  26  33
ATOM     33  O   UNL     1     110.080 128.724 135.673  0.00  0.00    +0.000 OA
BRANCH  33  38
ATOM     34  O   UNL     1     110.160 129.980 136.351  0.00  0.00    +0.000 OA
ATOM     35  O   UNL     1     108.449 128.914 135.515  0.00  0.00    +0.000 OA
ATOM     36  O   UNL     1     107.714 130.265 136.113  0.00  0.00    +0.000 OA
ATOM     37  O   UNL     1     108.610 131.425 136.870  0.00  0.00    +0.000 OA
ATOM     38  C   UNL     1     109.713 129.399 135.972  0.00  0.00    +0.000 C 
ATOM     39  C   UNL     1     108.896 129.495 135.893  0.00  0.00    +0.000 C 
ATOM     40  C   UNL     1     108.529 130.170 136.192  0.00  0.00    +0.000 C 
ATOM     41  C   UNL     1     108.978 130.750 136.571  0.00  0.00    +0.000 C 
ATOM     42  C   UNL     1     109.793 130.655 136.650  0.00  0.00    +0.000 C 
ENDBRANCH  33  38
ENDBRANCH  26  33
ENDBRANCH   1  30
TORSDOF 6
ENDMDL
MODEL 9
REMARK VINA RESULT:      -9.6      1.573      3.981
REMARK  Name = 44259094
REMARK  6 active torsions:
REMARK  status: ('A' for Active; 'I' for Inactive)
REMARK    1  A    between atoms: O_1  and  C_17
REMARK    2  A    between atoms: O_1  and  C_22
REMARK    3  A    between atoms: O_4  and  C_21
REMARK    4  A    between atoms: O_4  and  C_28
REMARK    5  A    between atoms: C_20  and  C_26
REMARK    6  A    between atoms: C_29  and  C_32
REMARK                            x       y       z     vdW  Elec       q    Type
REMARK                         _______ _______ _______ _____ _____    ______ ____
ROOT
ATOM      1  O   UNL     1     111.439 127.225 137.178  0.00  0.00    +0.000 OA
ENDROOT
BRANCH   1   6
ATOM      2  O   UNL     1     111.290 128.986 138.458  0.00  0.00    +0.000 OA
ATOM      3  O   UNL     1     111.671 128.432 136.076  0.00  0.00    +0.000 OA
ATOM      4  O   UNL     1     111.780 129.831 135.738  0.00  0.00    +0.000 OA
ATOM      5  O   UNL     1     111.499 131.827 137.851  0.00  0.00    +0.000 OA
ATOM      6  C   UNL     1     111.428 128.014 137.421  0.00  0.00    +0.000 A 
ATOM      7  C   UNL     1     111.301 128.198 138.215  0.00  0.00    +0.000 A 
ATOM      8  C   UNL     1     111.544 128.616 136.870  0.00  0.00    +0.000 A 
ATOM      9  C   UNL     1     111.532 129.405 137.114  0.00  0.00    +0.000 A 
ATOM     10  C   UNL     1     111.405 129.590 137.907  0.00  0.00    +0.000 A 
ATOM     11  C   UNL     1     111.654 130.025 136.531  0.00  0.00    +0.000 A 
ATOM     12  C   UNL     1     111.391 130.407 138.174  0.00  0.00    +0.000 A 
ATOM     13  C   UNL     1     111.643 130.847 136.778  0.00  0.00    +0.000 A 
ATOM     14  C   UNL     1     111.511 131.039 137.605  0.00  0.00    +0.000 A 
BRANCH   7  17
ATOM     15  O   UNL     1     112.368 126.202 139.961  0.00  0.00    +0.000 OA
ATOM     16  O   UNL     1     110.838 125.785 140.418  0.00  0.00    +0.000 OA
ATOM     17  C   UNL     1     111.186 127.595 138.766  0.00  0.00    +0.000 A 
ATOM     18  C   UNL     1     111.834 127.200 139.088  0.00  0.00    +0.000 A 
ATOM     19  C   UNL     1     110.421 127.387 138.994  0.00  0.00    +0.000 A 
ATOM     20  C   UNL     1     111.719 126.597 139.638  0.00  0.00    +0.000 A 
ATOM     21  C   UNL     1     110.305 126.783 139.546  0.00  0.00    +0.000 A 
ATOM     22  C   UNL     1     110.954 126.389 139.867  0.00  0.00    +0.000 A 
ENDBRANCH   7  17
ENDBRANCH   1   6
BRANCH   1  30
ATOM     23  O   UNL     1     110.159 127.266 136.545  0.00  0.00    +0.000 OA
ATOM     24  O   UNL     1     110.929 125.608 134.877  0.00  0.00    +0.000 OA
ATOM     25  O   UNL     1     109.393 126.202 134.801  0.00  0.00    +0.000 OA
ATOM     26  C   UNL     1     111.185 126.416 136.027  0.00  0.00    +0.000 C 
ATOM     27  C   UNL     1     110.672 126.161 135.433  0.00  0.00    +0.000 C 
ATOM     28  C   UNL     1     109.904 126.457 135.395  0.00  0.00    +0.000 C 
ATOM     29  C   UNL     1     109.647 127.010 135.951  0.00  0.00    +0.000 C 
ATOM     30  C   UNL     1     110.928 126.969 136.583  0.00  0.00    +0.000 C 
BRANCH  29  32
ATOM     31  O   UNL     1     108.355 127.175 136.537  0.00  0.00    +0.000 OA
ATOM     32  C   UNL     1     108.879 127.308 135.913  0.00  0.00    +0.000 C 
ENDBRANCH  29  32
BRANCH  26  33
ATOM     33  O   UNL     1     111.953 126.120 136.066  0.00  0.00    +0.000 OA
BRANCH  33  38
ATOM     34  O   UNL     1     111.455 124.897 136.612  0.00  0.00    +0.000 OA
ATOM     35  O   UNL     1     113.497 125.554 136.210  0.00  0.00    +0.000 OA
ATOM     36  O   UNL     1     113.769 124.049 136.828  0.00  0.00    +0.000 OA
ATOM     37  O   UNL     1     112.499 123.109 137.302  0.00  0.00    +0.000 OA
ATOM     38  C   UNL     1     112.089 125.367 136.375  0.00  0.00    +0.000 C 
ATOM     39  C   UNL     1     112.862 125.084 136.447  0.00  0.00    +0.000 C 
ATOM     40  C   UNL     1     112.998 124.331 136.756  0.00  0.00    +0.000 C 
ATOM     41  C   UNL     1     112.362 123.862 136.993  0.00  0.00    +0.000 C 
ATOM     42  C   UNL     1     111.591 124.144 136.921  0.00  0.00    +0.000 C 
ENDBRANCH  33  38
ENDBRANCH  26  33
ENDBRANCH   1  30
TORSDOF 6
ENDMDL
MODEL 10
REMARK VINA RESULT:      -9.5      1.583      4.672
REMARK  Name = 44259094
REMARK  6 active torsions:
REMARK  status: ('A' for Active; 'I' for Inactive)
REMARK    1  A    between atoms: O_1  and  C_17
REMARK    2  A    between atoms: O_1  and  C_22
REMARK    3  A    between atoms: O_4  and  C_21
REMARK    4  A    between atoms: O_4  and  C_28
REMARK    5  A    between atoms: C_20  and  C_26
REMARK    6  A    between atoms: C_29  and  C_32
REMARK                            x       y       z     vdW  Elec       q    Type
REMARK                         _______ _______ _______ _____ _____    ______ ____
ROOT
ATOM      1  O   UNL     1     112.464 127.773 137.855  0.00  0.00    +0.000 OA
ENDROOT
BRANCH   1   6
ATOM      2  O   UNL     1     112.533 126.323 136.225  0.00  0.00    +0.000 OA
ATOM      3  O   UNL     1     111.815 126.447 138.591  0.00  0.00    +0.000 OA
ATOM      4  O   UNL     1     111.393 125.067 138.566  0.00  0.00    +0.000 OA
ATOM      5  O   UNL     1     111.704 123.534 136.100  0.00  0.00    +0.000 OA
ATOM      6  C   UNL     1     112.379 127.069 137.434  0.00  0.00    +0.000 A 
ATOM      7  C   UNL     1     112.618 127.028 136.646  0.00  0.00    +0.000 A 
ATOM      8  C   UNL     1     112.054 126.406 137.802  0.00  0.00    +0.000 A 
ATOM      9  C   UNL     1     111.969 125.701 137.382  0.00  0.00    +0.000 A 
ATOM     10  C   UNL     1     112.208 125.659 136.594  0.00  0.00    +0.000 A 
ATOM     11  C   UNL     1     111.630 125.017 137.776  0.00  0.00    +0.000 A 
ATOM     12  C   UNL     1     112.125 124.932 136.145  0.00  0.00    +0.000 A 
ATOM     13  C   UNL     1     111.539 124.280 137.343  0.00  0.00    +0.000 A 
ATOM     14  C   UNL     1     111.788 124.238 136.523  0.00  0.00    +0.000 A 
BRANCH   7  17
ATOM     15  O   UNL     1     112.328 129.302 134.939  0.00  0.00    +0.000 OA
ATOM     16  O   UNL     1     113.916 129.680 135.173  0.00  0.00    +0.000 OA
ATOM     17  C   UNL     1     112.942 127.691 136.278  0.00  0.00    +0.000 A 
ATOM     18  C   UNL     1     112.473 128.165 135.792  0.00  0.00    +0.000 A 
ATOM     19  C   UNL     1     113.737 127.880 136.395  0.00  0.00    +0.000 A 
ATOM     20  C   UNL     1     112.797 128.827 135.424  0.00  0.00    +0.000 A 
ATOM     21  C   UNL     1     114.062 128.544 136.026  0.00  0.00    +0.000 A 
ATOM     22  C   UNL     1     113.591 129.017 135.541  0.00  0.00    +0.000 A 
ENDBRANCH   7  17
ENDBRANCH   1   6
BRANCH   1  30
ATOM     23  O   UNL     1     111.086 128.150 137.818  0.00  0.00    +0.000 OA
ATOM     24  O   UNL     1     111.286 129.102 140.094  0.00  0.00    +0.000 OA
ATOM     25  O   UNL     1     109.842 129.161 139.299  0.00  0.00    +0.000 OA
ATOM     26  C   UNL     1     111.875 128.438 138.975  0.00  0.00    +0.000 C 
ATOM     27  C   UNL     1     111.219 128.785 139.336  0.00  0.00    +0.000 C 
ATOM     28  C   UNL     1     110.497 128.815 138.938  0.00  0.00    +0.000 C 
ATOM     29  C   UNL     1     110.431 128.497 138.180  0.00  0.00    +0.000 C 
ATOM     30  C   UNL     1     111.809 128.120 138.216  0.00  0.00    +0.000 C 
BRANCH  29  32
ATOM     31  O   UNL     1     109.645 128.947 137.074  0.00  0.00    +0.000 OA
ATOM     32  C   UNL     1     109.709 128.526 137.782  0.00  0.00    +0.000 C 
ENDBRANCH  29  32
BRANCH  26  33
ATOM     33  O   UNL     1     112.597 128.408 139.372  0.00  0.00    +0.000 OA
BRANCH  33  38
ATOM     34  O   UNL     1     112.878 129.754 138.982  0.00  0.00    +0.000 OA
ATOM     35  O   UNL     1     113.917 128.421 140.362  0.00  0.00    +0.000 OA
ATOM     36  O   UNL     1     114.857 129.773 140.467  0.00  0.00    +0.000 OA
ATOM     37  O   UNL     1     114.477 131.112 139.581  0.00  0.00    +0.000 OA
ATOM     38  C   UNL     1     113.067 129.084 139.424  0.00  0.00    +0.000 C 
ATOM     39  C   UNL     1     113.728 129.091 139.920  0.00  0.00    +0.000 C 
ATOM     40  C   UNL     1     114.198 129.767 139.972  0.00  0.00    +0.000 C 
ATOM     41  C   UNL     1     114.007 130.436 139.529  0.00  0.00    +0.000 C 
ATOM     42  C   UNL     1     113.348 130.430 139.034  0.00  0.00    +0.000 C 
ENDBRANCH  33  38
ENDBRANCH  26  33
ENDBRANCH   1  30
TORSDOF 6
ENDMDL
