MODEL 1
REMARK VINA RESULT:      -8.7      0.000      0.000
REMARK  Name = 131834262
REMARK  3 active torsions:
REMARK  status: ('A' for Active; 'I' for Inactive)
REMARK    1  A    between atoms: S_1  and  C_19
REMARK    2  A    between atoms: O_5  and  C_23
REMARK    3  A    between atoms: C_10  and  C_14
REMARK                            x       y       z     vdW  Elec       q    Type
REMARK                         _______ _______ _______ _____ _____    ______ ____
ROOT
ATOM      1  O   UNL     1     105.069 124.304 147.368  0.00  0.00    +0.000 OA
ATOM      2  O   UNL     1     104.509 125.129 145.426  0.00  0.00    +0.000 OA
ATOM      3  O   UNL     1     107.286 125.824 146.310  0.00  0.00    +0.000 OA
ATOM      4  C   UNL     1     104.952 124.949 146.099  0.00  0.00    +0.000 C 
ATOM      5  C   UNL     1     104.625 124.483 146.696  0.00  0.00    +0.000 C 
ATOM      6  C   UNL     1     105.723 125.235 146.173  0.00  0.00    +0.000 C 
ATOM      7  C   UNL     1     106.166 125.055 146.846  0.00  0.00    +0.000 A 
ATOM      8  C   UNL     1     105.838 124.590 147.443  0.00  0.00    +0.000 A 
ATOM      9  C   UNL     1     106.967 125.360 146.912  0.00  0.00    +0.000 A 
ATOM     10  C   UNL     1     106.290 124.396 148.148  0.00  0.00    +0.000 A 
ATOM     11  C   UNL     1     107.093 124.690 148.232  0.00  0.00    +0.000 A 
ATOM     12  C   UNL     1     107.434 125.176 147.609  0.00  0.00    +0.000 A 
ENDROOT
BRANCH   5  14
ATOM     13  O   UNL     1     101.827 124.744 147.217  0.00  0.00    +0.000 OA
ATOM     14  C   UNL     1     103.855 124.198 146.621  0.00  0.00    +0.000 A 
ATOM     15  C   UNL     1     103.227 124.614 146.956  0.00  0.00    +0.000 A 
ATOM     16  C   UNL     1     103.713 123.496 146.211  0.00  0.00    +0.000 A 
ATOM     17  C   UNL     1     102.456 124.328 146.881  0.00  0.00    +0.000 A 
ATOM     18  C   UNL     1     102.943 123.211 146.136  0.00  0.00    +0.000 A 
ATOM     19  C   UNL     1     102.315 123.626 146.471  0.00  0.00    +0.000 A 
BRANCH  19  20
ATOM     20  O   UNL     1     101.544 123.341 146.396  0.00  0.00    +0.000 OA
ATOM     21  C   UNL     1     101.344 122.856 145.759  0.00  0.00    +0.000 C 
ENDBRANCH  19  20
ENDBRANCH   5  14
BRANCH  11  22
ATOM     22  S   UNL     1     107.534 124.509 148.905  0.00  0.00    +0.000 S 
ATOM     23  O   UNL     1     108.358 124.516 148.873  0.00  0.00    +0.000 OA
ATOM     24  O   UNL     1     107.150 124.322 149.611  0.00  0.00    +0.000 OA
ENDBRANCH  11  22
TORSDOF 3
ENDMDL
MODEL 2
REMARK VINA RESULT:      -8.7      6.550      7.461
REMARK  Name = 131834262
REMARK  3 active torsions:
REMARK  status: ('A' for Active; 'I' for Inactive)
REMARK    1  A    between atoms: S_1  and  C_19
REMARK    2  A    between atoms: O_5  and  C_23
REMARK    3  A    between atoms: C_10  and  C_14
REMARK                            x       y       z     vdW  Elec       q    Type
REMARK                         _______ _______ _______ _____ _____    ______ ____
ROOT
ATOM      1  O   UNL     1     104.792 124.807 139.965  0.00  0.00    +0.000 OA
ATOM      2  O   UNL     1     105.416 122.771 139.486  0.00  0.00    +0.000 OA
ATOM      3  O   UNL     1     107.041 124.088 141.630  0.00  0.00    +0.000 OA
ATOM      4  C   UNL     1     105.389 123.514 139.842  0.00  0.00    +0.000 C 
ATOM      5  C   UNL     1     104.819 124.063 139.608  0.00  0.00    +0.000 C 
ATOM      6  C   UNL     1     105.932 123.709 140.433  0.00  0.00    +0.000 C 
ATOM      7  C   UNL     1     105.904 124.452 140.789  0.00  0.00    +0.000 A 
ATOM      8  C   UNL     1     105.334 125.001 140.555  0.00  0.00    +0.000 A 
ATOM      9  C   UNL     1     106.475 124.643 141.403  0.00  0.00    +0.000 A 
ATOM     10  C   UNL     1     105.295 125.779 140.919  0.00  0.00    +0.000 A 
ATOM     11  C   UNL     1     105.858 125.987 141.534  0.00  0.00    +0.000 A 
ATOM     12  C   UNL     1     106.452 125.415 141.778  0.00  0.00    +0.000 A 
ENDROOT
BRANCH   5  14
ATOM     13  O   UNL     1     102.150 123.422 138.814  0.00  0.00    +0.000 OA
ATOM     14  C   UNL     1     104.277 123.869 139.018  0.00  0.00    +0.000 A 
ATOM     15  C   UNL     1     103.485 123.743 139.211  0.00  0.00    +0.000 A 
ATOM     16  C   UNL     1     104.526 123.800 138.235  0.00  0.00    +0.000 A 
ATOM     17  C   UNL     1     102.942 123.548 138.621  0.00  0.00    +0.000 A 
ATOM     18  C   UNL     1     103.984 123.605 137.645  0.00  0.00    +0.000 A 
ATOM     19  C   UNL     1     103.192 123.479 137.838  0.00  0.00    +0.000 A 
BRANCH  19  20
ATOM     20  O   UNL     1     102.649 123.284 137.247  0.00  0.00    +0.000 OA
ATOM     21  C   UNL     1     102.914 123.098 136.489  0.00  0.00    +0.000 C 
ENDBRANCH  19  20
ENDBRANCH   5  14
BRANCH  11  22
ATOM     22  S   UNL     1     105.828 126.732 141.889  0.00  0.00    +0.000 S 
ATOM     23  O   UNL     1     105.341 126.858 142.544  0.00  0.00    +0.000 OA
ATOM     24  O   UNL     1     106.285 127.350 141.590  0.00  0.00    +0.000 OA
ENDBRANCH  11  22
TORSDOF 3
ENDMDL
MODEL 3
REMARK VINA RESULT:      -8.3     12.453     13.135
REMARK  Name = 131834262
REMARK  3 active torsions:
REMARK  status: ('A' for Active; 'I' for Inactive)
REMARK    1  A    between atoms: S_1  and  C_19
REMARK    2  A    between atoms: O_5  and  C_23
REMARK    3  A    between atoms: C_10  and  C_14
REMARK                            x       y       z     vdW  Elec       q    Type
REMARK                         _______ _______ _______ _____ _____    ______ ____
ROOT
ATOM      1  O   UNL     1     111.862 126.293 136.210  0.00  0.00    +0.000 OA
ATOM      2  O   UNL     1     110.071 125.364 135.378  0.00  0.00    +0.000 OA
ATOM      3  O   UNL     1     112.129 123.420 136.356  0.00  0.00    +0.000 OA
ATOM      4  C   UNL     1     110.814 125.452 135.725  0.00  0.00    +0.000 C 
ATOM      5  C   UNL     1     111.119 126.206 135.863  0.00  0.00    +0.000 C 
ATOM      6  C   UNL     1     111.253 124.785 135.935  0.00  0.00    +0.000 C 
ATOM      7  C   UNL     1     111.996 124.873 136.283  0.00  0.00    +0.000 A 
ATOM      8  C   UNL     1     112.300 125.627 136.420  0.00  0.00    +0.000 A 
ATOM      9  C   UNL     1     112.442 124.169 136.497  0.00  0.00    +0.000 A 
ATOM     10  C   UNL     1     113.074 125.731 136.781  0.00  0.00    +0.000 A 
ATOM     11  C   UNL     1     113.535 125.040 137.002  0.00  0.00    +0.000 A 
ATOM     12  C   UNL     1     113.217 124.254 136.859  0.00  0.00    +0.000 A 
ENDROOT
BRANCH   5  14
ATOM     13  O   UNL     1     109.122 128.153 136.488  0.00  0.00    +0.000 OA
ATOM     14  C   UNL     1     110.681 126.872 135.653  0.00  0.00    +0.000 A 
ATOM     15  C   UNL     1     110.121 127.179 136.175  0.00  0.00    +0.000 A 
ATOM     16  C   UNL     1     110.802 127.232 134.920  0.00  0.00    +0.000 A 
ATOM     17  C   UNL     1     109.682 127.846 135.965  0.00  0.00    +0.000 A 
ATOM     18  C   UNL     1     110.364 127.898 134.710  0.00  0.00    +0.000 A 
ATOM     19  C   UNL     1     109.804 128.205 135.233  0.00  0.00    +0.000 A 
BRANCH  19  20
ATOM     20  O   UNL     1     109.365 128.872 135.023  0.00  0.00    +0.000 OA
ATOM     21  C   UNL     1     109.726 129.490 134.613  0.00  0.00    +0.000 C 
ENDBRANCH  19  20
ENDBRANCH   5  14
BRANCH  11  22
ATOM     22  S   UNL     1     114.277 125.131 137.349  0.00  0.00    +0.000 S 
ATOM     23  O   UNL     1     114.959 124.988 136.908  0.00  0.00    +0.000 OA
ATOM     24  O   UNL     1     114.338 125.364 138.138  0.00  0.00    +0.000 OA
ENDBRANCH  11  22
TORSDOF 3
ENDMDL
MODEL 4
REMARK VINA RESULT:      -8.1      1.702      4.781
REMARK  Name = 131834262
REMARK  3 active torsions:
REMARK  status: ('A' for Active; 'I' for Inactive)
REMARK    1  A    between atoms: S_1  and  C_19
REMARK    2  A    between atoms: O_5  and  C_23
REMARK    3  A    between atoms: C_10  and  C_14
REMARK                            x       y       z     vdW  Elec       q    Type
REMARK                         _______ _______ _______ _____ _____    ______ ____
ROOT
ATOM      1  O   UNL     1     104.128 124.469 147.061  0.00  0.00    +0.000 OA
ATOM      2  O   UNL     1     104.624 126.054 148.478  0.00  0.00    +0.000 OA
ATOM      3  O   UNL     1     101.689 125.528 148.192  0.00  0.00    +0.000 OA
ATOM      4  C   UNL     1     104.184 125.525 148.023  0.00  0.00    +0.000 C 
ATOM      5  C   UNL     1     104.568 124.999 147.516  0.00  0.00    +0.000 C 
ATOM      6  C   UNL     1     103.360 125.521 148.075  0.00  0.00    +0.000 C 
ATOM      7  C   UNL     1     102.921 124.992 147.620  0.00  0.00    +0.000 A 
ATOM      8  C   UNL     1     103.305 124.466 147.113  0.00  0.00    +0.000 A 
ATOM      9  C   UNL     1     102.063 124.999 147.683  0.00  0.00    +0.000 A 
ATOM     10  C   UNL     1     102.857 123.910 146.634  0.00  0.00    +0.000 A 
ATOM     11  C   UNL     1     102.000 123.902 146.683  0.00  0.00    +0.000 A 
ATOM     12  C   UNL     1     101.600 124.450 147.212  0.00  0.00    +0.000 A 
ENDROOT
BRANCH   5  14
ATOM     13  O   UNL     1     106.954 125.620 146.072  0.00  0.00    +0.000 OA
ATOM     14  C   UNL     1     105.391 125.002 147.465  0.00  0.00    +0.000 A 
ATOM     15  C   UNL     1     105.761 125.309 146.794  0.00  0.00    +0.000 A 
ATOM     16  C   UNL     1     105.845 124.699 148.083  0.00  0.00    +0.000 A 
ATOM     17  C   UNL     1     106.585 125.313 146.742  0.00  0.00    +0.000 A 
ATOM     18  C   UNL     1     106.668 124.702 148.031  0.00  0.00    +0.000 A 
ATOM     19  C   UNL     1     107.038 125.009 147.361  0.00  0.00    +0.000 A 
BRANCH  19  20
ATOM     20  O   UNL     1     107.862 125.013 147.309  0.00  0.00    +0.000 OA
ATOM     21  C   UNL     1     108.318 124.978 147.995  0.00  0.00    +0.000 C 
ENDBRANCH  19  20
ENDBRANCH   5  14
BRANCH  11  22
ATOM     22  S   UNL     1     101.563 123.371 146.227  0.00  0.00    +0.000 S 
ATOM     23  O   UNL     1     101.174 122.740 146.588  0.00  0.00    +0.000 OA
ATOM     24  O   UNL     1     101.514 123.473 145.410  0.00  0.00    +0.000 OA
ENDBRANCH  11  22
TORSDOF 3
ENDMDL
MODEL 5
REMARK VINA RESULT:      -8.0     12.497     13.966
REMARK  Name = 131834262
REMARK  3 active torsions:
REMARK  status: ('A' for Active; 'I' for Inactive)
REMARK    1  A    between atoms: S_1  and  C_19
REMARK    2  A    between atoms: O_5  and  C_23
REMARK    3  A    between atoms: C_10  and  C_14
REMARK                            x       y       z     vdW  Elec       q    Type
REMARK                         _______ _______ _______ _____ _____    ______ ____
ROOT
ATOM      1  O   UNL     1     112.627 126.843 136.508  0.00  0.00    +0.000 OA
ATOM      2  O   UNL     1     111.565 128.301 135.278  0.00  0.00    +0.000 OA
ATOM      3  O   UNL     1     110.376 125.552 135.239  0.00  0.00    +0.000 OA
ATOM      4  C   UNL     1     111.768 127.590 135.645  0.00  0.00    +0.000 C 
ATOM      5  C   UNL     1     112.426 127.555 136.142  0.00  0.00    +0.000 C 
ATOM      6  C   UNL     1     111.312 126.914 135.514  0.00  0.00    +0.000 C 
ATOM      7  C   UNL     1     111.514 126.204 135.881  0.00  0.00    +0.000 A 
ATOM      8  C   UNL     1     112.172 126.168 136.378  0.00  0.00    +0.000 A 
ATOM      9  C   UNL     1     111.031 125.507 135.737  0.00  0.00    +0.000 A 
ATOM     10  C   UNL     1     112.393 125.433 136.766  0.00  0.00    +0.000 A 
ATOM     11  C   UNL     1     111.922 124.727 136.634  0.00  0.00    +0.000 A 
ATOM     12  C   UNL     1     111.237 124.764 136.116  0.00  0.00    +0.000 A 
ENDROOT
BRANCH   5  14
ATOM     13  O   UNL     1     113.053 129.849 137.726  0.00  0.00    +0.000 OA
ATOM     14  C   UNL     1     112.881 128.229 136.272  0.00  0.00    +0.000 A 
ATOM     15  C   UNL     1     112.739 128.701 136.934  0.00  0.00    +0.000 A 
ATOM     16  C   UNL     1     113.478 128.434 135.741  0.00  0.00    +0.000 A 
ATOM     17  C   UNL     1     113.195 129.377 137.064  0.00  0.00    +0.000 A 
ATOM     18  C   UNL     1     113.933 129.109 135.871  0.00  0.00    +0.000 A 
ATOM     19  C   UNL     1     113.791 129.580 136.532  0.00  0.00    +0.000 A 
BRANCH  19  20
ATOM     20  O   UNL     1     114.247 130.257 136.663  0.00  0.00    +0.000 OA
ATOM     21  C   UNL     1     114.796 130.499 136.097  0.00  0.00    +0.000 C 
ENDBRANCH  19  20
ENDBRANCH   5  14
BRANCH  11  22
ATOM     22  S   UNL     1     112.126 124.017 137.002  0.00  0.00    +0.000 S 
ATOM     23  O   UNL     1     111.678 123.737 137.635  0.00  0.00    +0.000 OA
ATOM     24  O   UNL     1     112.779 123.588 136.736  0.00  0.00    +0.000 OA
ENDBRANCH  11  22
TORSDOF 3
ENDMDL
MODEL 6
REMARK VINA RESULT:      -7.9      7.355      8.418
REMARK  Name = 131834262
REMARK  3 active torsions:
REMARK  status: ('A' for Active; 'I' for Inactive)
REMARK    1  A    between atoms: S_1  and  C_19
REMARK    2  A    between atoms: O_5  and  C_23
REMARK    3  A    between atoms: C_10  and  C_14
REMARK                            x       y       z     vdW  Elec       q    Type
REMARK                         _______ _______ _______ _____ _____    ______ ____
ROOT
ATOM      1  O   UNL     1     103.475 130.214 142.146  0.00  0.00    +0.000 OA
ATOM      2  O   UNL     1     102.384 130.249 140.256  0.00  0.00    +0.000 OA
ATOM      3  O   UNL     1     104.066 127.805 140.666  0.00  0.00    +0.000 OA
ATOM      4  C   UNL     1     102.879 129.997 140.866  0.00  0.00    +0.000 C 
ATOM      5  C   UNL     1     102.980 130.467 141.536  0.00  0.00    +0.000 C 
ATOM      6  C   UNL     1     103.273 129.274 140.805  0.00  0.00    +0.000 C 
ATOM      7  C   UNL     1     103.768 129.023 141.415  0.00  0.00    +0.000 A 
ATOM      8  C   UNL     1     103.869 129.493 142.085  0.00  0.00    +0.000 A 
ATOM      9  C   UNL     1     104.173 128.267 141.339  0.00  0.00    +0.000 A 
ATOM     10  C   UNL     1     104.383 129.241 142.727  0.00  0.00    +0.000 A 
ATOM     11  C   UNL     1     104.795 128.490 142.670  0.00  0.00    +0.000 A 
ATOM     12  C   UNL     1     104.690 128.000 141.971  0.00  0.00    +0.000 A 
ENDROOT
BRANCH   5  14
ATOM     13  O   UNL     1     102.926 133.297 141.143  0.00  0.00    +0.000 OA
ATOM     14  C   UNL     1     102.586 131.189 141.597  0.00  0.00    +0.000 A 
ATOM     15  C   UNL     1     102.953 131.881 141.340  0.00  0.00    +0.000 A 
ATOM     16  C   UNL     1     101.825 131.219 141.914  0.00  0.00    +0.000 A 
ATOM     17  C   UNL     1     102.559 132.604 141.400  0.00  0.00    +0.000 A 
ATOM     18  C   UNL     1     101.431 131.940 141.974  0.00  0.00    +0.000 A 
ATOM     19  C   UNL     1     101.798 132.633 141.717  0.00  0.00    +0.000 A 
BRANCH  19  20
ATOM     20  O   UNL     1     101.404 133.356 141.778  0.00  0.00    +0.000 OA
ATOM     21  C   UNL     1     100.711 133.412 142.223  0.00  0.00    +0.000 C 
ENDBRANCH  19  20
ENDBRANCH   5  14
BRANCH  11  22
ATOM     22  S   UNL     1     105.290 128.240 143.281  0.00  0.00    +0.000 S 
ATOM     23  O   UNL     1     106.017 128.611 143.401  0.00  0.00    +0.000 OA
ATOM     24  O   UNL     1     105.058 127.619 143.772  0.00  0.00    +0.000 OA
ENDBRANCH  11  22
TORSDOF 3
ENDMDL
MODEL 7
REMARK VINA RESULT:      -7.9      9.335     10.546
REMARK  Name = 131834262
REMARK  3 active torsions:
REMARK  status: ('A' for Active; 'I' for Inactive)
REMARK    1  A    between atoms: S_1  and  C_19
REMARK    2  A    between atoms: O_5  and  C_23
REMARK    3  A    between atoms: C_10  and  C_14
REMARK                            x       y       z     vdW  Elec       q    Type
REMARK                         _______ _______ _______ _____ _____    ______ ____
ROOT
ATOM      1  O   UNL     1     102.774 132.414 141.143  0.00  0.00    +0.000 OA
ATOM      2  O   UNL     1     101.163 131.214 141.997  0.00  0.00    +0.000 OA
ATOM      3  O   UNL     1     100.710 134.171 142.142  0.00  0.00    +0.000 OA
ATOM      4  C   UNL     1     101.603 131.868 141.754  0.00  0.00    +0.000 C 
ATOM      5  C   UNL     1     102.334 131.760 141.386  0.00  0.00    +0.000 C 
ATOM      6  C   UNL     1     101.313 132.631 141.880  0.00  0.00    +0.000 C 
ATOM      7  C   UNL     1     101.754 133.284 141.637  0.00  0.00    +0.000 A 
ATOM      8  C   UNL     1     102.484 133.176 141.269  0.00  0.00    +0.000 A 
ATOM      9  C   UNL     1     101.441 134.073 141.774  0.00  0.00    +0.000 A 
ATOM     10  C   UNL     1     102.953 133.850 141.012  0.00  0.00    +0.000 A 
ATOM     11  C   UNL     1     102.656 134.646 141.140  0.00  0.00    +0.000 A 
ATOM     12  C   UNL     1     101.895 134.758 141.524  0.00  0.00    +0.000 A 
ENDROOT
BRANCH   5  14
ATOM     13  O   UNL     1     102.606 129.461 139.710  0.00  0.00    +0.000 OA
ATOM     14  C   UNL     1     102.623 130.998 141.260  0.00  0.00    +0.000 A 
ATOM     15  C   UNL     1     102.470 130.611 140.548  0.00  0.00    +0.000 A 
ATOM     16  C   UNL     1     103.067 130.623 141.846  0.00  0.00    +0.000 A 
ATOM     17  C   UNL     1     102.759 129.848 140.422  0.00  0.00    +0.000 A 
ATOM     18  C   UNL     1     103.356 129.861 141.721  0.00  0.00    +0.000 A 
ATOM     19  C   UNL     1     103.203 129.474 141.009  0.00  0.00    +0.000 A 
BRANCH  19  20
ATOM     20  O   UNL     1     103.492 128.711 140.883  0.00  0.00    +0.000 OA
ATOM     21  C   UNL     1     104.115 128.426 141.343  0.00  0.00    +0.000 C 
ENDBRANCH  19  20
ENDBRANCH   5  14
BRANCH  11  22
ATOM     22  S   UNL     1     103.099 135.298 140.896  0.00  0.00    +0.000 S 
ATOM     23  O   UNL     1     103.046 135.565 140.117  0.00  0.00    +0.000 OA
ATOM     24  O   UNL     1     103.594 135.683 141.432  0.00  0.00    +0.000 OA
ENDBRANCH  11  22
TORSDOF 3
ENDMDL
MODEL 8
REMARK VINA RESULT:      -7.9     12.132     13.592
REMARK  Name = 131834262
REMARK  3 active torsions:
REMARK  status: ('A' for Active; 'I' for Inactive)
REMARK    1  A    between atoms: S_1  and  C_19
REMARK    2  A    between atoms: O_5  and  C_23
REMARK    3  A    between atoms: C_10  and  C_14
REMARK                            x       y       z     vdW  Elec       q    Type
REMARK                         _______ _______ _______ _____ _____    ______ ____
ROOT
ATOM      1  O   UNL     1     112.606 127.039 136.288  0.00  0.00    +0.000 OA
ATOM      2  O   UNL     1     110.627 126.438 135.591  0.00  0.00    +0.000 OA
ATOM      3  O   UNL     1     111.514 129.129 134.618  0.00  0.00    +0.000 OA
ATOM      4  C   UNL     1     111.311 126.885 135.705  0.00  0.00    +0.000 C 
ATOM      5  C   UNL     1     111.922 126.592 136.174  0.00  0.00    +0.000 C 
ATOM      6  C   UNL     1     111.383 127.626 135.348  0.00  0.00    +0.000 C 
ATOM      7  C   UNL     1     112.067 128.073 135.463  0.00  0.00    +0.000 A 
ATOM      8  C   UNL     1     112.679 127.780 135.932  0.00  0.00    +0.000 A 
ATOM      9  C   UNL     1     112.130 128.844 135.086  0.00  0.00    +0.000 A 
ATOM     10  C   UNL     1     113.396 128.236 136.058  0.00  0.00    +0.000 A 
ATOM     11  C   UNL     1     113.477 129.008 135.690  0.00  0.00    +0.000 A 
ATOM     12  C   UNL     1     112.839 129.314 135.201  0.00  0.00    +0.000 A 
ENDROOT
BRANCH   5  14
ATOM     13  O   UNL     1     111.210 124.989 138.431  0.00  0.00    +0.000 OA
ATOM     14  C   UNL     1     111.850 125.851 136.530  0.00  0.00    +0.000 A 
ATOM     15  C   UNL     1     111.566 125.791 137.302  0.00  0.00    +0.000 A 
ATOM     16  C   UNL     1     112.061 125.171 136.114  0.00  0.00    +0.000 A 
ATOM     17  C   UNL     1     111.494 125.050 137.659  0.00  0.00    +0.000 A 
ATOM     18  C   UNL     1     111.988 124.430 136.470  0.00  0.00    +0.000 A 
ATOM     19  C   UNL     1     111.705 124.370 137.242  0.00  0.00    +0.000 A 
BRANCH  19  20
ATOM     20  O   UNL     1     111.632 123.629 137.598  0.00  0.00    +0.000 OA
ATOM     21  C   UNL     1     111.960 122.964 137.236  0.00  0.00    +0.000 C 
ENDBRANCH  19  20
ENDBRANCH   5  14
BRANCH  11  22
ATOM     22  S   UNL     1     114.162 129.454 135.806  0.00  0.00    +0.000 S 
ATOM     23  O   UNL     1     114.797 129.376 135.285  0.00  0.00    +0.000 OA
ATOM     24  O   UNL     1     114.212 129.976 136.442  0.00  0.00    +0.000 OA
ENDBRANCH  11  22
TORSDOF 3
ENDMDL
MODEL 9
REMARK VINA RESULT:      -7.8     12.625     13.774
REMARK  Name = 131834262
REMARK  3 active torsions:
REMARK  status: ('A' for Active; 'I' for Inactive)
REMARK    1  A    between atoms: S_1  and  C_19
REMARK    2  A    between atoms: O_5  and  C_23
REMARK    3  A    between atoms: C_10  and  C_14
REMARK                            x       y       z     vdW  Elec       q    Type
REMARK                         _______ _______ _______ _____ _____    ______ ____
ROOT
ATOM      1  O   UNL     1     112.318 126.671 136.479  0.00  0.00    +0.000 OA
ATOM      2  O   UNL     1     114.090 127.928 136.268  0.00  0.00    +0.000 OA
ATOM      3  O   UNL     1     114.680 125.018 136.659  0.00  0.00    +0.000 OA
ATOM      4  C   UNL     1     113.614 127.262 136.370  0.00  0.00    +0.000 C 
ATOM      5  C   UNL     1     112.793 127.338 136.377  0.00  0.00    +0.000 C 
ATOM      6  C   UNL     1     113.961 126.519 136.466  0.00  0.00    +0.000 C 
ATOM      7  C   UNL     1     113.485 125.853 136.568  0.00  0.00    +0.000 A 
ATOM      8  C   UNL     1     112.664 125.929 136.575  0.00  0.00    +0.000 A 
ATOM      9  C   UNL     1     113.858 125.084 136.667  0.00  0.00    +0.000 A 
ATOM     10  C   UNL     1     112.158 125.242 136.680  0.00  0.00    +0.000 A 
ATOM     11  C   UNL     1     112.512 124.466 136.780  0.00  0.00    +0.000 A 
ATOM     12  C   UNL     1     113.369 124.386 136.773  0.00  0.00    +0.000 A 
ENDROOT
BRANCH   5  14
ATOM     13  O   UNL     1     111.617 129.322 134.689  0.00  0.00    +0.000 OA
ATOM     14  C   UNL     1     112.447 128.080 136.281  0.00  0.00    +0.000 A 
ATOM     15  C   UNL     1     112.205 128.329 135.533  0.00  0.00    +0.000 A 
ATOM     16  C   UNL     1     112.343 128.575 136.934  0.00  0.00    +0.000 A 
ATOM     17  C   UNL     1     111.859 129.073 135.437  0.00  0.00    +0.000 A 
ATOM     18  C   UNL     1     111.997 129.317 136.838  0.00  0.00    +0.000 A 
ATOM     19  C   UNL     1     111.755 129.566 136.090  0.00  0.00    +0.000 A 
BRANCH  19  20
ATOM     20  O   UNL     1     111.409 130.310 135.994  0.00  0.00    +0.000 OA
ATOM     21  C   UNL     1     111.349 130.822 136.637  0.00  0.00    +0.000 C 
ENDBRANCH  19  20
ENDBRANCH   5  14
BRANCH  11  22
ATOM     22  S   UNL     1     112.035 123.801 136.882  0.00  0.00    +0.000 S 
ATOM     23  O   UNL     1     111.777 123.374 136.225  0.00  0.00    +0.000 OA
ATOM     24  O   UNL     1     111.815 123.564 137.641  0.00  0.00    +0.000 OA
ENDBRANCH  11  22
TORSDOF 3
ENDMDL
MODEL 10
REMARK VINA RESULT:      -7.8      9.744     11.211
REMARK  Name = 131834262
REMARK  3 active torsions:
REMARK  status: ('A' for Active; 'I' for Inactive)
REMARK    1  A    between atoms: S_1  and  C_19
REMARK    2  A    between atoms: O_5  and  C_23
REMARK    3  A    between atoms: C_10  and  C_14
REMARK                            x       y       z     vdW  Elec       q    Type
REMARK                         _______ _______ _______ _____ _____    ______ ____
ROOT
ATOM      1  O   UNL     1     112.393 126.323 138.895  0.00  0.00    +0.000 OA
ATOM      2  O   UNL     1     110.275 125.846 139.124  0.00  0.00    +0.000 OA
ATOM      3  O   UNL     1     111.565 126.953 141.590  0.00  0.00    +0.000 OA
ATOM      4  C   UNL     1     111.041 126.099 139.298  0.00  0.00    +0.000 C 
ATOM      5  C   UNL     1     111.627 126.069 138.719  0.00  0.00    +0.000 C 
ATOM      6  C   UNL     1     111.219 126.382 140.053  0.00  0.00    +0.000 C 
ATOM      7  C   UNL     1     111.985 126.635 140.227  0.00  0.00    +0.000 A 
ATOM      8  C   UNL     1     112.572 126.605 139.648  0.00  0.00    +0.000 A 
ATOM      9  C   UNL     1     112.158 126.927 141.018  0.00  0.00    +0.000 A 
ATOM     10  C   UNL     1     113.373 126.866 139.819  0.00  0.00    +0.000 A 
ATOM     11  C   UNL     1     113.565 127.161 140.602  0.00  0.00    +0.000 A 
ATOM     12  C   UNL     1     112.953 127.192 141.206  0.00  0.00    +0.000 A 
ENDROOT
BRANCH   5  14
ATOM     13  O   UNL     1     111.637 123.947 136.805  0.00  0.00    +0.000 OA
ATOM     14  C   UNL     1     111.449 125.787 137.966  0.00  0.00    +0.000 A 
ATOM     15  C   UNL     1     111.632 125.008 137.763  0.00  0.00    +0.000 A 
ATOM     16  C   UNL     1     111.086 126.282 137.414  0.00  0.00    +0.000 A 
ATOM     17  C   UNL     1     111.453 124.725 137.008  0.00  0.00    +0.000 A 
ATOM     18  C   UNL     1     110.908 125.999 136.660  0.00  0.00    +0.000 A 
ATOM     19  C   UNL     1     111.091 125.221 136.457  0.00  0.00    +0.000 A 
BRANCH  19  20
ATOM     20  O   UNL     1     110.912 124.938 135.703  0.00  0.00    +0.000 OA
ATOM     21  C   UNL     1     110.490 125.410 135.175  0.00  0.00    +0.000 C 
ENDBRANCH  19  20
ENDBRANCH   5  14
BRANCH  11  22
ATOM     22  S   UNL     1     114.331 127.414 140.774  0.00  0.00    +0.000 S 
ATOM     23  O   UNL     1     114.907 126.865 140.995  0.00  0.00    +0.000 OA
ATOM     24  O   UNL     1     114.522 128.215 140.726  0.00  0.00    +0.000 OA
ENDBRANCH  11  22
TORSDOF 3
ENDMDL
