MODEL 1
REMARK VINA RESULT:      -8.9      0.000      0.000
REMARK  Name = 44259775
REMARK  5 active torsions:
REMARK  status: ('A' for Active; 'I' for Inactive)
REMARK    1  A    between atoms: S_1  and  O_3
REMARK    2  A    between atoms: O_3  and  C_15
REMARK    3  A    between atoms: O_4  and  C_20
REMARK    4  A    between atoms: O_8  and  C_26
REMARK    5  A    between atoms: C_14  and  C_17
REMARK                            x       y       z     vdW  Elec       q    Type
REMARK                         _______ _______ _______ _____ _____    ______ ____
ROOT
ATOM      1  O   UNL     1     105.225 124.277 147.273  0.00  0.00    +0.000 OA
ATOM      2  O   UNL     1     107.508 125.708 146.229  0.00  0.00    +0.000 OA
ATOM      3  O   UNL     1     106.325 125.508 145.429  0.00  0.00    +0.000 OA
ATOM      4  O   UNL     1     108.331 125.481 147.688  0.00  0.00    +0.000 OA
ATOM      5  C   UNL     1     106.354 124.984 146.757  0.00  0.00    +0.000 A 
ATOM      6  C   UNL     1     105.988 124.574 147.372  0.00  0.00    +0.000 A 
ATOM      7  C   UNL     1     104.828 124.391 146.558  0.00  0.00    +0.000 A 
ATOM      8  C   UNL     1     105.194 124.801 145.943  0.00  0.00    +0.000 A 
ATOM      9  C   UNL     1     105.958 125.098 146.043  0.00  0.00    +0.000 A 
ATOM     10  C   UNL     1     107.149 125.298 146.849  0.00  0.00    +0.000 A 
ATOM     11  C   UNL     1     106.391 124.449 148.121  0.00  0.00    +0.000 A 
ATOM     12  C   UNL     1     107.186 124.756 148.231  0.00  0.00    +0.000 A 
ATOM     13  C   UNL     1     107.567 125.183 147.591  0.00  0.00    +0.000 A 
ENDROOT
BRANCH   7  14
ATOM     14  C   UNL     1     104.065 124.094 146.458  0.00  0.00    +0.000 A 
ATOM     15  C   UNL     1     103.952 123.355 146.109  0.00  0.00    +0.000 A 
ATOM     16  C   UNL     1     103.414 124.535 146.708  0.00  0.00    +0.000 A 
ATOM     17  C   UNL     1     103.189 123.058 146.009  0.00  0.00    +0.000 A 
ATOM     18  C   UNL     1     102.651 124.237 146.609  0.00  0.00    +0.000 A 
ATOM     19  C   UNL     1     102.538 123.499 146.259  0.00  0.00    +0.000 A 
BRANCH  19  20
ATOM     20  O   UNL     1     101.775 123.201 146.160  0.00  0.00    +0.000 OA
ATOM     21  C   UNL     1     101.154 123.712 145.980  0.00  0.00    +0.000 C 
ENDBRANCH  19  20
ENDBRANCH   7  14
BRANCH  12  22
ATOM     22  O   UNL     1     107.580 124.640 148.947  0.00  0.00    +0.000 OA
ATOM     23  C   UNL     1     107.162 124.390 149.612  0.00  0.00    +0.000 C 
ENDBRANCH  12  22
BRANCH   8  24
ATOM     24  O   UNL     1     104.798 124.915 145.229  0.00  0.00    +0.000 OA
BRANCH  24  25
ATOM     25  S   UNL     1     105.201 125.219 144.577  0.00  0.00    +0.000 S 
ATOM     26  O   UNL     1     105.605 125.524 143.925  0.00  0.00    +0.000 OA
ATOM     27  O   UNL     1     105.435 124.457 144.366  0.00  0.00    +0.000 OA
ATOM     28  O   UNL     1     104.968 125.982 144.789  0.00  0.00    +0.000 OA
ENDBRANCH  24  25
ENDBRANCH   8  24
TORSDOF 5
ENDMDL
MODEL 2
REMARK VINA RESULT:      -8.5      6.904      7.982
REMARK  Name = 44259775
REMARK  5 active torsions:
REMARK  status: ('A' for Active; 'I' for Inactive)
REMARK    1  A    between atoms: S_1  and  O_3
REMARK    2  A    between atoms: O_3  and  C_15
REMARK    3  A    between atoms: O_4  and  C_20
REMARK    4  A    between atoms: O_8  and  C_26
REMARK    5  A    between atoms: C_14  and  C_17
REMARK                            x       y       z     vdW  Elec       q    Type
REMARK                         _______ _______ _______ _____ _____    ______ ____
ROOT
ATOM      1  O   UNL     1     103.310 130.223 142.340  0.00  0.00    +0.000 OA
ATOM      2  O   UNL     1     104.233 127.882 140.921  0.00  0.00    +0.000 OA
ATOM      3  O   UNL     1     103.246 128.761 140.344  0.00  0.00    +0.000 OA
ATOM      4  O   UNL     1     105.262 127.495 142.205  0.00  0.00    +0.000 OA
ATOM      5  C   UNL     1     103.767 129.065 141.639  0.00  0.00    +0.000 A 
ATOM      6  C   UNL     1     103.789 129.552 142.304  0.00  0.00    +0.000 A 
ATOM      7  C   UNL     1     102.810 130.407 141.709  0.00  0.00    +0.000 A 
ATOM      8  C   UNL     1     102.788 129.919 141.044  0.00  0.00    +0.000 A 
ATOM      9  C   UNL     1     103.268 129.248 141.009  0.00  0.00    +0.000 A 
ATOM     10  C   UNL     1     104.262 128.363 141.590  0.00  0.00    +0.000 A 
ATOM     11  C   UNL     1     104.306 129.371 142.967  0.00  0.00    +0.000 A 
ATOM     12  C   UNL     1     104.807 128.674 142.935  0.00  0.00    +0.000 A 
ATOM     13  C   UNL     1     104.784 128.167 142.243  0.00  0.00    +0.000 A 
ENDROOT
BRANCH   7  14
ATOM     14  C   UNL     1     102.331 131.078 141.745  0.00  0.00    +0.000 A 
ATOM     15  C   UNL     1     102.637 131.814 141.530  0.00  0.00    +0.000 A 
ATOM     16  C   UNL     1     101.548 131.013 141.997  0.00  0.00    +0.000 A 
ATOM     17  C   UNL     1     102.158 132.485 141.566  0.00  0.00    +0.000 A 
ATOM     18  C   UNL     1     101.070 131.685 142.032  0.00  0.00    +0.000 A 
ATOM     19  C   UNL     1     101.375 132.420 141.817  0.00  0.00    +0.000 A 
BRANCH  19  20
ATOM     20  O   UNL     1     100.897 133.092 141.853  0.00  0.00    +0.000 OA
ATOM     21  C   UNL     1     100.926 133.583 142.515  0.00  0.00    +0.000 C 
ENDBRANCH  19  20
ENDBRANCH   7  14
BRANCH  12  22
ATOM     22  O   UNL     1     105.306 128.494 143.567  0.00  0.00    +0.000 OA
ATOM     23  C   UNL     1     105.189 128.851 144.301  0.00  0.00    +0.000 C 
ENDBRANCH  12  22
BRANCH   8  24
ATOM     24  O   UNL     1     102.288 130.103 140.415  0.00  0.00    +0.000 OA
BRANCH  24  25
ATOM     25  S   UNL     1     102.391 129.732 139.685  0.00  0.00    +0.000 S 
ATOM     26  O   UNL     1     102.494 129.361 138.955  0.00  0.00    +0.000 OA
ATOM     27  O   UNL     1     102.969 130.286 139.485  0.00  0.00    +0.000 OA
ATOM     28  O   UNL     1     101.813 129.178 139.885  0.00  0.00    +0.000 OA
ENDBRANCH  24  25
ENDBRANCH   8  24
TORSDOF 5
ENDMDL
MODEL 3
REMARK VINA RESULT:      -8.3      1.270      4.283
REMARK  Name = 44259775
REMARK  5 active torsions:
REMARK  status: ('A' for Active; 'I' for Inactive)
REMARK    1  A    between atoms: S_1  and  O_3
REMARK    2  A    between atoms: O_3  and  C_15
REMARK    3  A    between atoms: O_4  and  C_20
REMARK    4  A    between atoms: O_8  and  C_26
REMARK    5  A    between atoms: C_14  and  C_17
REMARK                            x       y       z     vdW  Elec       q    Type
REMARK                         _______ _______ _______ _____ _____    ______ ____
ROOT
ATOM      1  O   UNL     1     103.909 124.699 147.921  0.00  0.00    +0.000 OA
ATOM      2  O   UNL     1     102.122 123.807 145.833  0.00  0.00    +0.000 OA
ATOM      3  O   UNL     1     103.538 123.941 145.595  0.00  0.00    +0.000 OA
ATOM      4  O   UNL     1     100.808 123.935 146.889  0.00  0.00    +0.000 OA
ATOM      5  C   UNL     1     103.025 124.258 146.889  0.00  0.00    +0.000 A 
ATOM      6  C   UNL     1     103.148 124.510 147.665  0.00  0.00    +0.000 A 
ATOM      7  C   UNL     1     104.547 124.634 147.401  0.00  0.00    +0.000 A 
ATOM      8  C   UNL     1     104.424 124.382 146.626  0.00  0.00    +0.000 A 
ATOM      9  C   UNL     1     103.662 124.194 146.370  0.00  0.00    +0.000 A 
ATOM     10  C   UNL     1     102.236 124.059 146.611  0.00  0.00    +0.000 A 
ATOM     11  C   UNL     1     102.492 124.581 148.216  0.00  0.00    +0.000 A 
ATOM     12  C   UNL     1     101.697 124.387 147.955  0.00  0.00    +0.000 A 
ATOM     13  C   UNL     1     101.568 124.124 147.147  0.00  0.00    +0.000 A 
ENDROOT
BRANCH   7  14
ATOM     14  C   UNL     1     105.308 124.823 147.658  0.00  0.00    +0.000 A 
ATOM     15  C   UNL     1     105.788 124.238 147.990  0.00  0.00    +0.000 A 
ATOM     16  C   UNL     1     105.590 125.594 147.583  0.00  0.00    +0.000 A 
ATOM     17  C   UNL     1     106.549 124.427 148.247  0.00  0.00    +0.000 A 
ATOM     18  C   UNL     1     106.352 125.781 147.840  0.00  0.00    +0.000 A 
ATOM     19  C   UNL     1     106.831 125.198 148.171  0.00  0.00    +0.000 A 
BRANCH  19  20
ATOM     20  O   UNL     1     107.592 125.385 148.429  0.00  0.00    +0.000 OA
ATOM     21  C   UNL     1     108.243 124.989 148.112  0.00  0.00    +0.000 C 
ENDBRANCH  19  20
ENDBRANCH   7  14
BRANCH  12  22
ATOM     22  O   UNL     1     101.061 124.452 148.477  0.00  0.00    +0.000 OA
ATOM     23  C   UNL     1     101.122 124.934 149.143  0.00  0.00    +0.000 C 
ENDBRANCH  12  22
BRANCH   8  24
ATOM     24  O   UNL     1     105.061 124.318 146.107  0.00  0.00    +0.000 OA
BRANCH  24  25
ATOM     25  S   UNL     1     104.928 124.274 145.294  0.00  0.00    +0.000 S 
ATOM     26  O   UNL     1     104.794 124.230 144.481  0.00  0.00    +0.000 OA
ATOM     27  O   UNL     1     104.835 125.093 145.265  0.00  0.00    +0.000 OA
ATOM     28  O   UNL     1     105.020 123.454 145.323  0.00  0.00    +0.000 OA
ENDBRANCH  24  25
ENDBRANCH   8  24
TORSDOF 5
ENDMDL
MODEL 4
REMARK VINA RESULT:      -8.1      8.918     10.842
REMARK  Name = 44259775
REMARK  5 active torsions:
REMARK  status: ('A' for Active; 'I' for Inactive)
REMARK    1  A    between atoms: S_1  and  O_3
REMARK    2  A    between atoms: O_3  and  C_15
REMARK    3  A    between atoms: O_4  and  C_20
REMARK    4  A    between atoms: O_8  and  C_26
REMARK    5  A    between atoms: C_14  and  C_17
REMARK                            x       y       z     vdW  Elec       q    Type
REMARK                         _______ _______ _______ _____ _____    ______ ____
ROOT
ATOM      1  O   UNL     1     111.520 131.811 145.262  0.00  0.00    +0.000 OA
ATOM      2  O   UNL     1     111.900 132.484 142.477  0.00  0.00    +0.000 OA
ATOM      3  O   UNL     1     111.750 133.512 143.478  0.00  0.00    +0.000 OA
ATOM      4  O   UNL     1     111.973 130.842 142.080  0.00  0.00    +0.000 OA
ATOM      5  C   UNL     1     111.708 132.143 143.884  0.00  0.00    +0.000 A 
ATOM      6  C   UNL     1     111.632 131.576 144.479  0.00  0.00    +0.000 A 
ATOM      7  C   UNL     1     111.486 132.615 145.450  0.00  0.00    +0.000 A 
ATOM      8  C   UNL     1     111.562 133.181 144.855  0.00  0.00    +0.000 A 
ATOM      9  C   UNL     1     111.674 132.945 144.072  0.00  0.00    +0.000 A 
ATOM     10  C   UNL     1     111.825 131.910 143.065  0.00  0.00    +0.000 A 
ATOM     11  C   UNL     1     111.666 130.737 144.295  0.00  0.00    +0.000 A 
ATOM     12  C   UNL     1     111.782 130.485 143.482  0.00  0.00    +0.000 A 
ATOM     13  C   UNL     1     111.862 131.076 142.863  0.00  0.00    +0.000 A 
ENDROOT
BRANCH   7  14
ATOM     14  C   UNL     1     111.374 132.850 146.232  0.00  0.00    +0.000 A 
ATOM     15  C   UNL     1     110.619 133.052 146.499  0.00  0.00    +0.000 A 
ATOM     16  C   UNL     1     112.017 132.884 146.749  0.00  0.00    +0.000 A 
ATOM     17  C   UNL     1     110.508 133.287 147.281  0.00  0.00    +0.000 A 
ATOM     18  C   UNL     1     111.904 133.119 147.532  0.00  0.00    +0.000 A 
ATOM     19  C   UNL     1     111.150 133.321 147.798  0.00  0.00    +0.000 A 
BRANCH  19  20
ATOM     20  O   UNL     1     111.038 133.556 148.581  0.00  0.00    +0.000 OA
ATOM     21  C   UNL     1     111.602 133.368 149.153  0.00  0.00    +0.000 C 
ENDBRANCH  19  20
ENDBRANCH   7  14
BRANCH  12  22
ATOM     22  O   UNL     1     111.816 129.682 143.298  0.00  0.00    +0.000 OA
ATOM     23  C   UNL     1     111.639 129.118 143.873  0.00  0.00    +0.000 C 
ENDBRANCH  12  22
BRANCH   8  24
ATOM     24  O   UNL     1     111.528 133.983 145.043  0.00  0.00    +0.000 OA
BRANCH  24  25
ATOM     25  S   UNL     1     111.782 134.546 144.496  0.00  0.00    +0.000 S 
ATOM     26  O   UNL     1     112.036 135.109 143.950  0.00  0.00    +0.000 OA
ATOM     27  O   UNL     1     112.565 134.404 144.714  0.00  0.00    +0.000 OA
ATOM     28  O   UNL     1     110.999 134.689 144.279  0.00  0.00    +0.000 OA
ENDBRANCH  24  25
ENDBRANCH   8  24
TORSDOF 5
ENDMDL
MODEL 5
REMARK VINA RESULT:      -7.9     12.339     14.083
REMARK  Name = 44259775
REMARK  5 active torsions:
REMARK  status: ('A' for Active; 'I' for Inactive)
REMARK    1  A    between atoms: S_1  and  O_3
REMARK    2  A    between atoms: O_3  and  C_15
REMARK    3  A    between atoms: O_4  and  C_20
REMARK    4  A    between atoms: O_8  and  C_26
REMARK    5  A    between atoms: C_14  and  C_17
REMARK                            x       y       z     vdW  Elec       q    Type
REMARK                         _______ _______ _______ _____ _____    ______ ____
ROOT
ATOM      1  O   UNL     1     113.929 127.652 136.319  0.00  0.00    +0.000 OA
ATOM      2  O   UNL     1     111.334 126.384 136.400  0.00  0.00    +0.000 OA
ATOM      3  O   UNL     1     111.483 127.749 135.957  0.00  0.00    +0.000 OA
ATOM      4  O   UNL     1     112.036 124.959 136.977  0.00  0.00    +0.000 OA
ATOM      5  C   UNL     1     112.646 127.024 136.359  0.00  0.00    +0.000 A 
ATOM      6  C   UNL     1     113.461 126.992 136.480  0.00  0.00    +0.000 A 
ATOM      7  C   UNL     1     113.581 128.345 136.037  0.00  0.00    +0.000 A 
ATOM      8  C   UNL     1     112.765 128.378 135.917  0.00  0.00    +0.000 A 
ATOM      9  C   UNL     1     112.298 127.717 136.078  0.00  0.00    +0.000 A 
ATOM     10  C   UNL     1     112.149 126.343 136.524  0.00  0.00    +0.000 A 
ATOM     11  C   UNL     1     113.836 126.276 136.774  0.00  0.00    +0.000 A 
ATOM     12  C   UNL     1     113.354 125.585 136.943  0.00  0.00    +0.000 A 
ATOM     13  C   UNL     1     112.505 125.618 136.817  0.00  0.00    +0.000 A 
ENDROOT
BRANCH   7  14
ATOM     14  C   UNL     1     114.048 129.005 135.877  0.00  0.00    +0.000 A 
ATOM     15  C   UNL     1     114.448 129.062 135.156  0.00  0.00    +0.000 A 
ATOM     16  C   UNL     1     114.117 129.609 136.435  0.00  0.00    +0.000 A 
ATOM     17  C   UNL     1     114.915 129.722 134.995  0.00  0.00    +0.000 A 
ATOM     18  C   UNL     1     114.586 130.269 136.273  0.00  0.00    +0.000 A 
ATOM     19  C   UNL     1     114.984 130.325 135.554  0.00  0.00    +0.000 A 
BRANCH  19  20
ATOM     20  O   UNL     1     115.453 130.985 135.391  0.00  0.00    +0.000 OA
ATOM     21  C   UNL     1     115.659 131.162 134.613  0.00  0.00    +0.000 C 
ENDBRANCH  19  20
ENDBRANCH   7  14
BRANCH  12  22
ATOM     22  O   UNL     1     113.706 124.893 137.225  0.00  0.00    +0.000 OA
ATOM     23  C   UNL     1     114.527 124.826 137.243  0.00  0.00    +0.000 C 
ENDBRANCH  12  22
BRANCH   8  24
ATOM     24  O   UNL     1     112.417 129.070 135.635  0.00  0.00    +0.000 OA
BRANCH  24  25
ATOM     25  S   UNL     1     111.656 129.050 135.318  0.00  0.00    +0.000 S 
ATOM     26  O   UNL     1     110.895 129.029 135.001  0.00  0.00    +0.000 OA
ATOM     27  O   UNL     1     111.957 128.743 134.614  0.00  0.00    +0.000 OA
ATOM     28  O   UNL     1     111.355 129.356 136.022  0.00  0.00    +0.000 OA
ENDBRANCH  24  25
ENDBRANCH   8  24
TORSDOF 5
ENDMDL
MODEL 6
REMARK VINA RESULT:      -7.9     10.287     11.600
REMARK  Name = 44259775
REMARK  5 active torsions:
REMARK  status: ('A' for Active; 'I' for Inactive)
REMARK    1  A    between atoms: S_1  and  O_3
REMARK    2  A    between atoms: O_3  and  C_15
REMARK    3  A    between atoms: O_4  and  C_20
REMARK    4  A    between atoms: O_8  and  C_26
REMARK    5  A    between atoms: C_14  and  C_17
REMARK                            x       y       z     vdW  Elec       q    Type
REMARK                         _______ _______ _______ _____ _____    ______ ____
ROOT
ATOM      1  O   UNL     1     111.979 126.402 138.267  0.00  0.00    +0.000 OA
ATOM      2  O   UNL     1     114.522 126.327 139.637  0.00  0.00    +0.000 OA
ATOM      3  O   UNL     1     114.380 125.803 138.301  0.00  0.00    +0.000 OA
ATOM      4  O   UNL     1     113.828 127.070 140.987  0.00  0.00    +0.000 OA
ATOM      5  C   UNL     1     113.236 126.365 138.945  0.00  0.00    +0.000 A 
ATOM      6  C   UNL     1     112.436 126.565 138.934  0.00  0.00    +0.000 A 
ATOM      7  C   UNL     1     112.324 126.038 137.610  0.00  0.00    +0.000 A 
ATOM      8  C   UNL     1     113.124 125.839 137.622  0.00  0.00    +0.000 A 
ATOM      9  C   UNL     1     113.580 126.003 138.290  0.00  0.00    +0.000 A 
ATOM     10  C   UNL     1     113.722 126.530 139.635  0.00  0.00    +0.000 A 
ATOM     11  C   UNL     1     112.066 126.943 139.611  0.00  0.00    +0.000 A 
ATOM     12  C   UNL     1     112.536 127.116 140.309  0.00  0.00    +0.000 A 
ATOM     13  C   UNL     1     113.369 126.908 140.321  0.00  0.00    +0.000 A 
ENDROOT
BRANCH   7  14
ATOM     14  C   UNL     1     111.867 125.875 136.943  0.00  0.00    +0.000 A 
ATOM     15  C   UNL     1     111.830 126.422 136.325  0.00  0.00    +0.000 A 
ATOM     16  C   UNL     1     111.447 125.167 136.893  0.00  0.00    +0.000 A 
ATOM     17  C   UNL     1     111.374 126.258 135.658  0.00  0.00    +0.000 A 
ATOM     18  C   UNL     1     110.990 125.005 136.225  0.00  0.00    +0.000 A 
ATOM     19  C   UNL     1     110.954 125.550 135.608  0.00  0.00    +0.000 A 
BRANCH  19  20
ATOM     20  O   UNL     1     110.497 125.388 134.940  0.00  0.00    +0.000 OA
ATOM     21  C   UNL     1     109.788 125.791 134.818  0.00  0.00    +0.000 C 
ENDBRANCH  19  20
ENDBRANCH   7  14
BRANCH  12  22
ATOM     22  O   UNL     1     112.188 127.479 140.964  0.00  0.00    +0.000 OA
ATOM     23  C   UNL     1     111.391 127.687 140.946  0.00  0.00    +0.000 C 
ENDBRANCH  12  22
BRANCH   8  24
ATOM     24  O   UNL     1     113.468 125.476 136.966  0.00  0.00    +0.000 OA
BRANCH  24  25
ATOM     25  S   UNL     1     114.211 125.124 137.032  0.00  0.00    +0.000 S 
ATOM     26  O   UNL     1     114.954 124.771 137.098  0.00  0.00    +0.000 OA
ATOM     27  O   UNL     1     114.558 125.794 136.700  0.00  0.00    +0.000 OA
ATOM     28  O   UNL     1     113.863 124.453 137.364  0.00  0.00    +0.000 OA
ENDBRANCH  24  25
ENDBRANCH   8  24
TORSDOF 5
ENDMDL
MODEL 7
REMARK VINA RESULT:      -7.9     12.102     12.755
REMARK  Name = 44259775
REMARK  5 active torsions:
REMARK  status: ('A' for Active; 'I' for Inactive)
REMARK    1  A    between atoms: S_1  and  O_3
REMARK    2  A    between atoms: O_3  and  C_15
REMARK    3  A    between atoms: O_4  and  C_20
REMARK    4  A    between atoms: O_8  and  C_26
REMARK    5  A    between atoms: C_14  and  C_17
REMARK                            x       y       z     vdW  Elec       q    Type
REMARK                         _______ _______ _______ _____ _____    ______ ____
ROOT
ATOM      1  O   UNL     1     112.564 126.720 136.495  0.00  0.00    +0.000 OA
ATOM      2  O   UNL     1     111.583 124.013 136.250  0.00  0.00    +0.000 OA
ATOM      3  O   UNL     1     110.766 125.139 135.868  0.00  0.00    +0.000 OA
ATOM      4  O   UNL     1     113.043 123.418 136.858  0.00  0.00    +0.000 OA
ATOM      5  C   UNL     1     112.080 125.381 136.374  0.00  0.00    +0.000 A 
ATOM      6  C   UNL     1     112.679 125.908 136.583  0.00  0.00    +0.000 A 
ATOM      7  C   UNL     1     111.848 127.005 136.197  0.00  0.00    +0.000 A 
ATOM      8  C   UNL     1     111.249 126.478 135.988  0.00  0.00    +0.000 A 
ATOM      9  C   UNL     1     111.366 125.666 136.077  0.00  0.00    +0.000 A 
ATOM     10  C   UNL     1     112.188 124.533 136.462  0.00  0.00    +0.000 A 
ATOM     11  C   UNL     1     113.428 125.624 136.894  0.00  0.00    +0.000 A 
ATOM     12  C   UNL     1     113.554 124.779 136.989  0.00  0.00    +0.000 A 
ATOM     13  C   UNL     1     112.930 124.230 136.771  0.00  0.00    +0.000 A 
ENDROOT
BRANCH   7  14
ATOM     14  C   UNL     1     111.733 127.817 136.109  0.00  0.00    +0.000 A 
ATOM     15  C   UNL     1     111.371 128.250 136.712  0.00  0.00    +0.000 A 
ATOM     16  C   UNL     1     111.980 128.197 135.420  0.00  0.00    +0.000 A 
ATOM     17  C   UNL     1     111.256 129.062 136.624  0.00  0.00    +0.000 A 
ATOM     18  C   UNL     1     111.864 129.010 135.333  0.00  0.00    +0.000 A 
ATOM     19  C   UNL     1     111.503 129.442 135.934  0.00  0.00    +0.000 A 
BRANCH  19  20
ATOM     20  O   UNL     1     111.387 130.254 135.847  0.00  0.00    +0.000 OA
ATOM     21  C   UNL     1     110.637 130.578 135.963  0.00  0.00    +0.000 C 
ENDBRANCH  19  20
ENDBRANCH   7  14
BRANCH  12  22
ATOM     22  O   UNL     1     114.271 124.498 137.287  0.00  0.00    +0.000 OA
ATOM     23  C   UNL     1     114.940 124.978 137.273  0.00  0.00    +0.000 C 
ENDBRANCH  12  22
BRANCH   8  24
ATOM     24  O   UNL     1     110.535 126.763 135.691  0.00  0.00    +0.000 OA
BRANCH  24  25
ATOM     25  S   UNL     1     110.021 126.254 135.295  0.00  0.00    +0.000 S 
ATOM     26  O   UNL     1     109.506 125.745 134.899  0.00  0.00    +0.000 OA
ATOM     27  O   UNL     1     109.563 126.184 135.978  0.00  0.00    +0.000 OA
ATOM     28  O   UNL     1     110.478 126.323 134.612  0.00  0.00    +0.000 OA
ENDBRANCH  24  25
ENDBRANCH   8  24
TORSDOF 5
ENDMDL
MODEL 8
REMARK VINA RESULT:      -7.8      1.608      4.033
REMARK  Name = 44259775
REMARK  5 active torsions:
REMARK  status: ('A' for Active; 'I' for Inactive)
REMARK    1  A    between atoms: S_1  and  O_3
REMARK    2  A    between atoms: O_3  and  C_15
REMARK    3  A    between atoms: O_4  and  C_20
REMARK    4  A    between atoms: O_8  and  C_26
REMARK    5  A    between atoms: C_14  and  C_17
REMARK                            x       y       z     vdW  Elec       q    Type
REMARK                         _______ _______ _______ _____ _____    ______ ____
ROOT
ATOM      1  O   UNL     1     104.443 125.451 146.924  0.00  0.00    +0.000 OA
ATOM      2  O   UNL     1     103.785 123.029 145.493  0.00  0.00    +0.000 OA
ATOM      3  O   UNL     1     104.893 123.858 145.084  0.00  0.00    +0.000 OA
ATOM      4  O   UNL     1     102.500 122.739 146.551  0.00  0.00    +0.000 OA
ATOM      5  C   UNL     1     104.117 124.253 146.217  0.00  0.00    +0.000 A 
ATOM      6  C   UNL     1     103.967 124.784 146.830  0.00  0.00    +0.000 A 
ATOM      7  C   UNL     1     105.069 125.587 146.404  0.00  0.00    +0.000 A 
ATOM      8  C   UNL     1     105.219 125.056 145.791  0.00  0.00    +0.000 A 
ATOM      9  C   UNL     1     104.743 124.389 145.698  0.00  0.00    +0.000 A 
ATOM     10  C   UNL     1     103.628 123.554 146.109  0.00  0.00    +0.000 A 
ATOM     11  C   UNL     1     103.317 124.653 147.378  0.00  0.00    +0.000 A 
ATOM     12  C   UNL     1     102.818 123.960 147.285  0.00  0.00    +0.000 A 
ATOM     13  C   UNL     1     102.974 123.407 146.647  0.00  0.00    +0.000 A 
ENDROOT
BRANCH   7  14
ATOM     14  C   UNL     1     105.545 126.254 146.498  0.00  0.00    +0.000 A 
ATOM     15  C   UNL     1     105.311 126.977 146.174  0.00  0.00    +0.000 A 
ATOM     16  C   UNL     1     106.255 126.200 146.915  0.00  0.00    +0.000 A 
ATOM     17  C   UNL     1     105.787 127.644 146.268  0.00  0.00    +0.000 A 
ATOM     18  C   UNL     1     106.730 126.868 147.009  0.00  0.00    +0.000 A 
ATOM     19  C   UNL     1     106.496 127.590 146.685  0.00  0.00    +0.000 A 
BRANCH  19  20
ATOM     20  O   UNL     1     106.971 128.258 146.779  0.00  0.00    +0.000 OA
ATOM     21  C   UNL     1     107.464 128.502 146.164  0.00  0.00    +0.000 C 
ENDBRANCH  19  20
ENDBRANCH   7  14
BRANCH  12  22
ATOM     22  O   UNL     1     102.192 123.827 147.807  0.00  0.00    +0.000 OA
ATOM     23  C   UNL     1     101.864 124.456 148.226  0.00  0.00    +0.000 C 
ENDBRANCH  12  22
BRANCH   8  24
ATOM     24  O   UNL     1     105.845 125.192 145.272  0.00  0.00    +0.000 OA
BRANCH  24  25
ATOM     25  S   UNL     1     105.844 124.843 144.524  0.00  0.00    +0.000 S 
ATOM     26  O   UNL     1     105.843 124.493 143.777  0.00  0.00    +0.000 OA
ATOM     27  O   UNL     1     106.399 124.289 144.782  0.00  0.00    +0.000 OA
ATOM     28  O   UNL     1     105.290 125.396 144.266  0.00  0.00    +0.000 OA
ENDBRANCH  24  25
ENDBRANCH   8  24
TORSDOF 5
ENDMDL
MODEL 9
REMARK VINA RESULT:      -7.8      9.877     11.584
REMARK  Name = 44259775
REMARK  5 active torsions:
REMARK  status: ('A' for Active; 'I' for Inactive)
REMARK    1  A    between atoms: S_1  and  O_3
REMARK    2  A    between atoms: O_3  and  C_15
REMARK    3  A    between atoms: O_4  and  C_20
REMARK    4  A    between atoms: O_8  and  C_26
REMARK    5  A    between atoms: C_14  and  C_17
REMARK                            x       y       z     vdW  Elec       q    Type
REMARK                         _______ _______ _______ _____ _____    ______ ____
ROOT
ATOM      1  O   UNL     1     111.865 125.781 138.321  0.00  0.00    +0.000 OA
ATOM      2  O   UNL     1     109.092 126.351 137.742  0.00  0.00    +0.000 OA
ATOM      3  O   UNL     1     110.028 126.055 136.685  0.00  0.00    +0.000 OA
ATOM      4  O   UNL     1     108.778 126.556 139.390  0.00  0.00    +0.000 OA
ATOM      5  C   UNL     1     110.493 126.063 138.036  0.00  0.00    +0.000 A 
ATOM      6  C   UNL     1     111.105 125.971 138.581  0.00  0.00    +0.000 A 
ATOM      7  C   UNL     1     112.012 125.682 137.515  0.00  0.00    +0.000 A 
ATOM      8  C   UNL     1     111.400 125.773 136.969  0.00  0.00    +0.000 A 
ATOM      9  C   UNL     1     110.640 125.964 137.231  0.00  0.00    +0.000 A 
ATOM     10  C   UNL     1     109.698 126.261 138.295  0.00  0.00    +0.000 A 
ATOM     11  C   UNL     1     110.965 126.072 139.423  0.00  0.00    +0.000 A 
ATOM     12  C   UNL     1     110.176 126.270 139.700  0.00  0.00    +0.000 A 
ATOM     13  C   UNL     1     109.539 126.365 139.132  0.00  0.00    +0.000 A 
ENDROOT
BRANCH   7  14
ATOM     14  C   UNL     1     112.771 125.491 137.255  0.00  0.00    +0.000 A 
ATOM     15  C   UNL     1     113.295 126.092 137.037  0.00  0.00    +0.000 A 
ATOM     16  C   UNL     1     113.008 124.702 137.213  0.00  0.00    +0.000 A 
ATOM     17  C   UNL     1     114.054 125.901 136.778  0.00  0.00    +0.000 A 
ATOM     18  C   UNL     1     113.768 124.513 136.953  0.00  0.00    +0.000 A 
ATOM     19  C   UNL     1     114.291 125.112 136.736  0.00  0.00    +0.000 A 
BRANCH  19  20
ATOM     20  O   UNL     1     115.051 124.923 136.476  0.00  0.00    +0.000 OA
ATOM     21  C   UNL     1     115.364 125.297 135.810  0.00  0.00    +0.000 C 
ENDBRANCH  19  20
ENDBRANCH   7  14
BRANCH  12  22
ATOM     22  O   UNL     1     110.032 126.368 140.507  0.00  0.00    +0.000 OA
ATOM     23  C   UNL     1     110.661 126.483 141.027  0.00  0.00    +0.000 C 
ENDBRANCH  12  22
BRANCH   8  24
ATOM     24  O   UNL     1     111.547 125.675 136.164  0.00  0.00    +0.000 OA
BRANCH  24  25
ATOM     25  S   UNL     1     110.918 125.574 135.640  0.00  0.00    +0.000 S 
ATOM     26  O   UNL     1     110.290 125.473 135.115  0.00  0.00    +0.000 OA
ATOM     27  O   UNL     1     110.875 124.776 135.844  0.00  0.00    +0.000 OA
ATOM     28  O   UNL     1     110.961 126.372 135.435  0.00  0.00    +0.000 OA
ENDBRANCH  24  25
ENDBRANCH   8  24
TORSDOF 5
ENDMDL
MODEL 10
REMARK VINA RESULT:      -7.8      2.028      4.118
REMARK  Name = 44259775
REMARK  5 active torsions:
REMARK  status: ('A' for Active; 'I' for Inactive)
REMARK    1  A    between atoms: S_1  and  O_3
REMARK    2  A    between atoms: O_3  and  C_15
REMARK    3  A    between atoms: O_4  and  C_20
REMARK    4  A    between atoms: O_8  and  C_26
REMARK    5  A    between atoms: C_14  and  C_17
REMARK                            x       y       z     vdW  Elec       q    Type
REMARK                         _______ _______ _______ _____ _____    ______ ____
ROOT
ATOM      1  O   UNL     1     103.741 125.273 147.380  0.00  0.00    +0.000 OA
ATOM      2  O   UNL     1     104.676 123.362 145.425  0.00  0.00    +0.000 OA
ATOM      3  O   UNL     1     105.581 124.301 146.040  0.00  0.00    +0.000 OA
ATOM      4  O   UNL     1     103.111 122.743 145.266  0.00  0.00    +0.000 OA
ATOM      5  C   UNL     1     104.203 124.327 146.413  0.00  0.00    +0.000 A 
ATOM      6  C   UNL     1     103.590 124.651 146.860  0.00  0.00    +0.000 A 
ATOM      7  C   UNL     1     104.508 125.571 147.454  0.00  0.00    +0.000 A 
ATOM      8  C   UNL     1     105.121 125.247 147.007  0.00  0.00    +0.000 A 
ATOM      9  C   UNL     1     104.968 124.625 146.487  0.00  0.00    +0.000 A 
ATOM     10  C   UNL     1     104.056 123.679 145.867  0.00  0.00    +0.000 A 
ATOM     11  C   UNL     1     102.787 124.349 146.792  0.00  0.00    +0.000 A 
ATOM     12  C   UNL     1     102.623 123.702 146.252  0.00  0.00    +0.000 A 
ATOM     13  C   UNL     1     103.261 123.365 145.787  0.00  0.00    +0.000 A 
ENDROOT
BRANCH   7  14
ATOM     14  C   UNL     1     104.660 126.193 147.974  0.00  0.00    +0.000 A 
ATOM     15  C   UNL     1     104.908 126.033 148.745  0.00  0.00    +0.000 A 
ATOM     16  C   UNL     1     104.564 126.973 147.724  0.00  0.00    +0.000 A 
ATOM     17  C   UNL     1     105.060 126.655 149.266  0.00  0.00    +0.000 A 
ATOM     18  C   UNL     1     104.716 127.594 148.246  0.00  0.00    +0.000 A 
ATOM     19  C   UNL     1     104.964 127.435 149.016  0.00  0.00    +0.000 A 
BRANCH  19  20
ATOM     20  O   UNL     1     105.116 128.056 149.538  0.00  0.00    +0.000 OA
ATOM     21  C   UNL     1     105.081 128.836 149.271  0.00  0.00    +0.000 C 
ENDBRANCH  19  20
ENDBRANCH   7  14
BRANCH  12  22
ATOM     22  O   UNL     1     101.855 123.406 146.181  0.00  0.00    +0.000 OA
ATOM     23  C   UNL     1     101.269 123.650 146.707  0.00  0.00    +0.000 C 
ENDBRANCH  12  22
BRANCH   8  24
ATOM     24  O   UNL     1     105.886 125.545 147.080  0.00  0.00    +0.000 OA
BRANCH  24  25
ATOM     25  S   UNL     1     106.484 125.274 146.581  0.00  0.00    +0.000 S 
ATOM     26  O   UNL     1     107.082 125.003 146.081  0.00  0.00    +0.000 OA
ATOM     27  O   UNL     1     106.696 124.707 147.141  0.00  0.00    +0.000 OA
ATOM     28  O   UNL     1     106.272 125.841 146.020  0.00  0.00    +0.000 OA
ENDBRANCH  24  25
ENDBRANCH   8  24
TORSDOF 5
ENDMDL
