MODEL 1
REMARK VINA RESULT:     -10.1      0.000      0.000
REMARK  Name = 44257652
REMARK  2 active torsions:
REMARK  status: ('A' for Active; 'I' for Inactive)
REMARK    1  A    between atoms: C_11  and  C_15
REMARK    2  A    between atoms: C_22  and  C_24
REMARK                            x       y       z     vdW  Elec       q    Type
REMARK                         _______ _______ _______ _____ _____    ______ ____
ROOT
ATOM      1  O   UNL     1     105.994 123.931 140.895  0.00  0.00    +0.000 OA
ATOM      2  O   UNL     1     104.202 124.553 138.709  0.00  0.00    +0.000 OA
ATOM      3  O   UNL     1     104.962 126.581 140.608  0.00  0.00    +0.000 OA
ATOM      4  O   UNL     1     105.637 122.887 139.965  0.00  0.00    +0.000 OA
ATOM      5  C   UNL     1     105.477 125.256 140.751  0.00  0.00    +0.000 A 
ATOM      6  C   UNL     1     105.527 124.476 140.488  0.00  0.00    +0.000 A 
ATOM      7  C   UNL     1     105.010 125.801 140.344  0.00  0.00    +0.000 A 
ATOM      8  C   UNL     1     105.108 124.241 139.816  0.00  0.00    +0.000 A 
ATOM      9  C   UNL     1     104.641 124.785 139.409  0.00  0.00    +0.000 A 
ATOM     10  C   UNL     1     104.593 125.565 139.673  0.00  0.00    +0.000 A 
ATOM     11  C   UNL     1     105.168 123.426 139.551  0.00  0.00    +0.000 A 
ATOM     12  C   UNL     1     104.249 123.741 138.428  0.00  0.00    +0.000 A 
ATOM     13  C   UNL     1     104.735 123.174 138.852  0.00  0.00    +0.000 A 
ENDROOT
BRANCH   5  19
ATOM     14  O   UNL     1     105.548 125.428 142.168  0.00  0.00    +0.000 OA
ATOM     15  O   UNL     1     107.008 125.853 140.603  0.00  0.00    +0.000 OA
ATOM     16  O   UNL     1     107.844 126.324 141.946  0.00  0.00    +0.000 OA
ATOM     17  O   UNL     1     107.149 126.197 143.437  0.00  0.00    +0.000 OA
ATOM     18  C   UNL     1     106.661 125.790 141.349  0.00  0.00    +0.000 C 
ATOM     19  C   UNL     1     105.896 125.492 141.423  0.00  0.00    +0.000 C 
ATOM     20  C   UNL     1     107.078 126.025 142.020  0.00  0.00    +0.000 C 
ATOM     21  C   UNL     1     106.731 125.962 142.765  0.00  0.00    +0.000 C 
ATOM     22  C   UNL     1     105.966 125.663 142.839  0.00  0.00    +0.000 C 
ENDBRANCH   5  19
BRANCH  12  24
ATOM     23  O   UNL     1     102.574 122.810 135.742  0.00  0.00    +0.000 OA
ATOM     24  C   UNL     1     103.830 123.508 137.757  0.00  0.00    +0.000 A 
ATOM     25  C   UNL     1     103.006 123.481 137.773  0.00  0.00    +0.000 A 
ATOM     26  C   UNL     1     104.235 123.303 137.068  0.00  0.00    +0.000 A 
ATOM     27  C   UNL     1     102.587 123.248 137.102  0.00  0.00    +0.000 A 
ATOM     28  C   UNL     1     103.817 123.070 136.397  0.00  0.00    +0.000 A 
ATOM     29  C   UNL     1     102.992 123.043 136.413  0.00  0.00    +0.000 A 
ENDBRANCH  12  24
TORSDOF 2
ENDMDL
MODEL 2
REMARK VINA RESULT:      -9.8      6.728      7.788
REMARK  Name = 44257652
REMARK  2 active torsions:
REMARK  status: ('A' for Active; 'I' for Inactive)
REMARK    1  A    between atoms: C_11  and  C_15
REMARK    2  A    between atoms: C_22  and  C_24
REMARK                            x       y       z     vdW  Elec       q    Type
REMARK                         _______ _______ _______ _____ _____    ______ ____
ROOT
ATOM      1  O   UNL     1     108.131 128.656 135.801  0.00  0.00    +0.000 OA
ATOM      2  O   UNL     1     110.632 127.328 136.399  0.00  0.00    +0.000 OA
ATOM      3  O   UNL     1     110.504 130.199 136.198  0.00  0.00    +0.000 OA
ATOM      4  O   UNL     1     108.153 127.216 135.893  0.00  0.00    +0.000 OA
ATOM      5  C   UNL     1     109.318 129.427 136.000  0.00  0.00    +0.000 A 
ATOM      6  C   UNL     1     108.938 128.696 135.966  0.00  0.00    +0.000 A 
ATOM      7  C   UNL     1     110.125 129.467 136.164  0.00  0.00    +0.000 A 
ATOM      8  C   UNL     1     109.367 128.002 136.096  0.00  0.00    +0.000 A 
ATOM      9  C   UNL     1     110.175 128.042 136.261  0.00  0.00    +0.000 A 
ATOM     10  C   UNL     1     110.553 128.774 136.295  0.00  0.00    +0.000 A 
ATOM     11  C   UNL     1     108.961 127.247 136.059  0.00  0.00    +0.000 A 
ATOM     12  C   UNL     1     110.243 126.562 136.365  0.00  0.00    +0.000 A 
ATOM     13  C   UNL     1     109.402 126.521 136.194  0.00  0.00    +0.000 A 
ENDROOT
BRANCH   5  19
ATOM     14  O   UNL     1     108.814 130.421 135.104  0.00  0.00    +0.000 OA
ATOM     15  O   UNL     1     108.610 130.211 137.267  0.00  0.00    +0.000 OA
ATOM     16  O   UNL     1     107.752 131.597 137.005  0.00  0.00    +0.000 OA
ATOM     17  O   UNL     1     107.603 132.198 135.476  0.00  0.00    +0.000 OA
ATOM     18  C   UNL     1     108.535 130.513 136.503  0.00  0.00    +0.000 C 
ATOM     19  C   UNL     1     108.889 130.121 135.869  0.00  0.00    +0.000 C 
ATOM     20  C   UNL     1     108.106 131.205 136.372  0.00  0.00    +0.000 C 
ATOM     21  C   UNL     1     108.032 131.505 135.608  0.00  0.00    +0.000 C 
ATOM     22  C   UNL     1     108.385 131.113 134.974  0.00  0.00    +0.000 C 
ENDBRANCH   5  19
BRANCH  12  24
ATOM     23  O   UNL     1     111.966 123.798 136.890  0.00  0.00    +0.000 OA
ATOM     24  C   UNL     1     110.674 125.871 136.496  0.00  0.00    +0.000 A 
ATOM     25  C   UNL     1     110.930 125.416 135.857  0.00  0.00    +0.000 A 
ATOM     26  C   UNL     1     110.849 125.634 137.267  0.00  0.00    +0.000 A 
ATOM     27  C   UNL     1     111.361 124.725 135.988  0.00  0.00    +0.000 A 
ATOM     28  C   UNL     1     111.280 124.943 137.398  0.00  0.00    +0.000 A 
ATOM     29  C   UNL     1     111.536 124.488 136.759  0.00  0.00    +0.000 A 
ENDBRANCH  12  24
TORSDOF 2
ENDMDL
MODEL 3
REMARK VINA RESULT:      -9.7      4.711      7.632
REMARK  Name = 44257652
REMARK  2 active torsions:
REMARK  status: ('A' for Active; 'I' for Inactive)
REMARK    1  A    between atoms: C_11  and  C_15
REMARK    2  A    between atoms: C_22  and  C_24
REMARK                            x       y       z     vdW  Elec       q    Type
REMARK                         _______ _______ _______ _____ _____    ______ ____
ROOT
ATOM      1  O   UNL     1     106.481 127.905 144.796  0.00  0.00    +0.000 OA
ATOM      2  O   UNL     1     106.608 125.369 146.185  0.00  0.00    +0.000 OA
ATOM      3  O   UNL     1     105.709 125.504 143.451  0.00  0.00    +0.000 OA
ATOM      4  O   UNL     1     106.937 127.879 146.165  0.00  0.00    +0.000 OA
ATOM      5  C   UNL     1     106.095 126.704 144.124  0.00  0.00    +0.000 A 
ATOM      6  C   UNL     1     106.373 127.087 144.800  0.00  0.00    +0.000 A 
ATOM      7  C   UNL     1     105.987 125.886 144.128  0.00  0.00    +0.000 A 
ATOM      8  C   UNL     1     106.543 126.651 145.480  0.00  0.00    +0.000 A 
ATOM      9  C   UNL     1     106.435 125.833 145.484  0.00  0.00    +0.000 A 
ATOM     10  C   UNL     1     106.157 125.451 144.807  0.00  0.00    +0.000 A 
ATOM     11  C   UNL     1     106.831 127.061 146.177  0.00  0.00    +0.000 A 
ATOM     12  C   UNL     1     106.898 125.761 146.893  0.00  0.00    +0.000 A 
ATOM     13  C   UNL     1     107.010 126.613 146.889  0.00  0.00    +0.000 A 
ENDROOT
BRANCH   5  19
ATOM     14  O   UNL     1     105.179 127.479 143.348  0.00  0.00    +0.000 OA
ATOM     15  O   UNL     1     107.246 126.894 142.957  0.00  0.00    +0.000 OA
ATOM     16  O   UNL     1     106.906 127.765 141.598  0.00  0.00    +0.000 OA
ATOM     17  O   UNL     1     105.415 128.446 141.405  0.00  0.00    +0.000 OA
ATOM     18  C   UNL     1     106.500 127.235 142.860  0.00  0.00    +0.000 C 
ATOM     19  C   UNL     1     105.925 127.139 143.444  0.00  0.00    +0.000 C 
ATOM     20  C   UNL     1     106.330 127.670 142.181  0.00  0.00    +0.000 C 
ATOM     21  C   UNL     1     105.586 128.010 142.084  0.00  0.00    +0.000 C 
ATOM     22  C   UNL     1     105.010 127.914 142.668  0.00  0.00    +0.000 C 
ENDBRANCH   5  19
BRANCH  12  24
ATOM     23  O   UNL     1     107.575 124.011 149.607  0.00  0.00    +0.000 OA
ATOM     24  C   UNL     1     107.067 125.324 147.572  0.00  0.00    +0.000 A 
ATOM     25  C   UNL     1     106.453 125.047 148.048  0.00  0.00    +0.000 A 
ATOM     26  C   UNL     1     107.850 125.163 147.774  0.00  0.00    +0.000 A 
ATOM     27  C   UNL     1     106.623 124.609 148.727  0.00  0.00    +0.000 A 
ATOM     28  C   UNL     1     108.020 124.725 148.452  0.00  0.00    +0.000 A 
ATOM     29  C   UNL     1     107.406 124.448 148.929  0.00  0.00    +0.000 A 
ENDBRANCH  12  24
TORSDOF 2
ENDMDL
MODEL 4
REMARK VINA RESULT:      -9.6      4.166      6.144
REMARK  Name = 44257652
REMARK  2 active torsions:
REMARK  status: ('A' for Active; 'I' for Inactive)
REMARK    1  A    between atoms: C_11  and  C_15
REMARK    2  A    between atoms: C_22  and  C_24
REMARK                            x       y       z     vdW  Elec       q    Type
REMARK                         _______ _______ _______ _____ _____    ______ ____
ROOT
ATOM      1  O   UNL     1     104.515 127.710 141.048  0.00  0.00    +0.000 OA
ATOM      2  O   UNL     1     103.538 130.099 142.358  0.00  0.00    +0.000 OA
ATOM      3  O   UNL     1     105.517 128.433 143.625  0.00  0.00    +0.000 OA
ATOM      4  O   UNL     1     103.524 128.518 140.380  0.00  0.00    +0.000 OA
ATOM      5  C   UNL     1     105.016 128.072 142.337  0.00  0.00    +0.000 A 
ATOM      6  C   UNL     1     104.522 128.223 141.694  0.00  0.00    +0.000 A 
ATOM      7  C   UNL     1     105.023 128.585 142.983  0.00  0.00    +0.000 A 
ATOM      8  C   UNL     1     104.034 128.889 141.697  0.00  0.00    +0.000 A 
ATOM      9  C   UNL     1     104.041 129.403 142.343  0.00  0.00    +0.000 A 
ATOM     10  C   UNL     1     104.535 129.250 142.985  0.00  0.00    +0.000 A 
ATOM     11  C   UNL     1     103.524 129.036 141.022  0.00  0.00    +0.000 A 
ATOM     12  C   UNL     1     103.020 130.263 141.691  0.00  0.00    +0.000 A 
ATOM     13  C   UNL     1     103.013 129.728 141.019  0.00  0.00    +0.000 A 
ENDROOT
BRANCH   5  19
ATOM     14  O   UNL     1     105.221 126.686 142.621  0.00  0.00    +0.000 OA
ATOM     15  O   UNL     1     106.557 128.180 141.757  0.00  0.00    +0.000 OA
ATOM     16  O   UNL     1     107.532 126.849 141.751  0.00  0.00    +0.000 OA
ATOM     17  O   UNL     1     106.966 125.409 142.325  0.00  0.00    +0.000 OA
ATOM     18  C   UNL     1     106.274 127.460 142.044  0.00  0.00    +0.000 C 
ATOM     19  C   UNL     1     105.504 127.406 142.334  0.00  0.00    +0.000 C 
ATOM     20  C   UNL     1     106.761 126.795 142.041  0.00  0.00    +0.000 C 
ATOM     21  C   UNL     1     106.479 126.075 142.328  0.00  0.00    +0.000 C 
ATOM     22  C   UNL     1     105.708 126.021 142.618  0.00  0.00    +0.000 C 
ENDBRANCH   5  19
BRANCH  12  24
ATOM     23  O   UNL     1     101.075 132.928 141.712  0.00  0.00    +0.000 OA
ATOM     24  C   UNL     1     102.534 130.929 141.696  0.00  0.00    +0.000 A 
ATOM     25  C   UNL     1     101.745 130.862 141.929  0.00  0.00    +0.000 A 
ATOM     26  C   UNL     1     102.836 131.662 141.469  0.00  0.00    +0.000 A 
ATOM     27  C   UNL     1     101.259 131.529 141.934  0.00  0.00    +0.000 A 
ATOM     28  C   UNL     1     102.350 132.328 141.474  0.00  0.00    +0.000 A 
ATOM     29  C   UNL     1     101.561 132.262 141.707  0.00  0.00    +0.000 A 
ENDBRANCH  12  24
TORSDOF 2
ENDMDL
MODEL 5
REMARK VINA RESULT:      -9.6      7.509      9.035
REMARK  Name = 44257652
REMARK  2 active torsions:
REMARK  status: ('A' for Active; 'I' for Inactive)
REMARK    1  A    between atoms: C_11  and  C_15
REMARK    2  A    between atoms: C_22  and  C_24
REMARK                            x       y       z     vdW  Elec       q    Type
REMARK                         _______ _______ _______ _____ _____    ______ ____
ROOT
ATOM      1  O   UNL     1     111.018 129.258 136.808  0.00  0.00    +0.000 OA
ATOM      2  O   UNL     1     112.190 126.701 136.124  0.00  0.00    +0.000 OA
ATOM      3  O   UNL     1     109.968 127.749 134.620  0.00  0.00    +0.000 OA
ATOM      4  O   UNL     1     112.131 128.768 137.586  0.00  0.00    +0.000 OA
ATOM      5  C   UNL     1     110.493 128.503 135.714  0.00  0.00    +0.000 A 
ATOM      6  C   UNL     1     111.035 128.586 136.330  0.00  0.00    +0.000 A 
ATOM      7  C   UNL     1     110.510 127.831 135.236  0.00  0.00    +0.000 A 
ATOM      8  C   UNL     1     111.596 127.995 136.469  0.00  0.00    +0.000 A 
ATOM      9  C   UNL     1     111.613 127.323 135.991  0.00  0.00    +0.000 A 
ATOM     10  C   UNL     1     111.070 127.241 135.375  0.00  0.00    +0.000 A 
ATOM     11  C   UNL     1     112.155 128.092 137.113  0.00  0.00    +0.000 A 
ATOM     12  C   UNL     1     112.759 126.781 136.765  0.00  0.00    +0.000 A 
ATOM     13  C   UNL     1     112.741 127.481 137.262  0.00  0.00    +0.000 A 
ENDROOT
BRANCH   5  19
ATOM     14  O   UNL     1     110.121 129.733 135.091  0.00  0.00    +0.000 OA
ATOM     15  O   UNL     1     109.000 128.403 136.409  0.00  0.00    +0.000 OA
ATOM     16  O   UNL     1     107.881 129.583 136.133  0.00  0.00    +0.000 OA
ATOM     17  O   UNL     1     108.255 130.864 135.162  0.00  0.00    +0.000 OA
ATOM     18  C   UNL     1     109.186 129.044 135.923  0.00  0.00    +0.000 C 
ATOM     19  C   UNL     1     109.933 129.094 135.576  0.00  0.00    +0.000 C 
ATOM     20  C   UNL     1     108.627 129.633 135.785  0.00  0.00    +0.000 C 
ATOM     21  C   UNL     1     108.814 130.273 135.300  0.00  0.00    +0.000 C 
ATOM     22  C   UNL     1     109.561 130.323 134.953  0.00  0.00    +0.000 C 
ENDBRANCH   5  19
BRANCH  12  24
ATOM     23  O   UNL     1     114.994 124.415 137.308  0.00  0.00    +0.000 OA
ATOM     24  C   UNL     1     113.317 126.189 136.901  0.00  0.00    +0.000 A 
ATOM     25  C   UNL     1     113.170 125.603 137.462  0.00  0.00    +0.000 A 
ATOM     26  C   UNL     1     114.024 126.184 136.475  0.00  0.00    +0.000 A 
ATOM     27  C   UNL     1     113.728 125.011 137.598  0.00  0.00    +0.000 A 
ATOM     28  C   UNL     1     114.582 125.593 136.611  0.00  0.00    +0.000 A 
ATOM     29  C   UNL     1     114.435 125.006 137.172  0.00  0.00    +0.000 A 
ENDBRANCH  12  24
TORSDOF 2
ENDMDL
MODEL 6
REMARK VINA RESULT:      -9.6      5.017      6.696
REMARK  Name = 44257652
REMARK  2 active torsions:
REMARK  status: ('A' for Active; 'I' for Inactive)
REMARK    1  A    between atoms: C_11  and  C_15
REMARK    2  A    between atoms: C_22  and  C_24
REMARK                            x       y       z     vdW  Elec       q    Type
REMARK                         _______ _______ _______ _____ _____    ______ ____
ROOT
ATOM      1  O   UNL     1     106.522 124.710 145.943  0.00  0.00    +0.000 OA
ATOM      2  O   UNL     1     106.160 127.328 144.763  0.00  0.00    +0.000 OA
ATOM      3  O   UNL     1     106.631 127.043 147.591  0.00  0.00    +0.000 OA
ATOM      4  O   UNL     1     106.288 124.811 144.523  0.00  0.00    +0.000 OA
ATOM      5  C   UNL     1     106.576 125.877 146.767  0.00  0.00    +0.000 A 
ATOM      6  C   UNL     1     106.480 125.530 146.024  0.00  0.00    +0.000 A 
ATOM      7  C   UNL     1     106.535 126.697 146.848  0.00  0.00    +0.000 A 
ATOM      8  C   UNL     1     106.343 126.004 145.362  0.00  0.00    +0.000 A 
ATOM      9  C   UNL     1     106.302 126.824 145.444  0.00  0.00    +0.000 A 
ATOM     10  C   UNL     1     106.398 127.170 146.187  0.00  0.00    +0.000 A 
ATOM     11  C   UNL     1     106.245 125.631 144.595  0.00  0.00    +0.000 A 
ATOM     12  C   UNL     1     106.059 126.973 143.986  0.00  0.00    +0.000 A 
ATOM     13  C   UNL     1     106.102 126.119 143.902  0.00  0.00    +0.000 A 
ENDROOT
BRANCH   5  19
ATOM     14  O   UNL     1     106.077 125.074 147.839  0.00  0.00    +0.000 OA
ATOM     15  O   UNL     1     108.121 125.587 147.268  0.00  0.00    +0.000 OA
ATOM     16  O   UNL     1     108.395 124.639 148.591  0.00  0.00    +0.000 OA
ATOM     17  O   UNL     1     107.123 123.982 149.412  0.00  0.00    +0.000 OA
ATOM     18  C   UNL     1     107.486 125.258 147.679  0.00  0.00    +0.000 C 
ATOM     19  C   UNL     1     106.713 125.403 147.429  0.00  0.00    +0.000 C 
ATOM     20  C   UNL     1     107.622 124.784 148.340  0.00  0.00    +0.000 C 
ATOM     21  C   UNL     1     106.987 124.456 148.751  0.00  0.00    +0.000 C 
ATOM     22  C   UNL     1     106.215 124.601 148.500  0.00  0.00    +0.000 C 
ENDBRANCH   5  19
BRANCH  12  24
ATOM     23  O   UNL     1     105.510 128.877 141.348  0.00  0.00    +0.000 OA
ATOM     24  C   UNL     1     105.922 127.449 143.326  0.00  0.00    +0.000 A 
ATOM     25  C   UNL     1     106.547 127.658 142.830  0.00  0.00    +0.000 A 
ATOM     26  C   UNL     1     105.159 127.717 143.162  0.00  0.00    +0.000 A 
ATOM     27  C   UNL     1     106.410 128.133 142.171  0.00  0.00    +0.000 A 
ATOM     28  C   UNL     1     105.022 128.192 142.503  0.00  0.00    +0.000 A 
ATOM     29  C   UNL     1     105.647 128.401 142.007  0.00  0.00    +0.000 A 
ENDBRANCH  12  24
TORSDOF 2
ENDMDL
MODEL 7
REMARK VINA RESULT:      -9.4      7.515      8.874
REMARK  Name = 44257652
REMARK  2 active torsions:
REMARK  status: ('A' for Active; 'I' for Inactive)
REMARK    1  A    between atoms: C_11  and  C_15
REMARK    2  A    between atoms: C_22  and  C_24
REMARK                            x       y       z     vdW  Elec       q    Type
REMARK                         _______ _______ _______ _____ _____    ______ ____
ROOT
ATOM      1  O   UNL     1     113.093 129.111 138.923  0.00  0.00    +0.000 OA
ATOM      2  O   UNL     1     113.155 126.217 138.897  0.00  0.00    +0.000 OA
ATOM      3  O   UNL     1     114.248 127.691 141.118  0.00  0.00    +0.000 OA
ATOM      4  O   UNL     1     112.535 128.409 137.792  0.00  0.00    +0.000 OA
ATOM      5  C   UNL     1     113.671 128.400 140.020  0.00  0.00    +0.000 A 
ATOM      6  C   UNL     1     113.296 128.398 139.286  0.00  0.00    +0.000 A 
ATOM      7  C   UNL     1     113.874 127.687 140.383  0.00  0.00    +0.000 A 
ATOM      8  C   UNL     1     113.125 127.681 138.912  0.00  0.00    +0.000 A 
ATOM      9  C   UNL     1     113.328 126.968 139.275  0.00  0.00    +0.000 A 
ATOM     10  C   UNL     1     113.703 126.972 140.010  0.00  0.00    +0.000 A 
ATOM     11  C   UNL     1     112.734 127.692 138.147  0.00  0.00    +0.000 A 
ATOM     12  C   UNL     1     112.765 126.207 138.131  0.00  0.00    +0.000 A 
ATOM     13  C   UNL     1     112.553 126.949 137.754  0.00  0.00    +0.000 A 
ENDROOT
BRANCH   5  19
ATOM     14  O   UNL     1     114.546 129.511 140.223  0.00  0.00    +0.000 OA
ATOM     15  O   UNL     1     112.606 129.040 141.106  0.00  0.00    +0.000 OA
ATOM     16  O   UNL     1     112.949 130.472 141.852  0.00  0.00    +0.000 OA
ATOM     17  O   UNL     1     114.356 131.263 141.511  0.00  0.00    +0.000 OA
ATOM     18  C   UNL     1     113.310 129.436 140.937  0.00  0.00    +0.000 C 
ATOM     19  C   UNL     1     113.842 129.116 140.394  0.00  0.00    +0.000 C 
ATOM     20  C   UNL     1     113.481 130.152 141.309  0.00  0.00    +0.000 C 
ATOM     21  C   UNL     1     114.184 130.547 141.139  0.00  0.00    +0.000 C 
ATOM     22  C   UNL     1     114.716 130.227 140.596  0.00  0.00    +0.000 C 
ENDBRANCH   5  19
BRANCH  12  24
ATOM     23  O   UNL     1     112.085 123.339 136.647  0.00  0.00    +0.000 OA
ATOM     24  C   UNL     1     112.595 125.490 137.760  0.00  0.00    +0.000 A 
ATOM     25  C   UNL     1     111.843 125.158 137.828  0.00  0.00    +0.000 A 
ATOM     26  C   UNL     1     113.177 125.104 137.321  0.00  0.00    +0.000 A 
ATOM     27  C   UNL     1     111.673 124.441 137.457  0.00  0.00    +0.000 A 
ATOM     28  C   UNL     1     113.007 124.388 136.950  0.00  0.00    +0.000 A 
ATOM     29  C   UNL     1     112.255 124.055 137.018  0.00  0.00    +0.000 A 
ENDBRANCH  12  24
TORSDOF 2
ENDMDL
MODEL 8
REMARK VINA RESULT:      -9.2      7.232     10.009
REMARK  Name = 44257652
REMARK  2 active torsions:
REMARK  status: ('A' for Active; 'I' for Inactive)
REMARK    1  A    between atoms: C_11  and  C_15
REMARK    2  A    between atoms: C_22  and  C_24
REMARK                            x       y       z     vdW  Elec       q    Type
REMARK                         _______ _______ _______ _____ _____    ______ ____
ROOT
ATOM      1  O   UNL     1     112.984 125.912 139.539  0.00  0.00    +0.000 OA
ATOM      2  O   UNL     1     113.462 128.760 139.347  0.00  0.00    +0.000 OA
ATOM      3  O   UNL     1     112.453 127.283 137.088  0.00  0.00    +0.000 OA
ATOM      4  O   UNL     1     113.490 126.616 140.693  0.00  0.00    +0.000 OA
ATOM      5  C   UNL     1     112.719 126.598 138.313  0.00  0.00    +0.000 A 
ATOM      6  C   UNL     1     112.974 126.609 139.098  0.00  0.00    +0.000 A 
ATOM      7  C   UNL     1     112.708 127.296 137.873  0.00  0.00    +0.000 A 
ATOM      8  C   UNL     1     113.219 127.319 139.441  0.00  0.00    +0.000 A 
ATOM      9  C   UNL     1     113.209 128.016 139.000  0.00  0.00    +0.000 A 
ATOM     10  C   UNL     1     112.953 128.004 138.216  0.00  0.00    +0.000 A 
ATOM     11  C   UNL     1     113.483 127.318 140.259  0.00  0.00    +0.000 A 
ATOM     12  C   UNL     1     113.729 128.779 140.164  0.00  0.00    +0.000 A 
ATOM     13  C   UNL     1     113.740 128.053 140.623  0.00  0.00    +0.000 A 
ENDROOT
BRANCH   5  19
ATOM     14  O   UNL     1     111.688 125.646 138.043  0.00  0.00    +0.000 OA
ATOM     15  O   UNL     1     113.798 125.668 137.482  0.00  0.00    +0.000 OA
ATOM     16  O   UNL     1     113.307 124.250 136.795  0.00  0.00    +0.000 OA
ATOM     17  O   UNL     1     111.737 123.762 136.940  0.00  0.00    +0.000 OA
ATOM     18  C   UNL     1     113.013 125.423 137.554  0.00  0.00    +0.000 C 
ATOM     19  C   UNL     1     112.473 125.889 137.970  0.00  0.00    +0.000 C 
ATOM     20  C   UNL     1     112.767 124.715 137.211  0.00  0.00    +0.000 C 
ATOM     21  C   UNL     1     111.983 124.471 137.283  0.00  0.00    +0.000 C 
ATOM     22  C   UNL     1     111.444 124.937 137.699  0.00  0.00    +0.000 C 
ENDBRANCH   5  19
BRANCH  12  24
ATOM     23  O   UNL     1     114.709 131.620 141.527  0.00  0.00    +0.000 OA
ATOM     24  C   UNL     1     113.974 129.489 140.504  0.00  0.00    +0.000 A 
ATOM     25  C   UNL     1     113.484 129.880 141.041  0.00  0.00    +0.000 A 
ATOM     26  C   UNL     1     114.709 129.809 140.309  0.00  0.00    +0.000 A 
ATOM     27  C   UNL     1     113.729 130.591 141.382  0.00  0.00    +0.000 A 
ATOM     28  C   UNL     1     114.953 130.519 140.649  0.00  0.00    +0.000 A 
ATOM     29  C   UNL     1     114.464 130.910 141.186  0.00  0.00    +0.000 A 
ENDBRANCH  12  24
TORSDOF 2
ENDMDL
