MODEL 1
REMARK VINA RESULT:      -8.6      0.000      0.000
REMARK  Name = 5386962
REMARK  4 active torsions:
REMARK  status: ('A' for Active; 'I' for Inactive)
REMARK    1  A    between atoms: O_2  and  C_13
REMARK    2  A    between atoms: O_3  and  C_15
REMARK    3  A    between atoms: O_4  and  C_17
REMARK    4  A    between atoms: C_12  and  C_18
REMARK                            x       y       z     vdW  Elec       q    Type
REMARK                         _______ _______ _______ _____ _____    ______ ____
ROOT
ATOM      1  O   UNL     1     104.674 124.182 146.800  0.00  0.00    +0.000 OA
ATOM      2  O   UNL     1     101.962 124.987 147.412  0.00  0.00    +0.000 OA
ATOM      3  O   UNL     1     102.431 122.739 145.711  0.00  0.00    +0.000 OA
ATOM      4  O   UNL     1     103.059 125.736 147.978  0.00  0.00    +0.000 OA
ATOM      5  C   UNL     1     103.300 124.588 147.109  0.00  0.00    +0.000 A 
ATOM      6  C   UNL     1     103.825 124.080 146.724  0.00  0.00    +0.000 A 
ATOM      7  C   UNL     1     104.983 124.822 147.284  0.00  0.00    +0.000 A 
ATOM      8  C   UNL     1     103.535 123.464 146.258  0.00  0.00    +0.000 A 
ATOM      9  C   UNL     1     103.590 125.232 147.596  0.00  0.00    +0.000 A 
ATOM     10  C   UNL     1     104.437 125.351 147.685  0.00  0.00    +0.000 A 
ATOM     11  C   UNL     1     102.487 124.479 147.028  0.00  0.00    +0.000 A 
ATOM     12  C   UNL     1     102.197 123.864 146.562  0.00  0.00    +0.000 A 
ATOM     13  C   UNL     1     102.721 123.355 146.177  0.00  0.00    +0.000 A 
ENDROOT
BRANCH   7  16
ATOM     14  O   UNL     1     107.457 125.828 146.270  0.00  0.00    +0.000 OA
ATOM     15  O   UNL     1     108.240 125.246 147.600  0.00  0.00    +0.000 OA
ATOM     16  C   UNL     1     105.797 124.928 147.364  0.00  0.00    +0.000 A 
ATOM     17  C   UNL     1     106.220 125.325 146.777  0.00  0.00    +0.000 A 
ATOM     18  C   UNL     1     106.188 124.637 148.029  0.00  0.00    +0.000 A 
ATOM     19  C   UNL     1     107.034 125.431 146.856  0.00  0.00    +0.000 A 
ATOM     20  C   UNL     1     107.003 124.743 148.108  0.00  0.00    +0.000 A 
ATOM     21  C   UNL     1     107.426 125.140 147.522  0.00  0.00    +0.000 A 
ENDBRANCH   7  16
BRANCH   8  22
ATOM     22  O   UNL     1     104.059 122.956 145.873  0.00  0.00    +0.000 OA
ATOM     23  C   UNL     1     104.014 122.860 145.055  0.00  0.00    +0.000 C 
ENDBRANCH   8  22
BRANCH  10  24
ATOM     24  O   UNL     1     104.724 125.968 148.152  0.00  0.00    +0.000 OA
ATOM     25  C   UNL     1     104.240 126.613 148.326  0.00  0.00    +0.000 C 
ENDBRANCH  10  24
BRANCH  12  26
ATOM     26  O   UNL     1     101.383 123.755 146.481  0.00  0.00    +0.000 OA
ATOM     27  C   UNL     1     100.983 123.236 146.982  0.00  0.00    +0.000 C 
ENDBRANCH  12  26
TORSDOF 4
ENDMDL
MODEL 2
REMARK VINA RESULT:      -8.2      1.102      4.582
REMARK  Name = 5386962
REMARK  4 active torsions:
REMARK  status: ('A' for Active; 'I' for Inactive)
REMARK    1  A    between atoms: O_2  and  C_13
REMARK    2  A    between atoms: O_3  and  C_15
REMARK    3  A    between atoms: O_4  and  C_17
REMARK    4  A    between atoms: C_12  and  C_18
REMARK                            x       y       z     vdW  Elec       q    Type
REMARK                         _______ _______ _______ _____ _____    ______ ____
ROOT
ATOM      1  O   UNL     1     104.824 124.244 147.256  0.00  0.00    +0.000 OA
ATOM      2  O   UNL     1     107.279 125.416 146.267  0.00  0.00    +0.000 OA
ATOM      3  O   UNL     1     106.919 125.022 149.075  0.00  0.00    +0.000 OA
ATOM      4  O   UNL     1     106.253 125.040 145.324  0.00  0.00    +0.000 OA
ATOM      5  C   UNL     1     106.068 124.838 146.757  0.00  0.00    +0.000 A 
ATOM      6  C   UNL     1     105.604 124.579 147.390  0.00  0.00    +0.000 A 
ATOM      7  C   UNL     1     104.522 124.178 146.454  0.00  0.00    +0.000 A 
ATOM      8  C   UNL     1     105.888 124.641 148.162  0.00  0.00    +0.000 A 
ATOM      9  C   UNL     1     105.783 124.779 145.950  0.00  0.00    +0.000 A 
ATOM     10  C   UNL     1     105.006 124.447 145.796  0.00  0.00    +0.000 A 
ATOM     11  C   UNL     1     106.815 125.158 146.899  0.00  0.00    +0.000 A 
ATOM     12  C   UNL     1     107.099 125.219 147.670  0.00  0.00    +0.000 A 
ATOM     13  C   UNL     1     106.635 124.961 148.302  0.00  0.00    +0.000 A 
ENDROOT
BRANCH   7  16
ATOM     14  O   UNL     1     101.679 124.460 146.412  0.00  0.00    +0.000 OA
ATOM     15  O   UNL     1     101.532 122.898 145.903  0.00  0.00    +0.000 OA
ATOM     16  C   UNL     1     103.775 123.857 146.316  0.00  0.00    +0.000 A 
ATOM     17  C   UNL     1     103.101 124.318 146.433  0.00  0.00    +0.000 A 
ATOM     18  C   UNL     1     103.701 123.076 146.062  0.00  0.00    +0.000 A 
ATOM     19  C   UNL     1     102.354 123.999 146.296  0.00  0.00    +0.000 A 
ATOM     20  C   UNL     1     102.953 122.756 145.924  0.00  0.00    +0.000 A 
ATOM     21  C   UNL     1     102.279 123.217 146.041  0.00  0.00    +0.000 A 
ENDBRANCH   7  16
BRANCH   8  22
ATOM     22  O   UNL     1     105.424 124.382 148.793  0.00  0.00    +0.000 OA
ATOM     23  C   UNL     1     105.206 124.910 149.388  0.00  0.00    +0.000 C 
ENDBRANCH   8  22
BRANCH  10  24
ATOM     24  O   UNL     1     104.724 124.387 145.022  0.00  0.00    +0.000 OA
ATOM     25  C   UNL     1     105.248 124.445 144.387  0.00  0.00    +0.000 C 
ENDBRANCH  10  24
BRANCH  12  26
ATOM     26  O   UNL     1     107.846 125.539 147.811  0.00  0.00    +0.000 OA
ATOM     27  C   UNL     1     108.497 125.042 147.905  0.00  0.00    +0.000 C 
ENDBRANCH  12  26
TORSDOF 4
ENDMDL
MODEL 3
REMARK VINA RESULT:      -7.9      1.071      4.169
REMARK  Name = 5386962
REMARK  4 active torsions:
REMARK  status: ('A' for Active; 'I' for Inactive)
REMARK    1  A    between atoms: O_2  and  C_13
REMARK    2  A    between atoms: O_3  and  C_15
REMARK    3  A    between atoms: O_4  and  C_17
REMARK    4  A    between atoms: C_12  and  C_18
REMARK                            x       y       z     vdW  Elec       q    Type
REMARK                         _______ _______ _______ _____ _____    ______ ____
ROOT
ATOM      1  O   UNL     1     104.241 124.235 146.631  0.00  0.00    +0.000 OA
ATOM      2  O   UNL     1     105.929 125.615 148.534  0.00  0.00    +0.000 OA
ATOM      3  O   UNL     1     106.940 124.970 145.940  0.00  0.00    +0.000 OA
ATOM      4  O   UNL     1     104.583 125.264 148.919  0.00  0.00    +0.000 OA
ATOM      5  C   UNL     1     105.097 124.934 147.593  0.00  0.00    +0.000 A 
ATOM      6  C   UNL     1     104.989 124.599 146.846  0.00  0.00    +0.000 A 
ATOM      7  C   UNL     1     103.597 124.219 147.200  0.00  0.00    +0.000 A 
ATOM      8  C   UNL     1     105.603 124.611 146.296  0.00  0.00    +0.000 A 
ATOM      9  C   UNL     1     104.466 124.927 148.175  0.00  0.00    +0.000 A 
ATOM     10  C   UNL     1     103.710 124.568 147.978  0.00  0.00    +0.000 A 
ATOM     11  C   UNL     1     105.821 125.280 147.788  0.00  0.00    +0.000 A 
ATOM     12  C   UNL     1     106.434 125.293 147.238  0.00  0.00    +0.000 A 
ATOM     13  C   UNL     1     106.325 124.958 146.491  0.00  0.00    +0.000 A 
ENDROOT
BRANCH   7  16
ATOM     14  O   UNL     1     101.008 124.403 146.005  0.00  0.00    +0.000 OA
ATOM     15  O   UNL     1     100.710 122.831 146.408  0.00  0.00    +0.000 OA
ATOM     16  C   UNL     1     102.876 123.872 147.002  0.00  0.00    +0.000 A 
ATOM     17  C   UNL     1     102.302 124.311 146.603  0.00  0.00    +0.000 A 
ATOM     18  C   UNL     1     102.727 123.086 147.204  0.00  0.00    +0.000 A 
ATOM     19  C   UNL     1     101.581 123.964 146.405  0.00  0.00    +0.000 A 
ATOM     20  C   UNL     1     102.005 122.739 147.005  0.00  0.00    +0.000 A 
ATOM     21  C   UNL     1     101.432 123.177 146.606  0.00  0.00    +0.000 A 
ENDBRANCH   7  16
BRANCH   8  22
ATOM     22  O   UNL     1     105.495 124.277 145.549  0.00  0.00    +0.000 OA
ATOM     23  C   UNL     1     105.585 124.739 144.873  0.00  0.00    +0.000 C 
ENDBRANCH   8  22
BRANCH  10  24
ATOM     24  O   UNL     1     103.098 124.557 148.531  0.00  0.00    +0.000 OA
ATOM     25  C   UNL     1     103.083 125.113 149.141  0.00  0.00    +0.000 C 
ENDBRANCH  10  24
BRANCH  12  26
ATOM     26  O   UNL     1     107.157 125.639 147.433  0.00  0.00    +0.000 OA
ATOM     27  C   UNL     1     107.772 125.175 147.727  0.00  0.00    +0.000 C 
ENDBRANCH  12  26
TORSDOF 4
ENDMDL
MODEL 4
REMARK VINA RESULT:      -7.9      1.120      2.255
REMARK  Name = 5386962
REMARK  4 active torsions:
REMARK  status: ('A' for Active; 'I' for Inactive)
REMARK    1  A    between atoms: O_2  and  C_13
REMARK    2  A    between atoms: O_3  and  C_15
REMARK    3  A    between atoms: O_4  and  C_17
REMARK    4  A    between atoms: C_12  and  C_18
REMARK                            x       y       z     vdW  Elec       q    Type
REMARK                         _______ _______ _______ _____ _____    ______ ____
ROOT
ATOM      1  O   UNL     1     104.707 124.923 146.992  0.00  0.00    +0.000 OA
ATOM      2  O   UNL     1     103.268 123.104 145.259  0.00  0.00    +0.000 OA
ATOM      3  O   UNL     1     102.146 123.862 147.776  0.00  0.00    +0.000 OA
ATOM      4  O   UNL     1     104.549 123.614 144.830  0.00  0.00    +0.000 OA
ATOM      5  C   UNL     1     103.977 124.002 146.116  0.00  0.00    +0.000 A 
ATOM      6  C   UNL     1     104.026 124.428 146.822  0.00  0.00    +0.000 A 
ATOM      7  C   UNL     1     105.346 124.976 146.419  0.00  0.00    +0.000 A 
ATOM      8  C   UNL     1     103.415 124.381 147.374  0.00  0.00    +0.000 A 
ATOM      9  C   UNL     1     104.606 124.043 145.533  0.00  0.00    +0.000 A 
ATOM     10  C   UNL     1     105.295 124.532 145.684  0.00  0.00    +0.000 A 
ATOM     11  C   UNL     1     103.317 123.530 145.964  0.00  0.00    +0.000 A 
ATOM     12  C   UNL     1     102.707 123.483 146.517  0.00  0.00    +0.000 A 
ATOM     13  C   UNL     1     102.756 123.909 147.223  0.00  0.00    +0.000 A 
ENDROOT
BRANCH   7  16
ATOM     14  O   UNL     1     108.005 125.263 147.427  0.00  0.00    +0.000 OA
ATOM     15  O   UNL     1     107.979 126.866 147.038  0.00  0.00    +0.000 OA
ATOM     16  C   UNL     1     106.005 125.448 146.574  0.00  0.00    +0.000 A 
ATOM     17  C   UNL     1     106.676 125.120 146.923  0.00  0.00    +0.000 A 
ATOM     18  C   UNL     1     105.991 126.250 146.379  0.00  0.00    +0.000 A 
ATOM     19  C   UNL     1     107.333 125.592 147.078  0.00  0.00    +0.000 A 
ATOM     20  C   UNL     1     106.650 126.723 146.534  0.00  0.00    +0.000 A 
ATOM     21  C   UNL     1     107.321 126.394 146.883  0.00  0.00    +0.000 A 
ENDBRANCH   7  16
BRANCH   8  22
ATOM     22  O   UNL     1     103.464 124.806 148.080  0.00  0.00    +0.000 OA
ATOM     23  C   UNL     1     103.445 124.409 148.802  0.00  0.00    +0.000 C 
ENDBRANCH   8  22
BRANCH  10  24
ATOM     24  O   UNL     1     105.904 124.577 145.129  0.00  0.00    +0.000 OA
ATOM     25  C   UNL     1     105.736 124.499 144.325  0.00  0.00    +0.000 C 
ENDBRANCH  10  24
BRANCH  12  26
ATOM     26  O   UNL     1     102.048 123.011 146.365  0.00  0.00    +0.000 OA
ATOM     27  C   UNL     1     101.377 123.339 146.015  0.00  0.00    +0.000 C 
ENDBRANCH  12  26
TORSDOF 4
ENDMDL
MODEL 5
REMARK VINA RESULT:      -7.8      9.826     12.217
REMARK  Name = 5386962
REMARK  4 active torsions:
REMARK  status: ('A' for Active; 'I' for Inactive)
REMARK    1  A    between atoms: O_2  and  C_13
REMARK    2  A    between atoms: O_3  and  C_15
REMARK    3  A    between atoms: O_4  and  C_17
REMARK    4  A    between atoms: C_12  and  C_18
REMARK                            x       y       z     vdW  Elec       q    Type
REMARK                         _______ _______ _______ _____ _____    ______ ____
ROOT
ATOM      1  O   UNL     1     113.420 126.549 139.114  0.00  0.00    +0.000 OA
ATOM      2  O   UNL     1     110.862 126.321 140.451  0.00  0.00    +0.000 OA
ATOM      3  O   UNL     1     112.992 127.771 141.688  0.00  0.00    +0.000 OA
ATOM      4  O   UNL     1     111.037 125.694 139.163  0.00  0.00    +0.000 OA
ATOM      5  C   UNL     1     112.125 126.434 139.793  0.00  0.00    +0.000 A 
ATOM      6  C   UNL     1     112.902 126.714 139.780  0.00  0.00    +0.000 A 
ATOM      7  C   UNL     1     113.125 126.085 138.453  0.00  0.00    +0.000 A 
ATOM      8  C   UNL     1     113.190 127.160 140.412  0.00  0.00    +0.000 A 
ATOM      9  C   UNL     1     111.814 125.970 139.142  0.00  0.00    +0.000 A 
ATOM     10  C   UNL     1     112.316 125.794 138.467  0.00  0.00    +0.000 A 
ATOM     11  C   UNL     1     111.638 126.600 140.438  0.00  0.00    +0.000 A 
ATOM     12  C   UNL     1     111.927 127.045 141.069  0.00  0.00    +0.000 A 
ATOM     13  C   UNL     1     112.704 127.325 141.056  0.00  0.00    +0.000 A 
ENDROOT
BRANCH   7  16
ATOM     14  O   UNL     1     115.089 124.434 137.196  0.00  0.00    +0.000 OA
ATOM     15  O   UNL     1     115.083 125.428 135.880  0.00  0.00    +0.000 OA
ATOM     16  C   UNL     1     113.614 125.921 137.810  0.00  0.00    +0.000 A 
ATOM     17  C   UNL     1     114.107 125.260 137.824  0.00  0.00    +0.000 A 
ATOM     18  C   UNL     1     113.611 126.419 137.151  0.00  0.00    +0.000 A 
ATOM     19  C   UNL     1     114.596 125.095 137.182  0.00  0.00    +0.000 A 
ATOM     20  C   UNL     1     114.101 126.254 136.508  0.00  0.00    +0.000 A 
ATOM     21  C   UNL     1     114.593 125.593 136.523  0.00  0.00    +0.000 A 
ENDBRANCH   7  16
BRANCH   8  22
ATOM     22  O   UNL     1     113.967 127.439 140.399  0.00  0.00    +0.000 OA
ATOM     23  C   UNL     1     114.506 127.183 140.967  0.00  0.00    +0.000 C 
ENDBRANCH   8  22
BRANCH  10  24
ATOM     24  O   UNL     1     112.024 125.348 137.836  0.00  0.00    +0.000 OA
ATOM     25  C   UNL     1     111.276 125.004 137.885  0.00  0.00    +0.000 C 
ENDBRANCH  10  24
BRANCH  12  26
ATOM     26  O   UNL     1     111.440 127.211 141.715  0.00  0.00    +0.000 OA
ATOM     27  C   UNL     1     111.014 127.916 141.740  0.00  0.00    +0.000 C 
ENDBRANCH  12  26
TORSDOF 4
ENDMDL
MODEL 6
REMARK VINA RESULT:      -7.8     12.808     14.064
REMARK  Name = 5386962
REMARK  4 active torsions:
REMARK  status: ('A' for Active; 'I' for Inactive)
REMARK    1  A    between atoms: O_2  and  C_13
REMARK    2  A    between atoms: O_3  and  C_15
REMARK    3  A    between atoms: O_4  and  C_17
REMARK    4  A    between atoms: C_12  and  C_18
REMARK                            x       y       z     vdW  Elec       q    Type
REMARK                         _______ _______ _______ _____ _____    ______ ____
ROOT
ATOM      1  O   UNL     1     113.434 126.768 136.625  0.00  0.00    +0.000 OA
ATOM      2  O   UNL     1     111.242 124.990 135.981  0.00  0.00    +0.000 OA
ATOM      3  O   UNL     1     113.654 123.933 137.093  0.00  0.00    +0.000 OA
ATOM      4  O   UNL     1     111.093 126.404 135.732  0.00  0.00    +0.000 OA
ATOM      5  C   UNL     1     112.325 125.866 136.299  0.00  0.00    +0.000 A 
ATOM      6  C   UNL     1     113.089 125.982 136.591  0.00  0.00    +0.000 A 
ATOM      7  C   UNL     1     112.977 127.443 136.351  0.00  0.00    +0.000 A 
ATOM      8  C   UNL     1     113.531 125.337 136.856  0.00  0.00    +0.000 A 
ATOM      9  C   UNL     1     111.855 126.528 136.022  0.00  0.00    +0.000 A 
ATOM     10  C   UNL     1     112.182 127.323 136.047  0.00  0.00    +0.000 A 
ATOM     11  C   UNL     1     112.005 125.106 136.272  0.00  0.00    +0.000 A 
ATOM     12  C   UNL     1     112.447 124.462 136.536  0.00  0.00    +0.000 A 
ATOM     13  C   UNL     1     113.211 124.578 136.828  0.00  0.00    +0.000 A 
ENDROOT
BRANCH   7  16
ATOM     14  O   UNL     1     114.579 129.496 135.175  0.00  0.00    +0.000 OA
ATOM     15  O   UNL     1     114.269 130.478 136.464  0.00  0.00    +0.000 OA
ATOM     16  C   UNL     1     113.300 128.202 136.380  0.00  0.00    +0.000 A 
ATOM     17  C   UNL     1     113.778 128.470 135.763  0.00  0.00    +0.000 A 
ATOM     18  C   UNL     1     113.144 128.693 137.024  0.00  0.00    +0.000 A 
ATOM     19  C   UNL     1     114.101 129.228 135.791  0.00  0.00    +0.000 A 
ATOM     20  C   UNL     1     113.468 129.452 137.052  0.00  0.00    +0.000 A 
ATOM     21  C   UNL     1     113.945 129.719 136.436  0.00  0.00    +0.000 A 
ENDBRANCH   7  16
BRANCH   8  22
ATOM     22  O   UNL     1     114.294 125.453 137.147  0.00  0.00    +0.000 OA
ATOM     23  C   UNL     1     114.934 125.077 136.788  0.00  0.00    +0.000 C 
ENDBRANCH   8  22
BRANCH  10  24
ATOM     24  O   UNL     1     111.737 127.965 135.782  0.00  0.00    +0.000 OA
ATOM     25  C   UNL     1     111.144 127.852 135.220  0.00  0.00    +0.000 C 
ENDBRANCH  10  24
BRANCH  12  26
ATOM     26  O   UNL     1     112.128 123.702 136.509  0.00  0.00    +0.000 OA
ATOM     27  C   UNL     1     111.812 123.362 137.191  0.00  0.00    +0.000 C 
ENDBRANCH  12  26
TORSDOF 4
ENDMDL
MODEL 7
REMARK VINA RESULT:      -7.7      2.392      3.581
REMARK  Name = 5386962
REMARK  4 active torsions:
REMARK  status: ('A' for Active; 'I' for Inactive)
REMARK    1  A    between atoms: O_2  and  C_13
REMARK    2  A    between atoms: O_3  and  C_15
REMARK    3  A    between atoms: O_4  and  C_17
REMARK    4  A    between atoms: C_12  and  C_18
REMARK                            x       y       z     vdW  Elec       q    Type
REMARK                         _______ _______ _______ _____ _____    ______ ____
ROOT
ATOM      1  O   UNL     1     106.267 124.920 145.984  0.00  0.00    +0.000 OA
ATOM      2  O   UNL     1     106.288 126.878 143.852  0.00  0.00    +0.000 OA
ATOM      3  O   UNL     1     105.153 124.294 143.402  0.00  0.00    +0.000 OA
ATOM      4  O   UNL     1     106.856 127.230 145.131  0.00  0.00    +0.000 OA
ATOM      5  C   UNL     1     106.277 125.910 144.903  0.00  0.00    +0.000 A 
ATOM      6  C   UNL     1     106.084 125.156 145.179  0.00  0.00    +0.000 A 
ATOM      7  C   UNL     1     106.658 125.477 146.510  0.00  0.00    +0.000 A 
ATOM      8  C   UNL     1     105.709 124.618 144.678  0.00  0.00    +0.000 A 
ATOM      9  C   UNL     1     106.667 126.479 145.414  0.00  0.00    +0.000 A 
ATOM     10  C   UNL     1     106.859 126.262 146.223  0.00  0.00    +0.000 A 
ATOM     11  C   UNL     1     106.095 126.124 144.127  0.00  0.00    +0.000 A 
ATOM     12  C   UNL     1     105.721 125.586 143.627  0.00  0.00    +0.000 A 
ATOM     13  C   UNL     1     105.528 124.832 143.903  0.00  0.00    +0.000 A 
ENDROOT
BRANCH   7  16
ATOM     14  O   UNL     1     105.840 125.054 149.215  0.00  0.00    +0.000 OA
ATOM     15  O   UNL     1     107.378 124.608 149.611  0.00  0.00    +0.000 OA
ATOM     16  C   UNL     1     106.838 125.260 147.286  0.00  0.00    +0.000 A 
ATOM     17  C   UNL     1     106.249 125.265 147.863  0.00  0.00    +0.000 A 
ATOM     18  C   UNL     1     107.608 125.037 147.483  0.00  0.00    +0.000 A 
ATOM     19  C   UNL     1     106.429 125.048 148.638  0.00  0.00    +0.000 A 
ATOM     20  C   UNL     1     107.787 124.819 148.259  0.00  0.00    +0.000 A 
ATOM     21  C   UNL     1     107.199 124.825 148.836  0.00  0.00    +0.000 A 
ENDBRANCH   7  16
BRANCH   8  22
ATOM     22  O   UNL     1     105.516 123.864 144.953  0.00  0.00    +0.000 OA
ATOM     23  C   UNL     1     104.729 123.619 144.966  0.00  0.00    +0.000 C 
ENDBRANCH   8  22
BRANCH  10  24
ATOM     24  O   UNL     1     107.233 126.803 146.721  0.00  0.00    +0.000 OA
ATOM     25  C   UNL     1     107.125 127.613 146.607  0.00  0.00    +0.000 C 
ENDBRANCH  10  24
BRANCH  12  26
ATOM     26  O   UNL     1     105.539 125.800 142.851  0.00  0.00    +0.000 OA
ATOM     27  C   UNL     1     106.070 125.637 142.243  0.00  0.00    +0.000 C 
ENDBRANCH  12  26
TORSDOF 4
ENDMDL
MODEL 8
REMARK VINA RESULT:      -7.7     13.262     14.339
REMARK  Name = 5386962
REMARK  4 active torsions:
REMARK  status: ('A' for Active; 'I' for Inactive)
REMARK    1  A    between atoms: O_2  and  C_13
REMARK    2  A    between atoms: O_3  and  C_15
REMARK    3  A    between atoms: O_4  and  C_17
REMARK    4  A    between atoms: C_12  and  C_18
REMARK                            x       y       z     vdW  Elec       q    Type
REMARK                         _______ _______ _______ _____ _____    ______ ____
ROOT
ATOM      1  O   UNL     1     110.300 130.704 135.992  0.00  0.00    +0.000 OA
ATOM      2  O   UNL     1     112.300 131.253 138.010  0.00  0.00    +0.000 OA
ATOM      3  O   UNL     1     112.581 128.974 136.309  0.00  0.00    +0.000 OA
ATOM      4  O   UNL     1     111.172 132.144 137.883  0.00  0.00    +0.000 OA
ATOM      5  C   UNL     1     111.314 130.980 137.014  0.00  0.00    +0.000 A 
ATOM      6  C   UNL     1     111.032 130.509 136.397  0.00  0.00    +0.000 A 
ATOM      7  C   UNL     1     109.855 131.400 136.232  0.00  0.00    +0.000 A 
ATOM      8  C   UNL     1     111.455 129.840 136.163  0.00  0.00    +0.000 A 
ATOM      9  C   UNL     1     110.883 131.678 137.266  0.00  0.00    +0.000 A 
ATOM     10  C   UNL     1     110.149 131.891 136.874  0.00  0.00    +0.000 A 
ATOM     11  C   UNL     1     112.018 130.782 137.394  0.00  0.00    +0.000 A 
ATOM     12  C   UNL     1     112.441 130.114 137.160  0.00  0.00    +0.000 A 
ATOM     13  C   UNL     1     112.158 129.643 136.543  0.00  0.00    +0.000 A 
ENDROOT
BRANCH   7  16
ATOM     14  O   UNL     1     107.020 131.143 135.983  0.00  0.00    +0.000 OA
ATOM     15  O   UNL     1     107.038 132.181 134.701  0.00  0.00    +0.000 OA
ATOM     16  C   UNL     1     109.151 131.595 135.849  0.00  0.00    +0.000 A 
ATOM     17  C   UNL     1     108.437 131.272 136.107  0.00  0.00    +0.000 A 
ATOM     18  C   UNL     1     109.160 132.114 135.207  0.00  0.00    +0.000 A 
ATOM     19  C   UNL     1     107.733 131.467 135.725  0.00  0.00    +0.000 A 
ATOM     20  C   UNL     1     108.455 132.309 134.825  0.00  0.00    +0.000 A 
ATOM     21  C   UNL     1     107.743 131.986 135.083  0.00  0.00    +0.000 A 
ENDBRANCH   7  16
BRANCH   8  22
ATOM     22  O   UNL     1     111.173 129.369 135.547  0.00  0.00    +0.000 OA
ATOM     23  C   UNL     1     111.632 129.255 134.872  0.00  0.00    +0.000 C 
ENDBRANCH   8  22
BRANCH  10  24
ATOM     24  O   UNL     1     109.728 132.560 137.111  0.00  0.00    +0.000 OA
ATOM     25  C   UNL     1     109.939 132.956 137.803  0.00  0.00    +0.000 C 
ENDBRANCH  10  24
BRANCH  12  26
ATOM     26  O   UNL     1     113.145 129.916 137.541  0.00  0.00    +0.000 OA
ATOM     27  C   UNL     1     113.138 129.387 138.173  0.00  0.00    +0.000 C 
ENDBRANCH  12  26
TORSDOF 4
ENDMDL
MODEL 9
REMARK VINA RESULT:      -7.6     13.062     13.981
REMARK  Name = 5386962
REMARK  4 active torsions:
REMARK  status: ('A' for Active; 'I' for Inactive)
REMARK    1  A    between atoms: O_2  and  C_13
REMARK    2  A    between atoms: O_3  and  C_15
REMARK    3  A    between atoms: O_4  and  C_17
REMARK    4  A    between atoms: C_12  and  C_18
REMARK                            x       y       z     vdW  Elec       q    Type
REMARK                         _______ _______ _______ _____ _____    ______ ____
ROOT
ATOM      1  O   UNL     1     112.630 127.238 136.169  0.00  0.00    +0.000 OA
ATOM      2  O   UNL     1     109.972 127.147 135.025  0.00  0.00    +0.000 OA
ATOM      3  O   UNL     1     111.464 129.584 134.969  0.00  0.00    +0.000 OA
ATOM      4  O   UNL     1     110.521 125.950 135.617  0.00  0.00    +0.000 OA
ATOM      5  C   UNL     1     111.284 127.194 135.589  0.00  0.00    +0.000 A 
ATOM      6  C   UNL     1     111.971 127.616 135.768  0.00  0.00    +0.000 A 
ATOM      7  C   UNL     1     112.574 126.408 136.387  0.00  0.00    +0.000 A 
ATOM      8  C   UNL     1     112.030 128.413 135.561  0.00  0.00    +0.000 A 
ATOM      9  C   UNL     1     111.210 126.365 135.799  0.00  0.00    +0.000 A 
ATOM     10  C   UNL     1     111.859 125.968 136.200  0.00  0.00    +0.000 A 
ATOM     11  C   UNL     1     110.658 127.569 135.204  0.00  0.00    +0.000 A 
ATOM     12  C   UNL     1     110.718 128.364 134.997  0.00  0.00    +0.000 A 
ATOM     13  C   UNL     1     111.405 128.787 135.176  0.00  0.00    +0.000 A 
ENDROOT
BRANCH   7  16
ATOM     14  O   UNL     1     115.065 125.012 136.279  0.00  0.00    +0.000 OA
ATOM     15  O   UNL     1     115.085 124.920 137.926  0.00  0.00    +0.000 OA
ATOM     16  C   UNL     1     113.201 126.036 136.772  0.00  0.00    +0.000 A 
ATOM     17  C   UNL     1     113.819 125.710 136.333  0.00  0.00    +0.000 A 
ATOM     18  C   UNL     1     113.211 125.990 137.595  0.00  0.00    +0.000 A 
ATOM     19  C   UNL     1     114.447 125.338 136.717  0.00  0.00    +0.000 A 
ATOM     20  C   UNL     1     113.840 125.618 137.980  0.00  0.00    +0.000 A 
ATOM     21  C   UNL     1     114.457 125.292 137.542  0.00  0.00    +0.000 A 
ENDBRANCH   7  16
BRANCH   8  22
ATOM     22  O   UNL     1     112.716 128.835 135.740  0.00  0.00    +0.000 OA
ATOM     23  C   UNL     1     113.161 129.174 135.134  0.00  0.00    +0.000 C 
ENDBRANCH   8  22
BRANCH  10  24
ATOM     24  O   UNL     1     111.796 125.171 136.406  0.00  0.00    +0.000 OA
ATOM     25  C   UNL     1     111.264 124.683 136.008  0.00  0.00    +0.000 C 
ENDBRANCH  10  24
BRANCH  12  26
ATOM     26  O   UNL     1     110.092 128.739 134.612  0.00  0.00    +0.000 OA
ATOM     27  C   UNL     1     109.537 129.168 135.046  0.00  0.00    +0.000 C 
ENDBRANCH  12  26
TORSDOF 4
ENDMDL
MODEL 10
REMARK VINA RESULT:      -7.6      1.444      4.501
REMARK  Name = 5386962
REMARK  4 active torsions:
REMARK  status: ('A' for Active; 'I' for Inactive)
REMARK    1  A    between atoms: O_2  and  C_13
REMARK    2  A    between atoms: O_3  and  C_15
REMARK    3  A    between atoms: O_4  and  C_17
REMARK    4  A    between atoms: C_12  and  C_18
REMARK                            x       y       z     vdW  Elec       q    Type
REMARK                         _______ _______ _______ _____ _____    ______ ____
ROOT
ATOM      1  O   UNL     1     103.931 125.105 146.990  0.00  0.00    +0.000 OA
ATOM      2  O   UNL     1     105.833 124.418 144.919  0.00  0.00    +0.000 OA
ATOM      3  O   UNL     1     106.174 126.823 146.425  0.00  0.00    +0.000 OA
ATOM      4  O   UNL     1     104.723 123.531 145.171  0.00  0.00    +0.000 OA
ATOM      5  C   UNL     1     104.895 124.759 145.941  0.00  0.00    +0.000 A 
ATOM      6  C   UNL     1     104.639 125.274 146.534  0.00  0.00    +0.000 A 
ATOM      7  C   UNL     1     103.483 124.390 146.827  0.00  0.00    +0.000 A 
ATOM      8  C   UNL     1     105.066 125.962 146.695  0.00  0.00    +0.000 A 
ATOM      9  C   UNL     1     104.460 124.040 145.765  0.00  0.00    +0.000 A 
ATOM     10  C   UNL     1     103.749 123.853 146.210  0.00  0.00    +0.000 A 
ATOM     11  C   UNL     1     105.578 124.933 145.511  0.00  0.00    +0.000 A 
ATOM     12  C   UNL     1     106.003 125.620 145.671  0.00  0.00    +0.000 A 
ATOM     13  C   UNL     1     105.747 126.135 146.264  0.00  0.00    +0.000 A 
ENDROOT
BRANCH   7  16
ATOM     14  O   UNL     1     102.230 123.197 149.101  0.00  0.00    +0.000 OA
ATOM     15  O   UNL     1     100.758 123.706 148.557  0.00  0.00    +0.000 OA
ATOM     16  C   UNL     1     102.801 124.219 147.259  0.00  0.00    +0.000 A 
ATOM     17  C   UNL     1     102.856 123.793 147.964  0.00  0.00    +0.000 A 
ATOM     18  C   UNL     1     102.065 124.474 146.987  0.00  0.00    +0.000 A 
ATOM     19  C   UNL     1     102.176 123.622 148.396  0.00  0.00    +0.000 A 
ATOM     20  C   UNL     1     101.384 124.302 147.420  0.00  0.00    +0.000 A 
ATOM     21  C   UNL     1     101.438 123.877 148.124  0.00  0.00    +0.000 A 
ENDBRANCH   7  16
BRANCH   8  22
ATOM     22  O   UNL     1     104.810 126.476 147.287  0.00  0.00    +0.000 OA
ATOM     23  C   UNL     1     105.304 126.650 147.923  0.00  0.00    +0.000 C 
ENDBRANCH   8  22
BRANCH  10  24
ATOM     24  O   UNL     1     103.325 123.165 146.047  0.00  0.00    +0.000 OA
ATOM     25  C   UNL     1     103.478 122.740 145.356  0.00  0.00    +0.000 C 
ENDBRANCH  10  24
BRANCH  12  26
ATOM     26  O   UNL     1     106.685 125.794 145.241  0.00  0.00    +0.000 OA
ATOM     27  C   UNL     1     106.637 126.255 144.559  0.00  0.00    +0.000 C 
ENDBRANCH  12  26
TORSDOF 4
ENDMDL
