MODEL 1
REMARK VINA RESULT:      -9.9      0.000      0.000
REMARK  Name = 74977436
REMARK  2 active torsions:
REMARK  status: ('A' for Active; 'I' for Inactive)
REMARK    1  A    between atoms: C_11  and  C_15
REMARK    2  A    between atoms: C_22  and  C_24
REMARK                            x       y       z     vdW  Elec       q    Type
REMARK                         _______ _______ _______ _____ _____    ______ ____
ROOT
ATOM      1  O   UNL     1     112.736 126.368 136.448  0.00  0.00    +0.000 OA
ATOM      2  O   UNL     1     111.376 123.830 136.331  0.00  0.00    +0.000 OA
ATOM      3  O   UNL     1     114.084 123.932 137.240  0.00  0.00    +0.000 OA
ATOM      4  O   UNL     1     114.799 125.182 137.313  0.00  0.00    +0.000 OA
ATOM      5  C   UNL     1     112.062 125.082 136.394  0.00  0.00    +0.000 A 
ATOM      6  C   UNL     1     112.742 125.516 136.566  0.00  0.00    +0.000 A 
ATOM      7  C   UNL     1     112.056 124.265 136.503  0.00  0.00    +0.000 A 
ATOM      8  C   UNL     1     113.416 125.133 136.848  0.00  0.00    +0.000 A 
ATOM      9  C   UNL     1     112.730 123.882 136.785  0.00  0.00    +0.000 A 
ATOM     10  C   UNL     1     113.410 124.316 136.957  0.00  0.00    +0.000 A 
ATOM     11  C   UNL     1     114.130 125.574 137.031  0.00  0.00    +0.000 A 
ATOM     12  C   UNL     1     113.440 126.825 136.626  0.00  0.00    +0.000 A 
ATOM     13  C   UNL     1     114.142 126.426 136.919  0.00  0.00    +0.000 A 
ENDROOT
BRANCH   5  19
ATOM     14  O   UNL     1     111.315 125.633 135.308  0.00  0.00    +0.000 OA
ATOM     15  O   UNL     1     110.860 125.513 137.439  0.00  0.00    +0.000 OA
ATOM     16  O   UNL     1     109.513 126.279 136.875  0.00  0.00    +0.000 OA
ATOM     17  O   UNL     1     109.366 126.616 135.266  0.00  0.00    +0.000 OA
ATOM     18  C   UNL     1     110.787 125.681 136.634  0.00  0.00    +0.000 C 
ATOM     19  C   UNL     1     111.388 125.465 136.112  0.00  0.00    +0.000 C 
ATOM     20  C   UNL     1     110.113 126.064 136.352  0.00  0.00    +0.000 C 
ATOM     21  C   UNL     1     110.040 126.232 135.548  0.00  0.00    +0.000 C 
ATOM     22  C   UNL     1     110.641 126.017 135.026  0.00  0.00    +0.000 C 
ENDBRANCH   5  19
BRANCH  12  24
ATOM     23  O   UNL     1     113.453 130.096 136.184  0.00  0.00    +0.000 OA
ATOM     24  C   UNL     1     113.444 127.643 136.515  0.00  0.00    +0.000 A 
ATOM     25  C   UNL     1     113.721 127.963 135.808  0.00  0.00    +0.000 A 
ATOM     26  C   UNL     1     113.169 128.141 137.113  0.00  0.00    +0.000 A 
ATOM     27  C   UNL     1     113.725 128.780 135.697  0.00  0.00    +0.000 A 
ATOM     28  C   UNL     1     113.172 128.959 137.003  0.00  0.00    +0.000 A 
ATOM     29  C   UNL     1     113.450 129.278 136.295  0.00  0.00    +0.000 A 
ENDBRANCH  12  24
TORSDOF 2
ENDMDL
MODEL 2
REMARK VINA RESULT:      -9.8     11.752     13.271
REMARK  Name = 74977436
REMARK  2 active torsions:
REMARK  status: ('A' for Active; 'I' for Inactive)
REMARK    1  A    between atoms: C_11  and  C_15
REMARK    2  A    between atoms: C_22  and  C_24
REMARK                            x       y       z     vdW  Elec       q    Type
REMARK                         _______ _______ _______ _____ _____    ______ ____
ROOT
ATOM      1  O   UNL     1     105.027 125.070 147.327  0.00  0.00    +0.000 OA
ATOM      2  O   UNL     1     107.740 125.751 146.640  0.00  0.00    +0.000 OA
ATOM      3  O   UNL     1     107.182 124.625 149.207  0.00  0.00    +0.000 OA
ATOM      4  O   UNL     1     105.837 124.271 149.589  0.00  0.00    +0.000 OA
ATOM      5  C   UNL     1     106.399 125.409 146.993  0.00  0.00    +0.000 A 
ATOM      6  C   UNL     1     105.859 125.107 147.539  0.00  0.00    +0.000 A 
ATOM      7  C   UNL     1     107.200 125.449 147.186  0.00  0.00    +0.000 A 
ATOM      8  C   UNL     1     106.120 124.846 148.277  0.00  0.00    +0.000 A 
ATOM      9  C   UNL     1     107.461 125.188 147.924  0.00  0.00    +0.000 A 
ATOM     10  C   UNL     1     106.921 124.886 148.469  0.00  0.00    +0.000 A 
ATOM     11  C   UNL     1     105.567 124.529 148.854  0.00  0.00    +0.000 A 
ATOM     12  C   UNL     1     104.459 124.757 147.891  0.00  0.00    +0.000 A 
ATOM     13  C   UNL     1     104.731 124.485 148.659  0.00  0.00    +0.000 A 
ENDROOT
BRANCH   5  19
ATOM     14  O   UNL     1     105.814 126.424 146.176  0.00  0.00    +0.000 OA
ATOM     15  O   UNL     1     106.525 124.421 145.678  0.00  0.00    +0.000 OA
ATOM     16  O   UNL     1     106.003 124.943 144.202  0.00  0.00    +0.000 OA
ATOM     17  O   UNL     1     105.355 126.453 144.042  0.00  0.00    +0.000 OA
ATOM     18  C   UNL     1     106.201 125.176 145.598  0.00  0.00    +0.000 C 
ATOM     19  C   UNL     1     106.138 125.669 146.256  0.00  0.00    +0.000 C 
ATOM     20  C   UNL     1     105.940 125.437 144.860  0.00  0.00    +0.000 C 
ATOM     21  C   UNL     1     105.616 126.192 144.780  0.00  0.00    +0.000 C 
ATOM     22  C   UNL     1     105.553 126.685 145.438  0.00  0.00    +0.000 C 
ENDBRANCH   5  19
BRANCH  12  24
ATOM     23  O   UNL     1     101.256 124.599 147.112  0.00  0.00    +0.000 OA
ATOM     24  C   UNL     1     103.659 124.717 147.696  0.00  0.00    +0.000 A 
ATOM     25  C   UNL     1     103.373 124.086 147.249  0.00  0.00    +0.000 A 
ATOM     26  C   UNL     1     103.143 125.309 147.949  0.00  0.00    +0.000 A 
ATOM     27  C   UNL     1     102.572 124.047 147.054  0.00  0.00    +0.000 A 
ATOM     28  C   UNL     1     102.342 125.271 147.755  0.00  0.00    +0.000 A 
ATOM     29  C   UNL     1     102.057 124.639 147.307  0.00  0.00    +0.000 A 
ENDBRANCH  12  24
TORSDOF 2
ENDMDL
MODEL 3
REMARK VINA RESULT:      -9.6      0.932      3.371
REMARK  Name = 74977436
REMARK  2 active torsions:
REMARK  status: ('A' for Active; 'I' for Inactive)
REMARK    1  A    between atoms: C_11  and  C_15
REMARK    2  A    between atoms: C_22  and  C_24
REMARK                            x       y       z     vdW  Elec       q    Type
REMARK                         _______ _______ _______ _____ _____    ______ ____
ROOT
ATOM      1  O   UNL     1     111.889 125.982 136.501  0.00  0.00    +0.000 OA
ATOM      2  O   UNL     1     114.673 125.928 137.242  0.00  0.00    +0.000 OA
ATOM      3  O   UNL     1     113.267 123.465 136.881  0.00  0.00    +0.000 OA
ATOM      4  O   UNL     1     111.874 123.450 136.511  0.00  0.00    +0.000 OA
ATOM      5  C   UNL     1     113.292 125.941 136.875  0.00  0.00    +0.000 A 
ATOM      6  C   UNL     1     112.598 125.534 136.692  0.00  0.00    +0.000 A 
ATOM      7  C   UNL     1     113.978 125.521 137.059  0.00  0.00    +0.000 A 
ATOM      8  C   UNL     1     112.590 124.709 136.694  0.00  0.00    +0.000 A 
ATOM      9  C   UNL     1     113.970 124.697 137.061  0.00  0.00    +0.000 A 
ATOM     10  C   UNL     1     113.276 124.291 136.879  0.00  0.00    +0.000 A 
ATOM     11  C   UNL     1     111.872 124.275 136.506  0.00  0.00    +0.000 A 
ATOM     12  C   UNL     1     111.163 125.564 136.310  0.00  0.00    +0.000 A 
ATOM     13  C   UNL     1     111.154 124.706 136.313  0.00  0.00    +0.000 A 
ENDROOT
BRANCH   5  19
ATOM     14  O   UNL     1     113.402 127.175 136.164  0.00  0.00    +0.000 OA
ATOM     15  O   UNL     1     113.105 126.771 138.288  0.00  0.00    +0.000 OA
ATOM     16  O   UNL     1     113.121 128.421 138.283  0.00  0.00    +0.000 OA
ATOM     17  O   UNL     1     113.325 129.241 136.865  0.00  0.00    +0.000 OA
ATOM     18  C   UNL     1     113.207 127.181 137.578  0.00  0.00    +0.000 C 
ATOM     19  C   UNL     1     113.300 126.765 136.872  0.00  0.00    +0.000 C 
ATOM     20  C   UNL     1     113.215 128.006 137.576  0.00  0.00    +0.000 C 
ATOM     21  C   UNL     1     113.317 128.415 136.868  0.00  0.00    +0.000 C 
ATOM     22  C   UNL     1     113.410 128.000 136.162  0.00  0.00    +0.000 C 
ENDBRANCH   5  19
BRANCH  12  24
ATOM     23  O   UNL     1     108.423 127.250 135.573  0.00  0.00    +0.000 OA
ATOM     24  C   UNL     1     110.478 125.986 136.126  0.00  0.00    +0.000 A 
ATOM     25  C   UNL     1     110.273 126.116 135.338  0.00  0.00    +0.000 A 
ATOM     26  C   UNL     1     109.998 126.278 136.730  0.00  0.00    +0.000 A 
ATOM     27  C   UNL     1     109.588 126.537 135.154  0.00  0.00    +0.000 A 
ATOM     28  C   UNL     1     109.313 126.699 136.546  0.00  0.00    +0.000 A 
ATOM     29  C   UNL     1     109.108 126.829 135.758  0.00  0.00    +0.000 A 
ENDBRANCH  12  24
TORSDOF 2
ENDMDL
MODEL 4
REMARK VINA RESULT:      -9.5      1.345      3.751
REMARK  Name = 74977436
REMARK  2 active torsions:
REMARK  status: ('A' for Active; 'I' for Inactive)
REMARK    1  A    between atoms: C_11  and  C_15
REMARK    2  A    between atoms: C_22  and  C_24
REMARK                            x       y       z     vdW  Elec       q    Type
REMARK                         _______ _______ _______ _____ _____    ______ ____
ROOT
ATOM      1  O   UNL     1     112.101 126.827 136.078  0.00  0.00    +0.000 OA
ATOM      2  O   UNL     1     110.469 128.696 134.614  0.00  0.00    +0.000 OA
ATOM      3  O   UNL     1     109.735 125.934 134.669  0.00  0.00    +0.000 OA
ATOM      4  O   UNL     1     110.526 124.967 135.391  0.00  0.00    +0.000 OA
ATOM      5  C   UNL     1     111.270 127.759 135.336  0.00  0.00    +0.000 A 
ATOM      6  C   UNL     1     111.414 126.986 135.586  0.00  0.00    +0.000 A 
ATOM      7  C   UNL     1     110.614 127.923 134.864  0.00  0.00    +0.000 A 
ATOM      8  C   UNL     1     110.903 126.378 135.364  0.00  0.00    +0.000 A 
ATOM      9  C   UNL     1     110.102 127.315 134.642  0.00  0.00    +0.000 A 
ATOM     10  C   UNL     1     110.247 126.543 134.892  0.00  0.00    +0.000 A 
ATOM     11  C   UNL     1     111.043 125.569 135.619  0.00  0.00    +0.000 A 
ATOM     12  C   UNL     1     112.256 126.025 136.342  0.00  0.00    +0.000 A 
ATOM     13  C   UNL     1     111.724 125.391 136.111  0.00  0.00    +0.000 A 
ENDROOT
BRANCH   5  19
ATOM     14  O   UNL     1     112.476 128.497 135.134  0.00  0.00    +0.000 OA
ATOM     15  O   UNL     1     110.901 128.714 136.630  0.00  0.00    +0.000 OA
ATOM     16  O   UNL     1     111.923 129.930 137.074  0.00  0.00    +0.000 OA
ATOM     17  O   UNL     1     113.315 130.192 136.225  0.00  0.00    +0.000 OA
ATOM     18  C   UNL     1     111.597 128.845 136.205  0.00  0.00    +0.000 C 
ATOM     19  C   UNL     1     111.780 128.366 135.558  0.00  0.00    +0.000 C 
ATOM     20  C   UNL     1     112.108 129.453 136.427  0.00  0.00    +0.000 C 
ATOM     21  C   UNL     1     112.803 129.583 136.003  0.00  0.00    +0.000 C 
ATOM     22  C   UNL     1     112.987 129.105 135.357  0.00  0.00    +0.000 C 
ENDBRANCH   5  19
BRANCH  12  24
ATOM     23  O   UNL     1     114.883 125.378 138.233  0.00  0.00    +0.000 OA
ATOM     24  C   UNL     1     112.913 125.863 136.815  0.00  0.00    +0.000 A 
ATOM     25  C   UNL     1     113.618 125.610 136.469  0.00  0.00    +0.000 A 
ATOM     26  C   UNL     1     112.865 125.954 137.633  0.00  0.00    +0.000 A 
ATOM     27  C   UNL     1     114.275 125.449 136.942  0.00  0.00    +0.000 A 
ATOM     28  C   UNL     1     113.521 125.792 138.107  0.00  0.00    +0.000 A 
ATOM     29  C   UNL     1     114.226 125.540 137.761  0.00  0.00    +0.000 A 
ENDBRANCH  12  24
TORSDOF 2
ENDMDL
MODEL 5
REMARK VINA RESULT:      -9.5      2.077      2.565
REMARK  Name = 74977436
REMARK  2 active torsions:
REMARK  status: ('A' for Active; 'I' for Inactive)
REMARK    1  A    between atoms: C_11  and  C_15
REMARK    2  A    between atoms: C_22  and  C_24
REMARK                            x       y       z     vdW  Elec       q    Type
REMARK                         _______ _______ _______ _____ _____    ______ ____
ROOT
ATOM      1  O   UNL     1     112.681 126.090 138.527  0.00  0.00    +0.000 OA
ATOM      2  O   UNL     1     111.167 124.397 136.754  0.00  0.00    +0.000 OA
ATOM      3  O   UNL     1     114.023 124.277 136.713  0.00  0.00    +0.000 OA
ATOM      4  O   UNL     1     114.816 125.108 137.585  0.00  0.00    +0.000 OA
ATOM      5  C   UNL     1     111.930 125.231 137.629  0.00  0.00    +0.000 A 
ATOM      6  C   UNL     1     112.660 125.489 137.913  0.00  0.00    +0.000 A 
ATOM      7  C   UNL     1     111.898 124.655 137.039  0.00  0.00    +0.000 A 
ATOM      8  C   UNL     1     113.357 125.171 137.608  0.00  0.00    +0.000 A 
ATOM      9  C   UNL     1     112.595 124.337 136.734  0.00  0.00    +0.000 A 
ATOM     10  C   UNL     1     113.325 124.595 137.019  0.00  0.00    +0.000 A 
ATOM     11  C   UNL     1     114.124 125.432 137.896  0.00  0.00    +0.000 A 
ATOM     12  C   UNL     1     113.438 126.363 138.827  0.00  0.00    +0.000 A 
ATOM     13  C   UNL     1     114.164 126.031 138.510  0.00  0.00    +0.000 A 
ENDROOT
BRANCH   5  19
ATOM     14  O   UNL     1     110.928 125.267 138.646  0.00  0.00    +0.000 OA
ATOM     15  O   UNL     1     111.146 126.432 136.813  0.00  0.00    +0.000 OA
ATOM     16  O   UNL     1     109.751 127.068 137.423  0.00  0.00    +0.000 OA
ATOM     17  O   UNL     1     109.140 126.504 138.848  0.00  0.00    +0.000 OA
ATOM     18  C   UNL     1     110.840 126.149 137.526  0.00  0.00    +0.000 C 
ATOM     19  C   UNL     1     111.233 125.549 137.933  0.00  0.00    +0.000 C 
ATOM     20  C   UNL     1     110.143 126.467 137.831  0.00  0.00    +0.000 C 
ATOM     21  C   UNL     1     109.838 126.185 138.543  0.00  0.00    +0.000 C 
ATOM     22  C   UNL     1     110.230 125.585 138.951  0.00  0.00    +0.000 C 
ENDBRANCH   5  19
BRANCH  12  24
ATOM     23  O   UNL     1     113.557 128.667 141.187  0.00  0.00    +0.000 OA
ATOM     24  C   UNL     1     113.468 126.939 139.417  0.00  0.00    +0.000 A 
ATOM     25  C   UNL     1     113.415 127.737 139.217  0.00  0.00    +0.000 A 
ATOM     26  C   UNL     1     113.551 126.717 140.207  0.00  0.00    +0.000 A 
ATOM     27  C   UNL     1     113.444 128.313 139.807  0.00  0.00    +0.000 A 
ATOM     28  C   UNL     1     113.581 127.293 140.798  0.00  0.00    +0.000 A 
ATOM     29  C   UNL     1     113.527 128.091 140.597  0.00  0.00    +0.000 A 
ENDBRANCH  12  24
TORSDOF 2
ENDMDL
MODEL 6
REMARK VINA RESULT:      -9.5      1.028      3.064
REMARK  Name = 74977436
REMARK  2 active torsions:
REMARK  status: ('A' for Active; 'I' for Inactive)
REMARK    1  A    between atoms: C_11  and  C_15
REMARK    2  A    between atoms: C_22  and  C_24
REMARK                            x       y       z     vdW  Elec       q    Type
REMARK                         _______ _______ _______ _____ _____    ______ ____
ROOT
ATOM      1  O   UNL     1     112.437 126.899 136.300  0.00  0.00    +0.000 OA
ATOM      2  O   UNL     1     112.009 124.116 136.911  0.00  0.00    +0.000 OA
ATOM      3  O   UNL     1     110.196 125.465 135.159  0.00  0.00    +0.000 OA
ATOM      4  O   UNL     1     110.377 126.857 134.829  0.00  0.00    +0.000 OA
ATOM      5  C   UNL     1     112.210 125.496 136.600  0.00  0.00    +0.000 A 
ATOM      6  C   UNL     1     111.975 126.180 136.204  0.00  0.00    +0.000 A 
ATOM      7  C   UNL     1     111.773 124.801 136.515  0.00  0.00    +0.000 A 
ATOM      8  C   UNL     1     111.304 126.170 135.724  0.00  0.00    +0.000 A 
ATOM      9  C   UNL     1     111.103 124.791 136.035  0.00  0.00    +0.000 A 
ATOM     10  C   UNL     1     110.868 125.475 135.640  0.00  0.00    +0.000 A 
ATOM     11  C   UNL     1     111.049 126.877 135.307  0.00  0.00    +0.000 A 
ATOM     12  C   UNL     1     112.198 127.615 135.891  0.00  0.00    +0.000 A 
ATOM     13  C   UNL     1     111.499 127.604 135.391  0.00  0.00    +0.000 A 
ENDROOT
BRANCH   5  19
ATOM     14  O   UNL     1     112.834 125.804 137.847  0.00  0.00    +0.000 OA
ATOM     15  O   UNL     1     113.644 124.921 136.023  0.00  0.00    +0.000 OA
ATOM     16  O   UNL     1     114.986 124.942 136.984  0.00  0.00    +0.000 OA
ATOM     17  O   UNL     1     114.893 125.537 138.520  0.00  0.00    +0.000 OA
ATOM     18  C   UNL     1     113.598 125.219 136.792  0.00  0.00    +0.000 C 
ATOM     19  C   UNL     1     112.880 125.506 137.079  0.00  0.00    +0.000 C 
ATOM     20  C   UNL     1     114.269 125.229 137.272  0.00  0.00    +0.000 C 
ATOM     21  C   UNL     1     114.222 125.527 138.039  0.00  0.00    +0.000 C 
ATOM     22  C   UNL     1     113.504 125.814 138.327  0.00  0.00    +0.000 C 
ENDBRANCH   5  19
BRANCH  12  24
ATOM     23  O   UNL     1     113.949 130.391 136.237  0.00  0.00    +0.000 OA
ATOM     24  C   UNL     1     112.635 128.309 135.977  0.00  0.00    +0.000 A 
ATOM     25  C   UNL     1     113.292 128.445 135.497  0.00  0.00    +0.000 A 
ATOM     26  C   UNL     1     112.417 128.866 136.545  0.00  0.00    +0.000 A 
ATOM     27  C   UNL     1     113.730 129.139 135.584  0.00  0.00    +0.000 A 
ATOM     28  C   UNL     1     112.854 129.561 136.632  0.00  0.00    +0.000 A 
ATOM     29  C   UNL     1     113.511 129.697 136.151  0.00  0.00    +0.000 A 
ENDBRANCH  12  24
TORSDOF 2
ENDMDL
MODEL 7
REMARK VINA RESULT:      -9.3     12.129     13.587
REMARK  Name = 74977436
REMARK  2 active torsions:
REMARK  status: ('A' for Active; 'I' for Inactive)
REMARK    1  A    between atoms: C_11  and  C_15
REMARK    2  A    between atoms: C_22  and  C_24
REMARK                            x       y       z     vdW  Elec       q    Type
REMARK                         _______ _______ _______ _____ _____    ______ ____
ROOT
ATOM      1  O   UNL     1     104.205 125.722 147.287  0.00  0.00    +0.000 OA
ATOM      2  O   UNL     1     104.468 123.576 145.382  0.00  0.00    +0.000 OA
ATOM      3  O   UNL     1     102.386 123.472 147.338  0.00  0.00    +0.000 OA
ATOM      4  O   UNL     1     102.221 124.526 148.308  0.00  0.00    +0.000 OA
ATOM      5  C   UNL     1     104.327 124.634 146.332  0.00  0.00    +0.000 A 
ATOM      6  C   UNL     1     103.932 124.969 146.975  0.00  0.00    +0.000 A 
ATOM      7  C   UNL     1     104.074 123.912 146.025  0.00  0.00    +0.000 A 
ATOM      8  C   UNL     1     103.286 124.581 147.310  0.00  0.00    +0.000 A 
ATOM      9  C   UNL     1     103.427 123.524 146.360  0.00  0.00    +0.000 A 
ATOM     10  C   UNL     1     103.033 123.859 147.003  0.00  0.00    +0.000 A 
ATOM     11  C   UNL     1     102.867 124.921 147.980  0.00  0.00    +0.000 A 
ATOM     12  C   UNL     1     103.799 126.076 147.956  0.00  0.00    +0.000 A 
ATOM     13  C   UNL     1     103.126 125.673 148.305  0.00  0.00    +0.000 A 
ENDROOT
BRANCH   5  19
ATOM     14  O   UNL     1     104.854 125.613 145.436  0.00  0.00    +0.000 OA
ATOM     15  O   UNL     1     105.859 124.224 146.786  0.00  0.00    +0.000 OA
ATOM     16  O   UNL     1     107.152 124.999 146.116  0.00  0.00    +0.000 OA
ATOM     17  O   UNL     1     106.914 126.184 144.992  0.00  0.00    +0.000 OA
ATOM     18  C   UNL     1     105.739 124.817 146.224  0.00  0.00    +0.000 C 
ATOM     19  C   UNL     1     104.973 125.021 145.998  0.00  0.00    +0.000 C 
ATOM     20  C   UNL     1     106.386 125.204 145.889  0.00  0.00    +0.000 C 
ATOM     21  C   UNL     1     106.266 125.796 145.328  0.00  0.00    +0.000 C 
ATOM     22  C   UNL     1     105.500 126.001 145.101  0.00  0.00    +0.000 C 
ENDBRANCH   5  19
BRANCH  12  24
ATOM     23  O   UNL     1     104.819 128.967 149.179  0.00  0.00    +0.000 OA
ATOM     24  C   UNL     1     104.054 126.799 148.261  0.00  0.00    +0.000 A 
ATOM     25  C   UNL     1     103.700 127.500 148.012  0.00  0.00    +0.000 A 
ATOM     26  C   UNL     1     104.663 126.820 148.817  0.00  0.00    +0.000 A 
ATOM     27  C   UNL     1     103.955 128.223 148.317  0.00  0.00    +0.000 A 
ATOM     28  C   UNL     1     104.919 127.542 149.123  0.00  0.00    +0.000 A 
ATOM     29  C   UNL     1     104.564 128.244 148.873  0.00  0.00    +0.000 A 
ENDBRANCH  12  24
TORSDOF 2
ENDMDL
MODEL 8
REMARK VINA RESULT:      -9.3      1.770      3.288
REMARK  Name = 74977436
REMARK  2 active torsions:
REMARK  status: ('A' for Active; 'I' for Inactive)
REMARK    1  A    between atoms: C_11  and  C_15
REMARK    2  A    between atoms: C_22  and  C_24
REMARK                            x       y       z     vdW  Elec       q    Type
REMARK                         _______ _______ _______ _____ _____    ______ ____
ROOT
ATOM      1  O   UNL     1     112.241 126.091 137.152  0.00  0.00    +0.000 OA
ATOM      2  O   UNL     1     113.799 126.680 139.502  0.00  0.00    +0.000 OA
ATOM      3  O   UNL     1     114.864 124.923 137.515  0.00  0.00    +0.000 OA
ATOM      4  O   UNL     1     114.115 124.603 136.325  0.00  0.00    +0.000 OA
ATOM      5  C   UNL     1     113.036 126.380 138.332  0.00  0.00    +0.000 A 
ATOM      6  C   UNL     1     112.960 125.986 137.611  0.00  0.00    +0.000 A 
ATOM      7  C   UNL     1     113.722 126.287 138.781  0.00  0.00    +0.000 A 
ATOM      8  C   UNL     1     113.569 125.501 137.339  0.00  0.00    +0.000 A 
ATOM      9  C   UNL     1     114.331 125.801 138.508  0.00  0.00    +0.000 A 
ATOM     10  C   UNL     1     114.254 125.409 137.788  0.00  0.00    +0.000 A 
ATOM     11  C   UNL     1     113.501 125.086 136.589  0.00  0.00    +0.000 A 
ATOM     12  C   UNL     1     112.155 125.684 136.400  0.00  0.00    +0.000 A 
ATOM     13  C   UNL     1     112.789 125.179 136.117  0.00  0.00    +0.000 A 
ENDROOT
BRANCH   5  19
ATOM     14  O   UNL     1     112.377 127.646 138.346  0.00  0.00    +0.000 OA
ATOM     15  O   UNL     1     111.921 125.786 139.392  0.00  0.00    +0.000 OA
ATOM     16  O   UNL     1     110.703 126.757 139.936  0.00  0.00    +0.000 OA
ATOM     17  O   UNL     1     110.600 128.322 139.421  0.00  0.00    +0.000 OA
ATOM     18  C   UNL     1     111.870 126.569 139.134  0.00  0.00    +0.000 C 
ATOM     19  C   UNL     1     112.428 126.865 138.604  0.00  0.00    +0.000 C 
ATOM     20  C   UNL     1     111.261 127.054 139.406  0.00  0.00    +0.000 C 
ATOM     21  C   UNL     1     111.210 127.836 139.148  0.00  0.00    +0.000 C 
ATOM     22  C   UNL     1     111.768 128.132 138.618  0.00  0.00    +0.000 C 
ENDBRANCH   5  19
BRANCH  12  24
ATOM     23  O   UNL     1     109.407 126.060 134.612  0.00  0.00    +0.000 OA
ATOM     24  C   UNL     1     111.468 125.778 135.953  0.00  0.00    +0.000 A 
ATOM     25  C   UNL     1     111.391 126.423 135.445  0.00  0.00    +0.000 A 
ATOM     26  C   UNL     1     110.857 125.227 136.014  0.00  0.00    +0.000 A 
ATOM     27  C   UNL     1     110.704 126.517 134.998  0.00  0.00    +0.000 A 
ATOM     28  C   UNL     1     110.170 125.320 135.567  0.00  0.00    +0.000 A 
ATOM     29  C   UNL     1     110.094 125.966 135.059  0.00  0.00    +0.000 A 
ENDBRANCH  12  24
TORSDOF 2
ENDMDL
MODEL 9
REMARK VINA RESULT:      -9.3      2.109      5.187
REMARK  Name = 74977436
REMARK  2 active torsions:
REMARK  status: ('A' for Active; 'I' for Inactive)
REMARK    1  A    between atoms: C_11  and  C_15
REMARK    2  A    between atoms: C_22  and  C_24
REMARK                            x       y       z     vdW  Elec       q    Type
REMARK                         _______ _______ _______ _____ _____    ______ ____
ROOT
ATOM      1  O   UNL     1     110.397 127.973 135.711  0.00  0.00    +0.000 OA
ATOM      2  O   UNL     1     110.578 130.839 135.484  0.00  0.00    +0.000 OA
ATOM      3  O   UNL     1     108.009 129.609 135.717  0.00  0.00    +0.000 OA
ATOM      4  O   UNL     1     107.876 128.177 135.833  0.00  0.00    +0.000 OA
ATOM      5  C   UNL     1     110.474 129.419 135.597  0.00  0.00    +0.000 A 
ATOM      6  C   UNL     1     110.011 128.740 135.674  0.00  0.00    +0.000 A 
ATOM      7  C   UNL     1     110.115 130.160 135.560  0.00  0.00    +0.000 A 
ATOM      8  C   UNL     1     109.190 128.804 135.714  0.00  0.00    +0.000 A 
ATOM      9  C   UNL     1     109.293 130.223 135.600  0.00  0.00    +0.000 A 
ATOM     10  C   UNL     1     108.831 129.545 135.677  0.00  0.00    +0.000 A 
ATOM     11  C   UNL     1     108.697 128.104 135.794  0.00  0.00    +0.000 A 
ATOM     12  C   UNL     1     109.920 127.263 135.791  0.00  0.00    +0.000 A 
ATOM     13  C   UNL     1     109.065 127.329 135.833  0.00  0.00    +0.000 A 
ENDROOT
BRANCH   5  19
ATOM     14  O   UNL     1     111.661 129.180 134.840  0.00  0.00    +0.000 OA
ATOM     15  O   UNL     1     111.385 129.642 136.954  0.00  0.00    +0.000 OA
ATOM     16  O   UNL     1     113.028 129.516 136.875  0.00  0.00    +0.000 OA
ATOM     17  O   UNL     1     113.761 129.165 135.438  0.00  0.00    +0.000 OA
ATOM     18  C   UNL     1     111.751 129.467 136.236  0.00  0.00    +0.000 C 
ATOM     19  C   UNL     1     111.295 129.355 135.557  0.00  0.00    +0.000 C 
ATOM     20  C   UNL     1     112.573 129.404 136.196  0.00  0.00    +0.000 C 
ATOM     21  C   UNL     1     112.938 129.229 135.478  0.00  0.00    +0.000 C 
ATOM     22  C   UNL     1     112.483 129.117 134.800  0.00  0.00    +0.000 C 
ENDBRANCH   5  19
BRANCH  12  24
ATOM     23  O   UNL     1     111.366 124.300 135.939  0.00  0.00    +0.000 OA
ATOM     24  C   UNL     1     110.281 126.522 135.828  0.00  0.00    +0.000 A 
ATOM     25  C   UNL     1     110.378 126.075 135.142  0.00  0.00    +0.000 A 
ATOM     26  C   UNL     1     110.546 126.228 136.552  0.00  0.00    +0.000 A 
ATOM     27  C   UNL     1     110.739 125.334 135.178  0.00  0.00    +0.000 A 
ATOM     28  C   UNL     1     110.908 125.487 136.589  0.00  0.00    +0.000 A 
ATOM     29  C   UNL     1     111.004 125.040 135.902  0.00  0.00    +0.000 A 
ENDBRANCH  12  24
TORSDOF 2
ENDMDL
MODEL 10
REMARK VINA RESULT:      -9.2      1.703      3.776
REMARK  Name = 74977436
REMARK  2 active torsions:
REMARK  status: ('A' for Active; 'I' for Inactive)
REMARK    1  A    between atoms: C_11  and  C_15
REMARK    2  A    between atoms: C_22  and  C_24
REMARK                            x       y       z     vdW  Elec       q    Type
REMARK                         _______ _______ _______ _____ _____    ______ ____
ROOT
ATOM      1  O   UNL     1     111.697 125.980 137.253  0.00  0.00    +0.000 OA
ATOM      2  O   UNL     1     109.254 127.243 138.112  0.00  0.00    +0.000 OA
ATOM      3  O   UNL     1     109.407 126.118 135.489  0.00  0.00    +0.000 OA
ATOM      4  O   UNL     1     110.611 125.477 135.022  0.00  0.00    +0.000 OA
ATOM      5  C   UNL     1     110.460 126.614 137.674  0.00  0.00    +0.000 A 
ATOM      6  C   UNL     1     110.887 126.216 137.090  0.00  0.00    +0.000 A 
ATOM      7  C   UNL     1     109.682 126.845 137.528  0.00  0.00    +0.000 A 
ATOM      8  C   UNL     1     110.536 126.051 136.362  0.00  0.00    +0.000 A 
ATOM      9  C   UNL     1     109.331 126.680 136.800  0.00  0.00    +0.000 A 
ATOM     10  C   UNL     1     109.758 126.283 136.218  0.00  0.00    +0.000 A 
ATOM     11  C   UNL     1     110.971 125.638 135.747  0.00  0.00    +0.000 A 
ATOM     12  C   UNL     1     112.147 125.566 136.650  0.00  0.00    +0.000 A 
ATOM     13  C   UNL     1     111.782 125.394 135.892  0.00  0.00    +0.000 A 
ENDROOT
BRANCH   5  19
ATOM     14  O   UNL     1     111.286 127.447 138.488  0.00  0.00    +0.000 OA
ATOM     15  O   UNL     1     110.211 125.607 138.956  0.00  0.00    +0.000 OA
ATOM     16  O   UNL     1     110.912 125.937 140.413  0.00  0.00    +0.000 OA
ATOM     17  O   UNL     1     111.864 127.275 140.586  0.00  0.00    +0.000 OA
ATOM     18  C   UNL     1     110.686 126.276 139.043  0.00  0.00    +0.000 C 
ATOM     19  C   UNL     1     110.810 126.779 138.401  0.00  0.00    +0.000 C 
ATOM     20  C   UNL     1     111.037 126.441 139.771  0.00  0.00    +0.000 C 
ATOM     21  C   UNL     1     111.512 127.109 139.857  0.00  0.00    +0.000 C 
ATOM     22  C   UNL     1     111.637 127.612 139.216  0.00  0.00    +0.000 C 
ENDBRANCH   5  19
BRANCH  12  24
ATOM     23  O   UNL     1     115.260 124.641 137.241  0.00  0.00    +0.000 OA
ATOM     24  C   UNL     1     112.925 125.335 136.798  0.00  0.00    +0.000 A 
ATOM     25  C   UNL     1     113.546 125.854 136.644  0.00  0.00    +0.000 A 
ATOM     26  C   UNL     1     113.082 124.583 137.100  0.00  0.00    +0.000 A 
ATOM     27  C   UNL     1     114.325 125.623 136.791  0.00  0.00    +0.000 A 
ATOM     28  C   UNL     1     113.860 124.351 137.248  0.00  0.00    +0.000 A 
ATOM     29  C   UNL     1     114.481 124.872 137.093  0.00  0.00    +0.000 A 
ENDBRANCH  12  24
TORSDOF 2
ENDMDL
