MODEL 1
REMARK VINA RESULT:      -9.5      0.000      0.000
REMARK  Name = 44258603
REMARK  5 active torsions:
REMARK  status: ('A' for Active; 'I' for Inactive)
REMARK    1  A    between atoms: O_2  and  C_17
REMARK    2  A    between atoms: O_2  and  C_19
REMARK    3  A    between atoms: O_11  and  C_33
REMARK    4  A    between atoms: C_16  and  C_18
REMARK    5  A    between atoms: C_26  and  C_28
REMARK                            x       y       z     vdW  Elec       q    Type
REMARK                         _______ _______ _______ _____ _____    ______ ____
ROOT
ATOM      1  O   UNL     1     112.765 126.431 136.456  0.00  0.00    +0.000 OA
ATOM      2  O   UNL     1     111.237 123.988 136.414  0.00  0.00    +0.000 OA
ATOM      3  O   UNL     1     114.017 123.895 137.075  0.00  0.00    +0.000 OA
ATOM      4  O   UNL     1     114.817 125.097 137.107  0.00  0.00    +0.000 OA
ATOM      5  C   UNL     1     112.006 125.193 136.438  0.00  0.00    +0.000 A 
ATOM      6  C   UNL     1     112.727 125.579 136.557  0.00  0.00    +0.000 A 
ATOM      7  C   UNL     1     111.958 124.375 136.532  0.00  0.00    +0.000 A 
ATOM      8  C   UNL     1     113.397 125.146 136.769  0.00  0.00    +0.000 A 
ATOM      9  C   UNL     1     112.628 123.942 136.744  0.00  0.00    +0.000 A 
ATOM     10  C   UNL     1     113.346 124.328 136.862  0.00  0.00    +0.000 A 
ATOM     11  C   UNL     1     114.151 125.536 136.895  0.00  0.00    +0.000 A 
ATOM     12  C   UNL     1     113.512 126.839 136.578  0.00  0.00    +0.000 A 
ATOM     13  C   UNL     1     114.210 126.389 136.799  0.00  0.00    +0.000 A 
ENDROOT
BRANCH  12  15
ATOM     14  O   UNL     1     113.994 129.115 134.917  0.00  0.00    +0.000 OA
ATOM     15  C   UNL     1     113.559 127.657 136.484  0.00  0.00    +0.000 A 
ATOM     16  C   UNL     1     113.753 127.977 135.748  0.00  0.00    +0.000 A 
ATOM     17  C   UNL     1     113.412 128.156 137.124  0.00  0.00    +0.000 A 
ATOM     18  C   UNL     1     113.800 128.795 135.653  0.00  0.00    +0.000 A 
ATOM     19  C   UNL     1     113.458 128.974 137.029  0.00  0.00    +0.000 A 
ATOM     20  C   UNL     1     113.653 129.294 136.294  0.00  0.00    +0.000 A 
BRANCH  20  21
ATOM     21  O   UNL     1     113.699 130.111 136.199  0.00  0.00    +0.000 OA
ATOM     22  C   UNL     1     113.634 130.607 136.856  0.00  0.00    +0.000 C 
ENDBRANCH  20  21
ENDBRANCH  12  15
BRANCH   5  23
ATOM     23  O   UNL     1     111.337 125.624 136.227  0.00  0.00    +0.000 OA
BRANCH  23  32
ATOM     24  O   UNL     1     110.939 125.682 137.598  0.00  0.00    +0.000 OA
ATOM     25  O   UNL     1     108.880 126.893 136.950  0.00  0.00    +0.000 OA
ATOM     26  O   UNL     1     109.169 126.546 138.536  0.00  0.00    +0.000 OA
ATOM     27  O   UNL     1     109.965 126.432 135.795  0.00  0.00    +0.000 OA
ATOM     28  C   UNL     1     109.567 126.489 137.166  0.00  0.00    +0.000 C 
ATOM     29  C   UNL     1     109.711 126.316 137.959  0.00  0.00    +0.000 C 
ATOM     30  C   UNL     1     110.109 126.259 136.588  0.00  0.00    +0.000 C 
ATOM     31  C   UNL     1     110.397 125.912 138.175  0.00  0.00    +0.000 C 
ATOM     32  C   UNL     1     110.795 125.855 136.804  0.00  0.00    +0.000 C 
BRANCH  31  34
ATOM     33  O   UNL     1     111.184 126.085 139.355  0.00  0.00    +0.000 OA
ATOM     34  C   UNL     1     110.542 125.739 138.968  0.00  0.00    +0.000 C 
ENDBRANCH  31  34
ENDBRANCH  23  32
ENDBRANCH   5  23
TORSDOF 5
ENDMDL
MODEL 2
REMARK VINA RESULT:      -9.1      1.827      5.009
REMARK  Name = 44258603
REMARK  5 active torsions:
REMARK  status: ('A' for Active; 'I' for Inactive)
REMARK    1  A    between atoms: O_2  and  C_17
REMARK    2  A    between atoms: O_2  and  C_19
REMARK    3  A    between atoms: O_11  and  C_33
REMARK    4  A    between atoms: C_16  and  C_18
REMARK    5  A    between atoms: C_26  and  C_28
REMARK                            x       y       z     vdW  Elec       q    Type
REMARK                         _______ _______ _______ _____ _____    ______ ____
ROOT
ATOM      1  O   UNL     1     110.639 127.271 136.005  0.00  0.00    +0.000 OA
ATOM      2  O   UNL     1     110.559 129.931 134.900  0.00  0.00    +0.000 OA
ATOM      3  O   UNL     1     108.120 128.661 135.685  0.00  0.00    +0.000 OA
ATOM      4  O   UNL     1     108.119 127.330 136.242  0.00  0.00    +0.000 OA
ATOM      5  C   UNL     1     110.585 128.612 135.450  0.00  0.00    +0.000 A 
ATOM      6  C   UNL     1     110.187 127.960 135.764  0.00  0.00    +0.000 A 
ATOM      7  C   UNL     1     110.161 129.279 135.214  0.00  0.00    +0.000 A 
ATOM      8  C   UNL     1     109.366 127.977 135.842  0.00  0.00    +0.000 A 
ATOM      9  C   UNL     1     109.340 129.296 135.293  0.00  0.00    +0.000 A 
ATOM     10  C   UNL     1     108.943 128.645 135.606  0.00  0.00    +0.000 A 
ATOM     11  C   UNL     1     108.940 127.305 136.167  0.00  0.00    +0.000 A 
ATOM     12  C   UNL     1     110.231 126.589 136.333  0.00  0.00    +0.000 A 
ATOM     13  C   UNL     1     109.376 126.607 136.415  0.00  0.00    +0.000 A 
ENDROOT
BRANCH  12  15
ATOM     14  O   UNL     1     111.427 125.018 138.399  0.00  0.00    +0.000 OA
ATOM     15  C   UNL     1     110.657 125.923 136.567  0.00  0.00    +0.000 A 
ATOM     16  C   UNL     1     110.829 125.804 137.365  0.00  0.00    +0.000 A 
ATOM     17  C   UNL     1     110.911 125.376 136.005  0.00  0.00    +0.000 A 
ATOM     18  C   UNL     1     111.255 125.138 137.601  0.00  0.00    +0.000 A 
ATOM     19  C   UNL     1     111.337 124.710 136.240  0.00  0.00    +0.000 A 
ATOM     20  C   UNL     1     111.509 124.590 137.038  0.00  0.00    +0.000 A 
BRANCH  20  21
ATOM     21  O   UNL     1     111.935 123.925 137.272  0.00  0.00    +0.000 OA
ATOM     22  C   UNL     1     112.279 123.434 136.705  0.00  0.00    +0.000 C 
ENDBRANCH  20  21
ENDBRANCH  12  15
BRANCH   5  23
ATOM     23  O   UNL     1     111.405 128.596 135.371  0.00  0.00    +0.000 OA
BRANCH  23  32
ATOM     24  O   UNL     1     111.552 129.241 136.638  0.00  0.00    +0.000 OA
ATOM     25  O   UNL     1     113.964 129.573 136.188  0.00  0.00    +0.000 OA
ATOM     26  O   UNL     1     113.306 130.107 137.604  0.00  0.00    +0.000 OA
ATOM     27  O   UNL     1     113.012 128.818 135.071  0.00  0.00    +0.000 OA
ATOM     28  C   UNL     1     113.159 129.462 136.338  0.00  0.00    +0.000 C 
ATOM     29  C   UNL     1     112.832 129.729 137.046  0.00  0.00    +0.000 C 
ATOM     30  C   UNL     1     112.684 129.084 135.779  0.00  0.00    +0.000 C 
ATOM     31  C   UNL     1     112.028 129.618 137.196  0.00  0.00    +0.000 C 
ATOM     32  C   UNL     1     111.881 128.973 135.929  0.00  0.00    +0.000 C 
BRANCH  31  34
ATOM     33  O   UNL     1     111.420 129.341 138.459  0.00  0.00    +0.000 OA
ATOM     34  C   UNL     1     111.699 129.885 137.904  0.00  0.00    +0.000 C 
ENDBRANCH  31  34
ENDBRANCH  23  32
ENDBRANCH   5  23
TORSDOF 5
ENDMDL
MODEL 3
REMARK VINA RESULT:      -9.1      1.851      2.741
REMARK  Name = 44258603
REMARK  5 active torsions:
REMARK  status: ('A' for Active; 'I' for Inactive)
REMARK    1  A    between atoms: O_2  and  C_17
REMARK    2  A    between atoms: O_2  and  C_19
REMARK    3  A    between atoms: O_11  and  C_33
REMARK    4  A    between atoms: C_16  and  C_18
REMARK    5  A    between atoms: C_26  and  C_28
REMARK                            x       y       z     vdW  Elec       q    Type
REMARK                         _______ _______ _______ _____ _____    ______ ____
ROOT
ATOM      1  O   UNL     1     112.641 125.974 138.376  0.00  0.00    +0.000 OA
ATOM      2  O   UNL     1     111.260 124.228 136.547  0.00  0.00    +0.000 OA
ATOM      3  O   UNL     1     114.118 124.220 136.609  0.00  0.00    +0.000 OA
ATOM      4  O   UNL     1     114.846 125.080 137.511  0.00  0.00    +0.000 OA
ATOM      5  C   UNL     1     111.957 125.089 137.450  0.00  0.00    +0.000 A 
ATOM      6  C   UNL     1     112.666 125.375 137.761  0.00  0.00    +0.000 A 
ATOM      7  C   UNL     1     111.969 124.514 136.859  0.00  0.00    +0.000 A 
ATOM      8  C   UNL     1     113.386 125.085 137.481  0.00  0.00    +0.000 A 
ATOM      9  C   UNL     1     112.689 124.224 136.579  0.00  0.00    +0.000 A 
ATOM     10  C   UNL     1     113.397 124.510 136.890  0.00  0.00    +0.000 A 
ATOM     11  C   UNL     1     114.130 125.375 137.797  0.00  0.00    +0.000 A 
ATOM     12  C   UNL     1     113.376 126.276 138.704  0.00  0.00    +0.000 A 
ATOM     13  C   UNL     1     114.125 125.974 138.413  0.00  0.00    +0.000 A 
ENDROOT
BRANCH  12  15
ATOM     14  O   UNL     1     113.277 126.977 141.473  0.00  0.00    +0.000 OA
ATOM     15  C   UNL     1     113.361 126.851 139.295  0.00  0.00    +0.000 A 
ATOM     16  C   UNL     1     113.326 126.627 140.088  0.00  0.00    +0.000 A 
ATOM     17  C   UNL     1     113.382 127.651 139.094  0.00  0.00    +0.000 A 
ATOM     18  C   UNL     1     113.312 127.201 140.680  0.00  0.00    +0.000 A 
ATOM     19  C   UNL     1     113.368 128.226 139.685  0.00  0.00    +0.000 A 
ATOM     20  C   UNL     1     113.333 128.002 140.478  0.00  0.00    +0.000 A 
BRANCH  20  21
ATOM     21  O   UNL     1     113.318 128.576 141.069  0.00  0.00    +0.000 OA
ATOM     22  C   UNL     1     113.450 129.368 140.877  0.00  0.00    +0.000 C 
ENDBRANCH  20  21
ENDBRANCH  12  15
BRANCH   5  23
ATOM     23  O   UNL     1     111.238 125.378 137.729  0.00  0.00    +0.000 OA
BRANCH  23  32
ATOM     24  O   UNL     1     111.178 126.294 136.633  0.00  0.00    +0.000 OA
ATOM     25  O   UNL     1     108.959 127.073 137.404  0.00  0.00    +0.000 OA
ATOM     26  O   UNL     1     109.640 127.728 136.052  0.00  0.00    +0.000 OA
ATOM     27  O   UNL     1     109.758 125.898 138.243  0.00  0.00    +0.000 OA
ATOM     28  C   UNL     1     109.699 126.813 137.147  0.00  0.00    +0.000 C 
ATOM     29  C   UNL     1     110.039 127.141 136.471  0.00  0.00    +0.000 C 
ATOM     30  C   UNL     1     110.098 126.225 137.567  0.00  0.00    +0.000 C 
ATOM     31  C   UNL     1     110.779 126.881 136.214  0.00  0.00    +0.000 C 
ATOM     32  C   UNL     1     110.838 125.966 137.310  0.00  0.00    +0.000 C 
BRANCH  31  34
ATOM     33  O   UNL     1     111.788 127.688 135.605  0.00  0.00    +0.000 OA
ATOM     34  C   UNL     1     111.119 127.208 135.538  0.00  0.00    +0.000 C 
ENDBRANCH  31  34
ENDBRANCH  23  32
ENDBRANCH   5  23
TORSDOF 5
ENDMDL
MODEL 4
REMARK VINA RESULT:      -9.0      9.718     13.023
REMARK  Name = 44258603
REMARK  5 active torsions:
REMARK  status: ('A' for Active; 'I' for Inactive)
REMARK    1  A    between atoms: O_2  and  C_17
REMARK    2  A    between atoms: O_2  and  C_19
REMARK    3  A    between atoms: O_11  and  C_33
REMARK    4  A    between atoms: C_16  and  C_18
REMARK    5  A    between atoms: C_26  and  C_28
REMARK                            x       y       z     vdW  Elec       q    Type
REMARK                         _______ _______ _______ _____ _____    ______ ____
ROOT
ATOM      1  O   UNL     1     104.604 124.381 146.813  0.00  0.00    +0.000 OA
ATOM      2  O   UNL     1     107.379 125.138 146.634  0.00  0.00    +0.000 OA
ATOM      3  O   UNL     1     106.070 125.188 149.175  0.00  0.00    +0.000 OA
ATOM      4  O   UNL     1     104.682 124.816 149.306  0.00  0.00    +0.000 OA
ATOM      5  C   UNL     1     106.003 124.765 146.737  0.00  0.00    +0.000 A 
ATOM      6  C   UNL     1     105.326 124.649 147.195  0.00  0.00    +0.000 A 
ATOM      7  C   UNL     1     106.702 125.022 147.092  0.00  0.00    +0.000 A 
ATOM      8  C   UNL     1     105.348 124.790 148.007  0.00  0.00    +0.000 A 
ATOM      9  C   UNL     1     106.724 125.163 147.905  0.00  0.00    +0.000 A 
ATOM     10  C   UNL     1     106.048 125.047 148.362  0.00  0.00    +0.000 A 
ATOM     11  C   UNL     1     104.651 124.673 148.494  0.00  0.00    +0.000 A 
ATOM     12  C   UNL     1     103.896 124.259 147.284  0.00  0.00    +0.000 A 
ATOM     13  C   UNL     1     103.919 124.405 148.130  0.00  0.00    +0.000 A 
ENDROOT
BRANCH  12  15
ATOM     14  O   UNL     1     101.127 124.652 146.695  0.00  0.00    +0.000 OA
ATOM     15  C   UNL     1     103.198 124.002 146.927  0.00  0.00    +0.000 A 
ATOM     16  C   UNL     1     102.511 124.455 146.990  0.00  0.00    +0.000 A 
ATOM     17  C   UNL     1     103.186 123.293 146.506  0.00  0.00    +0.000 A 
ATOM     18  C   UNL     1     101.813 124.199 146.633  0.00  0.00    +0.000 A 
ATOM     19  C   UNL     1     102.489 123.036 146.148  0.00  0.00    +0.000 A 
ATOM     20  C   UNL     1     101.802 123.489 146.211  0.00  0.00    +0.000 A 
BRANCH  20  21
ATOM     21  O   UNL     1     101.105 123.232 145.854  0.00  0.00    +0.000 OA
ATOM     22  C   UNL     1     101.137 122.739 145.194  0.00  0.00    +0.000 C 
ENDBRANCH  20  21
ENDBRANCH  12  15
BRANCH   5  23
ATOM     23  O   UNL     1     105.981 124.624 145.925  0.00  0.00    +0.000 OA
BRANCH  23  32
ATOM     24  O   UNL     1     105.760 126.015 145.682  0.00  0.00    +0.000 OA
ATOM     25  O   UNL     1     106.033 125.633 143.251  0.00  0.00    +0.000 OA
ATOM     26  O   UNL     1     105.721 127.150 143.819  0.00  0.00    +0.000 OA
ATOM     27  O   UNL     1     106.163 124.370 144.305  0.00  0.00    +0.000 OA
ATOM     28  C   UNL     1     105.942 125.760 144.062  0.00  0.00    +0.000 C 
ATOM     29  C   UNL     1     105.786 126.519 144.345  0.00  0.00    +0.000 C 
ATOM     30  C   UNL     1     106.007 125.128 144.588  0.00  0.00    +0.000 C 
ATOM     31  C   UNL     1     105.695 126.646 145.155  0.00  0.00    +0.000 C 
ATOM     32  C   UNL     1     105.916 125.255 145.398  0.00  0.00    +0.000 C 
BRANCH  31  34
ATOM     33  O   UNL     1     104.821 127.565 145.813  0.00  0.00    +0.000 OA
ATOM     34  C   UNL     1     105.539 127.405 145.439  0.00  0.00    +0.000 C 
ENDBRANCH  31  34
ENDBRANCH  23  32
ENDBRANCH   5  23
TORSDOF 5
ENDMDL
MODEL 5
REMARK VINA RESULT:      -9.0      1.390      3.609
REMARK  Name = 44258603
REMARK  5 active torsions:
REMARK  status: ('A' for Active; 'I' for Inactive)
REMARK    1  A    between atoms: O_2  and  C_17
REMARK    2  A    between atoms: O_2  and  C_19
REMARK    3  A    between atoms: O_11  and  C_33
REMARK    4  A    between atoms: C_16  and  C_18
REMARK    5  A    between atoms: C_26  and  C_28
REMARK                            x       y       z     vdW  Elec       q    Type
REMARK                         _______ _______ _______ _____ _____    ______ ____
ROOT
ATOM      1  O   UNL     1     111.856 126.158 136.502  0.00  0.00    +0.000 OA
ATOM      2  O   UNL     1     114.671 125.916 137.063  0.00  0.00    +0.000 OA
ATOM      3  O   UNL     1     113.138 123.563 136.529  0.00  0.00    +0.000 OA
ATOM      4  O   UNL     1     111.725 123.643 136.244  0.00  0.00    +0.000 OA
ATOM      5  C   UNL     1     113.274 126.022 136.783  0.00  0.00    +0.000 A 
ATOM      6  C   UNL     1     112.552 125.665 136.601  0.00  0.00    +0.000 A 
ATOM      7  C   UNL     1     113.949 125.559 136.880  0.00  0.00    +0.000 A 
ATOM      8  C   UNL     1     112.507 124.846 136.516  0.00  0.00    +0.000 A 
ATOM      9  C   UNL     1     113.904 124.739 136.796  0.00  0.00    +0.000 A 
ATOM     10  C   UNL     1     113.183 124.383 136.614  0.00  0.00    +0.000 A 
ATOM     11  C   UNL     1     111.762 124.463 136.326  0.00  0.00    +0.000 A 
ATOM     12  C   UNL     1     111.101 125.793 136.312  0.00  0.00    +0.000 A 
ATOM     13  C   UNL     1     111.054 124.939 136.224  0.00  0.00    +0.000 A 
ENDROOT
BRANCH  12  15
ATOM     14  O   UNL     1     108.694 126.913 137.371  0.00  0.00    +0.000 OA
ATOM     15  C   UNL     1     110.427 126.258 136.215  0.00  0.00    +0.000 A 
ATOM     16  C   UNL     1     109.898 126.353 136.841  0.00  0.00    +0.000 A 
ATOM     17  C   UNL     1     110.281 126.628 135.493  0.00  0.00    +0.000 A 
ATOM     18  C   UNL     1     109.223 126.818 136.745  0.00  0.00    +0.000 A 
ATOM     19  C   UNL     1     109.606 127.094 135.396  0.00  0.00    +0.000 A 
ATOM     20  C   UNL     1     109.077 127.189 136.021  0.00  0.00    +0.000 A 
BRANCH  20  21
ATOM     21  O   UNL     1     108.404 127.653 135.925  0.00  0.00    +0.000 OA
ATOM     22  C   UNL     1     108.473 128.428 135.650  0.00  0.00    +0.000 C 
ENDBRANCH  20  21
ENDBRANCH  12  15
BRANCH   5  23
ATOM     23  O   UNL     1     113.319 126.841 136.868  0.00  0.00    +0.000 OA
BRANCH  23  32
ATOM     24  O   UNL     1     113.175 126.703 138.283  0.00  0.00    +0.000 OA
ATOM     25  O   UNL     1     113.228 129.166 138.528  0.00  0.00    +0.000 OA
ATOM     26  O   UNL     1     113.066 128.207 139.860  0.00  0.00    +0.000 OA
ATOM     27  O   UNL     1     113.354 128.482 137.031  0.00  0.00    +0.000 OA
ATOM     28  C   UNL     1     113.210 128.344 138.446  0.00  0.00    +0.000 C 
ATOM     29  C   UNL     1     113.129 127.866 139.112  0.00  0.00    +0.000 C 
ATOM     30  C   UNL     1     113.274 128.003 137.697  0.00  0.00    +0.000 C 
ATOM     31  C   UNL     1     113.112 127.045 139.030  0.00  0.00    +0.000 C 
ATOM     32  C   UNL     1     113.256 127.183 137.615  0.00  0.00    +0.000 C 
BRANCH  31  34
ATOM     33  O   UNL     1     112.321 126.166 139.834  0.00  0.00    +0.000 OA
ATOM     34  C   UNL     1     113.031 126.565 139.697  0.00  0.00    +0.000 C 
ENDBRANCH  31  34
ENDBRANCH  23  32
ENDBRANCH   5  23
TORSDOF 5
ENDMDL
MODEL 6
REMARK VINA RESULT:      -8.8      1.354      2.709
REMARK  Name = 44258603
REMARK  5 active torsions:
REMARK  status: ('A' for Active; 'I' for Inactive)
REMARK    1  A    between atoms: O_2  and  C_17
REMARK    2  A    between atoms: O_2  and  C_19
REMARK    3  A    between atoms: O_11  and  C_33
REMARK    4  A    between atoms: C_16  and  C_18
REMARK    5  A    between atoms: C_26  and  C_28
REMARK                            x       y       z     vdW  Elec       q    Type
REMARK                         _______ _______ _______ _____ _____    ______ ____
ROOT
ATOM      1  O   UNL     1     112.206 127.105 135.980  0.00  0.00    +0.000 OA
ATOM      2  O   UNL     1     111.768 124.307 136.509  0.00  0.00    +0.000 OA
ATOM      3  O   UNL     1     109.892 125.743 134.900  0.00  0.00    +0.000 OA
ATOM      4  O   UNL     1     110.076 127.145 134.612  0.00  0.00    +0.000 OA
ATOM      5  C   UNL     1     111.974 125.695 136.239  0.00  0.00    +0.000 A 
ATOM      6  C   UNL     1     111.729 126.398 135.881  0.00  0.00    +0.000 A 
ATOM      7  C   UNL     1     111.524 125.010 136.151  0.00  0.00    +0.000 A 
ATOM      8  C   UNL     1     111.035 126.414 135.434  0.00  0.00    +0.000 A 
ATOM      9  C   UNL     1     110.830 125.025 135.704  0.00  0.00    +0.000 A 
ATOM     10  C   UNL     1     110.586 125.727 135.347  0.00  0.00    +0.000 A 
ATOM     11  C   UNL     1     110.771 127.138 135.057  0.00  0.00    +0.000 A 
ATOM     12  C   UNL     1     111.957 127.840 135.610  0.00  0.00    +0.000 A 
ATOM     13  C   UNL     1     111.234 127.857 135.145  0.00  0.00    +0.000 A 
ENDROOT
BRANCH  12  15
ATOM     14  O   UNL     1     114.146 129.486 134.792  0.00  0.00    +0.000 OA
ATOM     15  C   UNL     1     112.408 128.525 135.699  0.00  0.00    +0.000 A 
ATOM     16  C   UNL     1     113.051 128.663 135.201  0.00  0.00    +0.000 A 
ATOM     17  C   UNL     1     112.217 129.071 136.287  0.00  0.00    +0.000 A 
ATOM     18  C   UNL     1     113.503 129.347 135.290  0.00  0.00    +0.000 A 
ATOM     19  C   UNL     1     112.669 129.756 136.377  0.00  0.00    +0.000 A 
ATOM     20  C   UNL     1     113.311 129.894 135.879  0.00  0.00    +0.000 A 
BRANCH  20  21
ATOM     21  O   UNL     1     113.763 130.578 135.968  0.00  0.00    +0.000 OA
ATOM     22  C   UNL     1     113.678 131.042 136.645  0.00  0.00    +0.000 C 
ENDBRANCH  20  21
ENDBRANCH  12  15
BRANCH   5  23
ATOM     23  O   UNL     1     112.666 125.680 136.685  0.00  0.00    +0.000 OA
BRANCH  23  32
ATOM     24  O   UNL     1     111.911 125.900 137.878  0.00  0.00    +0.000 OA
ATOM     25  O   UNL     1     114.013 126.147 139.163  0.00  0.00    +0.000 OA
ATOM     26  O   UNL     1     112.557 126.286 139.926  0.00  0.00    +0.000 OA
ATOM     27  O   UNL     1     114.067 125.844 137.542  0.00  0.00    +0.000 OA
ATOM     28  C   UNL     1     113.312 126.065 138.734  0.00  0.00    +0.000 C 
ATOM     29  C   UNL     1     112.585 126.134 139.117  0.00  0.00    +0.000 C 
ATOM     30  C   UNL     1     113.340 125.913 137.924  0.00  0.00    +0.000 C 
ATOM     31  C   UNL     1     111.884 126.052 138.688  0.00  0.00    +0.000 C 
ATOM     32  C   UNL     1     112.640 125.831 137.496  0.00  0.00    +0.000 C 
BRANCH  31  34
ATOM     33  O   UNL     1     110.722 125.444 139.255  0.00  0.00    +0.000 OA
ATOM     34  C   UNL     1     111.156 126.121 139.070  0.00  0.00    +0.000 C 
ENDBRANCH  31  34
ENDBRANCH  23  32
ENDBRANCH   5  23
TORSDOF 5
ENDMDL
MODEL 7
REMARK VINA RESULT:      -8.7     10.466     13.310
REMARK  Name = 44258603
REMARK  5 active torsions:
REMARK  status: ('A' for Active; 'I' for Inactive)
REMARK    1  A    between atoms: O_2  and  C_17
REMARK    2  A    between atoms: O_2  and  C_19
REMARK    3  A    between atoms: O_11  and  C_33
REMARK    4  A    between atoms: C_16  and  C_18
REMARK    5  A    between atoms: C_26  and  C_28
REMARK                            x       y       z     vdW  Elec       q    Type
REMARK                         _______ _______ _______ _____ _____    ______ ____
ROOT
ATOM      1  O   UNL     1     105.436 125.540 148.170  0.00  0.00    +0.000 OA
ATOM      2  O   UNL     1     107.816 126.395 146.789  0.00  0.00    +0.000 OA
ATOM      3  O   UNL     1     108.012 124.389 148.816  0.00  0.00    +0.000 OA
ATOM      4  O   UNL     1     106.843 123.934 149.530  0.00  0.00    +0.000 OA
ATOM      5  C   UNL     1     106.643 125.962 147.481  0.00  0.00    +0.000 A 
ATOM      6  C   UNL     1     106.285 125.483 148.050  0.00  0.00    +0.000 A 
ATOM      7  C   UNL     1     107.457 125.916 147.358  0.00  0.00    +0.000 A 
ATOM      8  C   UNL     1     106.741 124.959 148.495  0.00  0.00    +0.000 A 
ATOM      9  C   UNL     1     107.913 125.392 147.802  0.00  0.00    +0.000 A 
ATOM     10  C   UNL     1     107.555 124.914 148.370  0.00  0.00    +0.000 A 
ATOM     11  C   UNL     1     106.380 124.455 149.090  0.00  0.00    +0.000 A 
ATOM     12  C   UNL     1     105.057 125.044 148.761  0.00  0.00    +0.000 A 
ATOM     13  C   UNL     1     105.531 124.498 149.224  0.00  0.00    +0.000 A 
ENDROOT
BRANCH  12  15
ATOM     14  O   UNL     1     102.405 124.190 148.123  0.00  0.00    +0.000 OA
ATOM     15  C   UNL     1     104.242 125.092 148.883  0.00  0.00    +0.000 A 
ATOM     16  C   UNL     1     103.731 124.618 148.442  0.00  0.00    +0.000 A 
ATOM     17  C   UNL     1     103.938 125.614 149.444  0.00  0.00    +0.000 A 
ATOM     18  C   UNL     1     102.916 124.665 148.563  0.00  0.00    +0.000 A 
ATOM     19  C   UNL     1     103.124 125.662 149.566  0.00  0.00    +0.000 A 
ATOM     20  C   UNL     1     102.612 125.187 149.126  0.00  0.00    +0.000 A 
BRANCH  20  21
ATOM     21  O   UNL     1     101.799 125.235 149.247  0.00  0.00    +0.000 OA
ATOM     22  C   UNL     1     101.474 125.900 149.612  0.00  0.00    +0.000 C 
ENDBRANCH  20  21
ENDBRANCH  12  15
BRANCH   5  23
ATOM     23  O   UNL     1     106.188 126.486 147.037  0.00  0.00    +0.000 OA
BRANCH  23  32
ATOM     24  O   UNL     1     106.052 125.519 145.993  0.00  0.00    +0.000 OA
ATOM     25  O   UNL     1     105.211 127.282 144.471  0.00  0.00    +0.000 OA
ATOM     26  O   UNL     1     105.356 125.728 143.935  0.00  0.00    +0.000 OA
ATOM     27  O   UNL     1     105.627 127.660 146.022  0.00  0.00    +0.000 OA
ATOM     28  C   UNL     1     105.492 126.694 144.978  0.00  0.00    +0.000 C 
ATOM     29  C   UNL     1     105.564 125.918 144.710  0.00  0.00    +0.000 C 
ATOM     30  C   UNL     1     105.700 126.884 145.754  0.00  0.00    +0.000 C 
ATOM     31  C   UNL     1     105.844 125.331 145.217  0.00  0.00    +0.000 C 
ATOM     32  C   UNL     1     105.980 126.297 146.261  0.00  0.00    +0.000 C 
BRANCH  31  34
ATOM     33  O   UNL     1     105.436 123.962 145.267  0.00  0.00    +0.000 OA
ATOM     34  C   UNL     1     105.917 124.554 144.950  0.00  0.00    +0.000 C 
ENDBRANCH  31  34
ENDBRANCH  23  32
ENDBRANCH   5  23
TORSDOF 5
ENDMDL
MODEL 8
REMARK VINA RESULT:      -8.7      1.991      4.327
REMARK  Name = 44258603
REMARK  5 active torsions:
REMARK  status: ('A' for Active; 'I' for Inactive)
REMARK    1  A    between atoms: O_2  and  C_17
REMARK    2  A    between atoms: O_2  and  C_19
REMARK    3  A    between atoms: O_11  and  C_33
REMARK    4  A    between atoms: C_16  and  C_18
REMARK    5  A    between atoms: C_26  and  C_28
REMARK                            x       y       z     vdW  Elec       q    Type
REMARK                         _______ _______ _______ _____ _____    ______ ____
ROOT
ATOM      1  O   UNL     1     112.264 127.861 136.776  0.00  0.00    +0.000 OA
ATOM      2  O   UNL     1     112.004 130.667 137.377  0.00  0.00    +0.000 OA
ATOM      3  O   UNL     1     114.256 129.755 135.870  0.00  0.00    +0.000 OA
ATOM      4  O   UNL     1     114.422 128.358 135.549  0.00  0.00    +0.000 OA
ATOM      5  C   UNL     1     112.145 129.278 137.072  0.00  0.00    +0.000 A 
ATOM      6  C   UNL     1     112.567 128.662 136.719  0.00  0.00    +0.000 A 
ATOM      7  C   UNL     1     112.427 130.051 137.024  0.00  0.00    +0.000 A 
ATOM      8  C   UNL     1     113.271 128.821 136.319  0.00  0.00    +0.000 A 
ATOM      9  C   UNL     1     113.130 130.210 136.623  0.00  0.00    +0.000 A 
ATOM     10  C   UNL     1     113.552 129.596 136.271  0.00  0.00    +0.000 A 
ATOM     11  C   UNL     1     113.719 128.190 135.947  0.00  0.00    +0.000 A 
ATOM     12  C   UNL     1     112.699 127.216 136.410  0.00  0.00    +0.000 A 
ATOM     13  C   UNL     1     113.431 127.381 135.994  0.00  0.00    +0.000 A 
ENDROOT
BRANCH  12  15
ATOM     14  O   UNL     1     110.902 125.178 135.522  0.00  0.00    +0.000 OA
ATOM     15  C   UNL     1     112.415 126.443 136.460  0.00  0.00    +0.000 A 
ATOM     16  C   UNL     1     111.801 126.196 135.967  0.00  0.00    +0.000 A 
ATOM     17  C   UNL     1     112.745 125.915 137.001  0.00  0.00    +0.000 A 
ATOM     18  C   UNL     1     111.516 125.424 136.015  0.00  0.00    +0.000 A 
ATOM     19  C   UNL     1     112.461 125.142 137.051  0.00  0.00    +0.000 A 
ATOM     20  C   UNL     1     111.847 124.896 136.558  0.00  0.00    +0.000 A 
BRANCH  20  21
ATOM     21  O   UNL     1     111.563 124.124 136.607  0.00  0.00    +0.000 OA
ATOM     22  C   UNL     1     111.978 123.559 137.043  0.00  0.00    +0.000 C 
ENDBRANCH  20  21
ENDBRANCH  12  15
BRANCH   5  23
ATOM     23  O   UNL     1     111.442 129.119 137.472  0.00  0.00    +0.000 OA
BRANCH  23  32
ATOM     24  O   UNL     1     110.660 129.379 136.304  0.00  0.00    +0.000 OA
ATOM     25  O   UNL     1     108.660 129.726 137.721  0.00  0.00    +0.000 OA
ATOM     26  O   UNL     1     108.546 129.870 136.082  0.00  0.00    +0.000 OA
ATOM     27  O   UNL     1     110.109 129.350 138.416  0.00  0.00    +0.000 OA
ATOM     28  C   UNL     1     109.327 129.610 137.248  0.00  0.00    +0.000 C 
ATOM     29  C   UNL     1     109.269 129.682 136.429  0.00  0.00    +0.000 C 
ATOM     30  C   UNL     1     110.051 129.422 137.597  0.00  0.00    +0.000 C 
ATOM     31  C   UNL     1     109.936 129.567 135.957  0.00  0.00    +0.000 C 
ATOM     32  C   UNL     1     110.718 129.307 137.125  0.00  0.00    +0.000 C 
BRANCH  31  34
ATOM     33  O   UNL     1     110.011 128.981 134.656  0.00  0.00    +0.000 OA
ATOM     34  C   UNL     1     109.879 129.639 135.137  0.00  0.00    +0.000 C 
ENDBRANCH  31  34
ENDBRANCH  23  32
ENDBRANCH   5  23
TORSDOF 5
ENDMDL
MODEL 9
REMARK VINA RESULT:      -8.6     10.007     12.472
REMARK  Name = 44258603
REMARK  5 active torsions:
REMARK  status: ('A' for Active; 'I' for Inactive)
REMARK    1  A    between atoms: O_2  and  C_17
REMARK    2  A    between atoms: O_2  and  C_19
REMARK    3  A    between atoms: O_11  and  C_33
REMARK    4  A    between atoms: C_16  and  C_18
REMARK    5  A    between atoms: C_26  and  C_28
REMARK                            x       y       z     vdW  Elec       q    Type
REMARK                         _______ _______ _______ _____ _____    ______ ____
ROOT
ATOM      1  O   UNL     1     106.104 126.019 147.528  0.00  0.00    +0.000 OA
ATOM      2  O   UNL     1     104.674 124.407 149.441  0.00  0.00    +0.000 OA
ATOM      3  O   UNL     1     107.500 124.080 149.162  0.00  0.00    +0.000 OA
ATOM      4  O   UNL     1     108.252 124.868 148.215  0.00  0.00    +0.000 OA
ATOM      5  C   UNL     1     105.395 125.201 148.496  0.00  0.00    +0.000 A 
ATOM      6  C   UNL     1     106.107 125.410 148.134  0.00  0.00    +0.000 A 
ATOM      7  C   UNL     1     105.386 124.617 149.079  0.00  0.00    +0.000 A 
ATOM      8  C   UNL     1     106.808 125.037 148.356  0.00  0.00    +0.000 A 
ATOM      9  C   UNL     1     106.087 124.244 149.301  0.00  0.00    +0.000 A 
ATOM     10  C   UNL     1     106.798 124.454 148.940  0.00  0.00    +0.000 A 
ATOM     11  C   UNL     1     107.555 125.246 147.987  0.00  0.00    +0.000 A 
ATOM     12  C   UNL     1     106.842 126.242 147.148  0.00  0.00    +0.000 A 
ATOM     13  C   UNL     1     107.572 125.853 147.379  0.00  0.00    +0.000 A 
ENDROOT
BRANCH  12  15
ATOM     14  O   UNL     1     106.713 126.988 144.391  0.00  0.00    +0.000 OA
ATOM     15  C   UNL     1     106.849 126.826 146.564  0.00  0.00    +0.000 A 
ATOM     16  C   UNL     1     106.777 126.616 145.770  0.00  0.00    +0.000 A 
ATOM     17  C   UNL     1     106.928 127.619 146.775  0.00  0.00    +0.000 A 
ATOM     18  C   UNL     1     106.784 127.198 145.186  0.00  0.00    +0.000 A 
ATOM     19  C   UNL     1     106.935 128.203 146.192  0.00  0.00    +0.000 A 
ATOM     20  C   UNL     1     106.863 127.993 145.397  0.00  0.00    +0.000 A 
BRANCH  20  21
ATOM     21  O   UNL     1     106.870 128.575 144.814  0.00  0.00    +0.000 OA
ATOM     22  C   UNL     1     106.985 129.365 145.023  0.00  0.00    +0.000 C 
ENDBRANCH  20  21
ENDBRANCH  12  15
BRANCH   5  23
ATOM     23  O   UNL     1     104.695 125.574 148.274  0.00  0.00    +0.000 OA
BRANCH  23  32
ATOM     24  O   UNL     1     104.413 124.584 147.283  0.00  0.00    +0.000 OA
ATOM     25  O   UNL     1     102.017 125.205 147.343  0.00  0.00    +0.000 OA
ATOM     26  O   UNL     1     102.535 124.009 146.332  0.00  0.00    +0.000 OA
ATOM     27  O   UNL     1     103.098 125.988 148.314  0.00  0.00    +0.000 OA
ATOM     28  C   UNL     1     102.816 124.998 147.323  0.00  0.00    +0.000 C 
ATOM     29  C   UNL     1     103.074 124.400 146.817  0.00  0.00    +0.000 C 
ATOM     30  C   UNL     1     103.356 125.390 147.809  0.00  0.00    +0.000 C 
ATOM     31  C   UNL     1     103.872 124.193 146.797  0.00  0.00    +0.000 C 
ATOM     32  C   UNL     1     104.154 125.183 147.789  0.00  0.00    +0.000 C 
BRANCH  31  34
ATOM     33  O   UNL     1     104.700 123.759 145.716  0.00  0.00    +0.000 OA
ATOM     34  C   UNL     1     104.131 123.594 146.292  0.00  0.00    +0.000 C 
ENDBRANCH  31  34
ENDBRANCH  23  32
ENDBRANCH   5  23
TORSDOF 5
ENDMDL
MODEL 10
REMARK VINA RESULT:      -8.6      1.997      3.490
REMARK  Name = 44258603
REMARK  5 active torsions:
REMARK  status: ('A' for Active; 'I' for Inactive)
REMARK    1  A    between atoms: O_2  and  C_17
REMARK    2  A    between atoms: O_2  and  C_19
REMARK    3  A    between atoms: O_11  and  C_33
REMARK    4  A    between atoms: C_16  and  C_18
REMARK    5  A    between atoms: C_26  and  C_28
REMARK                            x       y       z     vdW  Elec       q    Type
REMARK                         _______ _______ _______ _____ _____    ______ ____
ROOT
ATOM      1  O   UNL     1     111.458 126.376 137.720  0.00  0.00    +0.000 OA
ATOM      2  O   UNL     1     109.478 126.512 135.631  0.00  0.00    +0.000 OA
ATOM      3  O   UNL     1     111.360 124.360 135.645  0.00  0.00    +0.000 OA
ATOM      4  O   UNL     1     112.367 124.257 136.674  0.00  0.00    +0.000 OA
ATOM      5  C   UNL     1     110.465 126.433 136.661  0.00  0.00    +0.000 A 
ATOM      6  C   UNL     1     111.108 126.048 137.007  0.00  0.00    +0.000 A 
ATOM      7  C   UNL     1     110.121 126.127 135.977  0.00  0.00    +0.000 A 
ATOM      8  C   UNL     1     111.406 125.357 136.669  0.00  0.00    +0.000 A 
ATOM      9  C   UNL     1     110.419 125.436 135.639  0.00  0.00    +0.000 A 
ATOM     10  C   UNL     1     111.061 125.052 135.984  0.00  0.00    +0.000 A 
ATOM     11  C   UNL     1     112.075 124.947 137.019  0.00  0.00    +0.000 A 
ATOM     12  C   UNL     1     112.128 125.980 138.085  0.00  0.00    +0.000 A 
ATOM     13  C   UNL     1     112.438 125.261 137.732  0.00  0.00    +0.000 A 
ENDROOT
BRANCH  12  15
ATOM     14  O   UNL     1     112.040 126.440 140.904  0.00  0.00    +0.000 OA
ATOM     15  C   UNL     1     112.470 126.288 138.769  0.00  0.00    +0.000 A 
ATOM     16  C   UNL     1     112.085 126.210 139.494  0.00  0.00    +0.000 A 
ATOM     17  C   UNL     1     113.198 126.674 138.729  0.00  0.00    +0.000 A 
ATOM     18  C   UNL     1     112.426 126.518 140.179  0.00  0.00    +0.000 A 
ATOM     19  C   UNL     1     113.540 126.982 139.414  0.00  0.00    +0.000 A 
ATOM     20  C   UNL     1     113.155 126.904 140.139  0.00  0.00    +0.000 A 
BRANCH  20  21
ATOM     21  O   UNL     1     113.497 127.212 140.823  0.00  0.00    +0.000 OA
ATOM     22  C   UNL     1     114.281 127.468 140.812  0.00  0.00    +0.000 C 
ENDBRANCH  20  21
ENDBRANCH  12  15
BRANCH   5  23
ATOM     23  O   UNL     1     110.167 127.123 137.000  0.00  0.00    +0.000 OA
BRANCH  23  32
ATOM     24  O   UNL     1     110.986 127.928 136.149  0.00  0.00    +0.000 OA
ATOM     25  O   UNL     1     109.624 129.915 136.719  0.00  0.00    +0.000 OA
ATOM     26  O   UNL     1     110.897 130.057 135.679  0.00  0.00    +0.000 OA
ATOM     27  O   UNL     1     109.259 128.447 137.379  0.00  0.00    +0.000 OA
ATOM     28  C   UNL     1     110.079 129.252 136.529  0.00  0.00    +0.000 C 
ATOM     29  C   UNL     1     110.715 129.324 136.009  0.00  0.00    +0.000 C 
ATOM     30  C   UNL     1     109.895 128.519 136.859  0.00  0.00    +0.000 C 
ATOM     31  C   UNL     1     111.168 128.661 135.820  0.00  0.00    +0.000 C 
ATOM     32  C   UNL     1     110.349 127.856 136.670  0.00  0.00    +0.000 C 
BRANCH  31  34
ATOM     33  O   UNL     1     112.573 128.594 135.568  0.00  0.00    +0.000 OA
ATOM     34  C   UNL     1     111.805 128.732 135.300  0.00  0.00    +0.000 C 
ENDBRANCH  31  34
ENDBRANCH  23  32
ENDBRANCH   5  23
TORSDOF 5
ENDMDL
