MODEL 1
REMARK VINA RESULT:      -9.7      0.000      0.000
REMARK  Name = 73829986
REMARK  6 active torsions:
REMARK  status: ('A' for Active; 'I' for Inactive)
REMARK    1  A    between atoms: S_1  and  O_12
REMARK    2  A    between atoms: O_3  and  C_22
REMARK    3  A    between atoms: O_3  and  C_25
REMARK    4  A    between atoms: O_12  and  C_33
REMARK    5  A    between atoms: C_23  and  C_24
REMARK    6  A    between atoms: C_32  and  C_34
REMARK                            x       y       z     vdW  Elec       q    Type
REMARK                         _______ _______ _______ _____ _____    ______ ____
ROOT
ATOM      1  O   UNL     1     111.300 127.319 137.237  0.00  0.00    +0.000 OA
ATOM      2  O   UNL     1     111.112 125.423 139.440  0.00  0.00    +0.000 OA
ATOM      3  O   UNL     1     108.700 126.465 138.165  0.00  0.00    +0.000 OA
ATOM      4  O   UNL     1     108.831 127.403 137.076  0.00  0.00    +0.000 OA
ATOM      5  C   UNL     1     111.225 126.373 138.336  0.00  0.00    +0.000 A 
ATOM      6  C   UNL     1     110.837 126.868 137.750  0.00  0.00    +0.000 A 
ATOM      7  C   UNL     1     110.015 126.896 137.697  0.00  0.00    +0.000 A 
ATOM      8  C   UNL     1     110.748 125.902 138.873  0.00  0.00    +0.000 A 
ATOM      9  C   UNL     1     109.522 126.431 138.225  0.00  0.00    +0.000 A 
ATOM     10  C   UNL     1     109.892 125.931 138.818  0.00  0.00    +0.000 A 
ATOM     11  C   UNL     1     109.654 127.375 137.129  0.00  0.00    +0.000 A 
ATOM     12  C   UNL     1     110.939 127.798 136.669  0.00  0.00    +0.000 A 
ATOM     13  C   UNL     1     110.117 127.826 136.616  0.00  0.00    +0.000 A 
ENDROOT
BRANCH  12  16
ATOM     14  O   UNL     1     112.348 130.214 136.081  0.00  0.00    +0.000 OA
ATOM     15  O   UNL     1     112.790 129.599 134.616  0.00  0.00    +0.000 OA
ATOM     16  C   UNL     1     111.402 128.249 136.156  0.00  0.00    +0.000 A 
ATOM     17  C   UNL     1     111.644 129.007 136.375  0.00  0.00    +0.000 A 
ATOM     18  C   UNL     1     111.623 127.941 135.423  0.00  0.00    +0.000 A 
ATOM     19  C   UNL     1     112.106 129.456 135.862  0.00  0.00    +0.000 A 
ATOM     20  C   UNL     1     112.086 128.391 134.910  0.00  0.00    +0.000 A 
ATOM     21  C   UNL     1     112.328 129.149 135.129  0.00  0.00    +0.000 A 
ENDBRANCH  12  16
BRANCH   5  22
ATOM     22  O   UNL     1     112.048 126.351 138.383  0.00  0.00    +0.000 OA
BRANCH  22  30
ATOM     23  O   UNL     1     112.062 125.165 137.586  0.00  0.00    +0.000 OA
ATOM     24  O   UNL     1     114.536 125.145 137.660  0.00  0.00    +0.000 OA
ATOM     25  O   UNL     1     113.697 126.338 138.432  0.00  0.00    +0.000 OA
ATOM     26  O   UNL     1     113.725 123.966 136.839  0.00  0.00    +0.000 OA
ATOM     27  C   UNL     1     113.711 125.152 137.635  0.00  0.00    +0.000 C 
ATOM     28  C   UNL     1     113.293 125.748 138.022  0.00  0.00    +0.000 C 
ATOM     29  C   UNL     1     113.307 124.562 137.224  0.00  0.00    +0.000 C 
ATOM     30  C   UNL     1     112.467 125.755 137.997  0.00  0.00    +0.000 C 
ATOM     31  C   UNL     1     112.481 124.569 137.200  0.00  0.00    +0.000 C 
BRANCH  31  34
ATOM     32  O   UNL     1     111.943 123.247 137.143  0.00  0.00    +0.000 OA
ATOM     33  O   UNL     1     111.804 124.124 136.024  0.00  0.00    +0.000 OA
ATOM     34  C   UNL     1     112.076 123.980 136.789  0.00  0.00    +0.000 C 
ENDBRANCH  31  34
ENDBRANCH  22  30
ENDBRANCH   5  22
BRANCH  13  35
ATOM     35  O   UNL     1     109.756 128.305 136.049  0.00  0.00    +0.000 OA
BRANCH  35  36
ATOM     36  S   UNL     1     108.938 128.278 135.946  0.00  0.00    +0.000 S 
ATOM     37  O   UNL     1     108.120 128.251 135.844  0.00  0.00    +0.000 OA
ATOM     38  O   UNL     1     108.851 128.905 136.475  0.00  0.00    +0.000 OA
ATOM     39  O   UNL     1     109.025 127.650 135.417  0.00  0.00    +0.000 OA
ENDBRANCH  35  36
ENDBRANCH  13  35
TORSDOF 6
ENDMDL
MODEL 2
REMARK VINA RESULT:      -9.6      2.743      4.702
REMARK  Name = 73829986
REMARK  6 active torsions:
REMARK  status: ('A' for Active; 'I' for Inactive)
REMARK    1  A    between atoms: S_1  and  O_12
REMARK    2  A    between atoms: O_3  and  C_22
REMARK    3  A    between atoms: O_3  and  C_25
REMARK    4  A    between atoms: O_12  and  C_33
REMARK    5  A    between atoms: C_23  and  C_24
REMARK    6  A    between atoms: C_32  and  C_34
REMARK                            x       y       z     vdW  Elec       q    Type
REMARK                         _______ _______ _______ _____ _____    ______ ____
ROOT
ATOM      1  O   UNL     1     110.380 130.597 136.168  0.00  0.00    +0.000 OA
ATOM      2  O   UNL     1     112.607 128.767 136.583  0.00  0.00    +0.000 OA
ATOM      3  O   UNL     1     112.383 131.218 138.155  0.00  0.00    +0.000 OA
ATOM      4  O   UNL     1     111.266 132.102 137.922  0.00  0.00    +0.000 OA
ATOM      5  C   UNL     1     111.483 129.673 136.362  0.00  0.00    +0.000 A 
ATOM      6  C   UNL     1     111.075 130.402 136.566  0.00  0.00    +0.000 A 
ATOM      7  C   UNL     1     111.371 130.903 137.150  0.00  0.00    +0.000 A 
ATOM      8  C   UNL     1     112.208 129.465 136.772  0.00  0.00    +0.000 A 
ATOM      9  C   UNL     1     112.095 130.711 137.572  0.00  0.00    +0.000 A 
ATOM     10  C   UNL     1     112.516 129.987 137.381  0.00  0.00    +0.000 A 
ATOM     11  C   UNL     1     110.970 131.601 137.337  0.00  0.00    +0.000 A 
ATOM     12  C   UNL     1     109.979 131.294 136.355  0.00  0.00    +0.000 A 
ATOM     13  C   UNL     1     110.275 131.795 136.940  0.00  0.00    +0.000 A 
ENDROOT
BRANCH  12  16
ATOM     14  O   UNL     1     107.141 131.094 136.087  0.00  0.00    +0.000 OA
ATOM     15  O   UNL     1     107.197 132.075 134.762  0.00  0.00    +0.000 OA
ATOM     16  C   UNL     1     109.283 131.489 135.957  0.00  0.00    +0.000 A 
ATOM     17  C   UNL     1     108.560 131.194 136.221  0.00  0.00    +0.000 A 
ATOM     18  C   UNL     1     109.312 131.980 135.293  0.00  0.00    +0.000 A 
ATOM     19  C   UNL     1     107.865 131.389 135.823  0.00  0.00    +0.000 A 
ATOM     20  C   UNL     1     108.616 132.175 134.895  0.00  0.00    +0.000 A 
ATOM     21  C   UNL     1     107.892 131.880 135.159  0.00  0.00    +0.000 A 
ENDBRANCH  12  16
BRANCH   5  22
ATOM     22  O   UNL     1     111.181 129.178 135.775  0.00  0.00    +0.000 OA
BRANCH  22  30
ATOM     23  O   UNL     1     110.532 128.389 136.775  0.00  0.00    +0.000 OA
ATOM     24  O   UNL     1     109.763 126.811 135.030  0.00  0.00    +0.000 OA
ATOM     25  O   UNL     1     110.668 128.126 134.612  0.00  0.00    +0.000 OA
ATOM     26  O   UNL     1     109.371 126.548 136.610  0.00  0.00    +0.000 OA
ATOM     27  C   UNL     1     110.019 127.337 135.611  0.00  0.00    +0.000 C 
ATOM     28  C   UNL     1     110.472 127.995 135.402  0.00  0.00    +0.000 C 
ATOM     29  C   UNL     1     109.823 127.205 136.401  0.00  0.00    +0.000 C 
ATOM     30  C   UNL     1     110.728 128.521 135.984  0.00  0.00    +0.000 C 
ATOM     31  C   UNL     1     110.080 127.732 136.984  0.00  0.00    +0.000 C 
BRANCH  31  34
ATOM     32  O   UNL     1     110.336 127.083 138.231  0.00  0.00    +0.000 OA
ATOM     33  O   UNL     1     109.236 127.986 138.107  0.00  0.00    +0.000 OA
ATOM     34  C   UNL     1     109.884 127.600 137.773  0.00  0.00    +0.000 C 
ENDBRANCH  31  34
ENDBRANCH  22  30
ENDBRANCH   5  22
BRANCH  13  35
ATOM     35  O   UNL     1     109.874 132.492 137.126  0.00  0.00    +0.000 OA
BRANCH  35  36
ATOM     36  S   UNL     1     110.029 132.878 137.839  0.00  0.00    +0.000 S 
ATOM     37  O   UNL     1     110.184 133.264 138.551  0.00  0.00    +0.000 OA
ATOM     38  O   UNL     1     110.525 133.407 137.445  0.00  0.00    +0.000 OA
ATOM     39  O   UNL     1     109.533 132.350 138.234  0.00  0.00    +0.000 OA
ENDBRANCH  35  36
ENDBRANCH  13  35
TORSDOF 6
ENDMDL
MODEL 3
REMARK VINA RESULT:      -9.6      1.648      4.682
REMARK  Name = 73829986
REMARK  6 active torsions:
REMARK  status: ('A' for Active; 'I' for Inactive)
REMARK    1  A    between atoms: S_1  and  O_12
REMARK    2  A    between atoms: O_3  and  C_22
REMARK    3  A    between atoms: O_3  and  C_25
REMARK    4  A    between atoms: O_12  and  C_33
REMARK    5  A    between atoms: C_23  and  C_24
REMARK    6  A    between atoms: C_32  and  C_34
REMARK                            x       y       z     vdW  Elec       q    Type
REMARK                         _______ _______ _______ _____ _____    ______ ____
ROOT
ATOM      1  O   UNL     1     110.672 126.923 137.403  0.00  0.00    +0.000 OA
ATOM      2  O   UNL     1     108.344 127.806 135.892  0.00  0.00    +0.000 OA
ATOM      3  O   UNL     1     109.831 125.429 135.077  0.00  0.00    +0.000 OA
ATOM      4  O   UNL     1     110.979 125.021 135.849  0.00  0.00    +0.000 OA
ATOM      5  C   UNL     1     109.509 127.377 136.662  0.00  0.00    +0.000 A 
ATOM      6  C   UNL     1     110.153 126.818 136.770  0.00  0.00    +0.000 A 
ATOM      7  C   UNL     1     110.255 126.185 136.253  0.00  0.00    +0.000 A 
ATOM      8  C   UNL     1     108.965 127.274 136.005  0.00  0.00    +0.000 A 
ATOM      9  C   UNL     1     109.721 126.066 135.590  0.00  0.00    +0.000 A 
ATOM     10  C   UNL     1     109.072 126.614 135.465  0.00  0.00    +0.000 A 
ATOM     11  C   UNL     1     110.877 125.654 136.367  0.00  0.00    +0.000 A 
ATOM     12  C   UNL     1     111.294 126.393 137.518  0.00  0.00    +0.000 A 
ATOM     13  C   UNL     1     111.396 125.759 137.000  0.00  0.00    +0.000 A 
ENDROOT
BRANCH  12  16
ATOM     14  O   UNL     1     111.900 126.108 140.296  0.00  0.00    +0.000 OA
ATOM     15  O   UNL     1     113.371 126.811 140.047  0.00  0.00    +0.000 OA
ATOM     16  C   UNL     1     111.813 126.497 138.150  0.00  0.00    +0.000 A 
ATOM     17  C   UNL     1     111.597 126.250 138.907  0.00  0.00    +0.000 A 
ATOM     18  C   UNL     1     112.550 126.849 138.025  0.00  0.00    +0.000 A 
ATOM     19  C   UNL     1     112.116 126.355 139.539  0.00  0.00    +0.000 A 
ATOM     20  C   UNL     1     113.069 126.954 138.658  0.00  0.00    +0.000 A 
ATOM     21  C   UNL     1     112.853 126.707 139.415  0.00  0.00    +0.000 A 
ENDBRANCH  12  16
BRANCH   5  22
ATOM     22  O   UNL     1     109.414 128.009 137.185  0.00  0.00    +0.000 OA
BRANCH  22  30
ATOM     23  O   UNL     1     110.153 128.857 136.303  0.00  0.00    +0.000 OA
ATOM     24  O   UNL     1     109.625 130.805 137.736  0.00  0.00    +0.000 OA
ATOM     25  O   UNL     1     109.062 129.307 138.140  0.00  0.00    +0.000 OA
ATOM     26  O   UNL     1     110.539 131.003 136.378  0.00  0.00    +0.000 OA
ATOM     27  C   UNL     1     109.801 130.155 137.258  0.00  0.00    +0.000 C 
ATOM     28  C   UNL     1     109.519 129.407 137.461  0.00  0.00    +0.000 C 
ATOM     29  C   UNL     1     110.258 130.255 136.579  0.00  0.00    +0.000 C 
ATOM     30  C   UNL     1     109.695 128.757 136.983  0.00  0.00    +0.000 C 
ATOM     31  C   UNL     1     110.434 129.605 136.101  0.00  0.00    +0.000 C 
BRANCH  31  34
ATOM     32  O   UNL     1     111.706 129.582 135.451  0.00  0.00    +0.000 OA
ATOM     33  O   UNL     1     110.533 129.927 134.713  0.00  0.00    +0.000 OA
ATOM     34  C   UNL     1     110.891 129.705 135.422  0.00  0.00    +0.000 C 
ENDBRANCH  31  34
ENDBRANCH  22  30
ENDBRANCH   5  22
BRANCH  13  35
ATOM     35  O   UNL     1     112.019 125.229 137.115  0.00  0.00    +0.000 OA
BRANCH  35  36
ATOM     36  S   UNL     1     111.981 124.472 136.788  0.00  0.00    +0.000 S 
ATOM     37  O   UNL     1     111.944 123.716 136.460  0.00  0.00    +0.000 OA
ATOM     38  O   UNL     1     112.504 124.703 136.193  0.00  0.00    +0.000 OA
ATOM     39  O   UNL     1     111.458 124.240 137.382  0.00  0.00    +0.000 OA
ENDBRANCH  35  36
ENDBRANCH  13  35
TORSDOF 6
ENDMDL
MODEL 4
REMARK VINA RESULT:      -9.5      2.275      3.846
REMARK  Name = 73829986
REMARK  6 active torsions:
REMARK  status: ('A' for Active; 'I' for Inactive)
REMARK    1  A    between atoms: S_1  and  O_12
REMARK    2  A    between atoms: O_3  and  C_22
REMARK    3  A    between atoms: O_3  and  C_25
REMARK    4  A    between atoms: O_12  and  C_33
REMARK    5  A    between atoms: C_23  and  C_24
REMARK    6  A    between atoms: C_32  and  C_34
REMARK                            x       y       z     vdW  Elec       q    Type
REMARK                         _______ _______ _______ _____ _____    ______ ____
ROOT
ATOM      1  O   UNL     1     112.724 125.985 138.422  0.00  0.00    +0.000 OA
ATOM      2  O   UNL     1     111.330 126.837 140.832  0.00  0.00    +0.000 OA
ATOM      3  O   UNL     1     109.837 125.896 138.506  0.00  0.00    +0.000 OA
ATOM      4  O   UNL     1     110.561 125.481 137.329  0.00  0.00    +0.000 OA
ATOM      5  C   UNL     1     112.045 126.414 139.632  0.00  0.00    +0.000 A 
ATOM      6  C   UNL     1     112.017 126.109 138.828  0.00  0.00    +0.000 A 
ATOM      7  C   UNL     1     111.297 125.941 138.465  0.00  0.00    +0.000 A 
ATOM      8  C   UNL     1     111.313 126.545 140.061  0.00  0.00    +0.000 A 
ATOM      9  C   UNL     1     110.554 126.066 138.878  0.00  0.00    +0.000 A 
ATOM     10  C   UNL     1     110.562 126.370 139.681  0.00  0.00    +0.000 A 
ATOM     11  C   UNL     1     111.282 125.649 137.693  0.00  0.00    +0.000 A 
ATOM     12  C   UNL     1     112.710 125.693 137.650  0.00  0.00    +0.000 A 
ATOM     13  C   UNL     1     111.989 125.525 137.286  0.00  0.00    +0.000 A 
ENDROOT
BRANCH  12  16
ATOM     14  O   UNL     1     114.799 126.669 135.963  0.00  0.00    +0.000 OA
ATOM     15  O   UNL     1     115.537 125.195 136.024  0.00  0.00    +0.000 OA
ATOM     16  C   UNL     1     113.416 125.569 137.243  0.00  0.00    +0.000 A 
ATOM     17  C   UNL     1     113.755 126.181 136.806  0.00  0.00    +0.000 A 
ATOM     18  C   UNL     1     113.786 124.830 137.274  0.00  0.00    +0.000 A 
ATOM     19  C   UNL     1     114.461 126.056 136.400  0.00  0.00    +0.000 A 
ATOM     20  C   UNL     1     114.492 124.706 136.867  0.00  0.00    +0.000 A 
ATOM     21  C   UNL     1     114.831 125.319 136.430  0.00  0.00    +0.000 A 
ENDBRANCH  12  16
BRANCH   5  22
ATOM     22  O   UNL     1     112.771 126.579 139.988  0.00  0.00    +0.000 OA
BRANCH  22  30
ATOM     23  O   UNL     1     112.666 127.944 139.581  0.00  0.00    +0.000 OA
ATOM     24  O   UNL     1     114.699 128.489 140.884  0.00  0.00    +0.000 OA
ATOM     25  O   UNL     1     114.126 126.942 140.857  0.00  0.00    +0.000 OA
ATOM     26  O   UNL     1     113.917 129.672 140.042  0.00  0.00    +0.000 OA
ATOM     27  C   UNL     1     114.021 128.307 140.449  0.00  0.00    +0.000 C 
ATOM     28  C   UNL     1     113.735 127.533 140.436  0.00  0.00    +0.000 C 
ATOM     29  C   UNL     1     113.631 128.899 140.029  0.00  0.00    +0.000 C 
ATOM     30  C   UNL     1     113.057 127.352 140.002  0.00  0.00    +0.000 C 
ATOM     31  C   UNL     1     112.952 128.717 139.594  0.00  0.00    +0.000 C 
BRANCH  31  34
ATOM     32  O   UNL     1     112.719 129.418 138.371  0.00  0.00    +0.000 OA
ATOM     33  O   UNL     1     112.013 129.793 139.555  0.00  0.00    +0.000 OA
ATOM     34  C   UNL     1     112.562 129.309 139.174  0.00  0.00    +0.000 C 
ENDBRANCH  31  34
ENDBRANCH  22  30
ENDBRANCH   5  22
BRANCH  13  35
ATOM     35  O   UNL     1     111.975 125.233 136.514  0.00  0.00    +0.000 OA
BRANCH  35  36
ATOM     36  S   UNL     1     111.264 125.208 136.096  0.00  0.00    +0.000 S 
ATOM     37  O   UNL     1     110.553 125.183 135.678  0.00  0.00    +0.000 OA
ATOM     38  O   UNL     1     111.176 124.412 136.291  0.00  0.00    +0.000 OA
ATOM     39  O   UNL     1     111.351 126.005 135.899  0.00  0.00    +0.000 OA
ENDBRANCH  35  36
ENDBRANCH  13  35
TORSDOF 6
ENDMDL
MODEL 5
REMARK VINA RESULT:      -9.5      2.835      4.190
REMARK  Name = 73829986
REMARK  6 active torsions:
REMARK  status: ('A' for Active; 'I' for Inactive)
REMARK    1  A    between atoms: S_1  and  O_12
REMARK    2  A    between atoms: O_3  and  C_22
REMARK    3  A    between atoms: O_3  and  C_25
REMARK    4  A    between atoms: O_12  and  C_33
REMARK    5  A    between atoms: C_23  and  C_24
REMARK    6  A    between atoms: C_32  and  C_34
REMARK                            x       y       z     vdW  Elec       q    Type
REMARK                         _______ _______ _______ _____ _____    ______ ____
ROOT
ATOM      1  O   UNL     1     110.060 130.479 136.571  0.00  0.00    +0.000 OA
ATOM      2  O   UNL     1     110.546 127.613 136.395  0.00  0.00    +0.000 OA
ATOM      3  O   UNL     1     107.935 128.723 135.705  0.00  0.00    +0.000 OA
ATOM      4  O   UNL     1     107.730 130.148 135.804  0.00  0.00    +0.000 OA
ATOM      5  C   UNL     1     110.320 129.052 136.489  0.00  0.00    +0.000 A 
ATOM      6  C   UNL     1     109.786 129.720 136.399  0.00  0.00    +0.000 A 
ATOM      7  C   UNL     1     109.011 129.609 136.143  0.00  0.00    +0.000 A 
ATOM      8  C   UNL     1     110.041 128.260 136.311  0.00  0.00    +0.000 A 
ATOM      9  C   UNL     1     108.713 128.824 135.960  0.00  0.00    +0.000 A 
ATOM     10  C   UNL     1     109.232 128.145 136.045  0.00  0.00    +0.000 A 
ATOM     11  C   UNL     1     108.507 130.259 136.059  0.00  0.00    +0.000 A 
ATOM     12  C   UNL     1     109.557 131.128 136.488  0.00  0.00    +0.000 A 
ATOM     13  C   UNL     1     108.781 131.017 136.232  0.00  0.00    +0.000 A 
ENDROOT
BRANCH  12  16
ATOM     14  O   UNL     1     110.117 133.184 138.391  0.00  0.00    +0.000 OA
ATOM     15  O   UNL     1     110.654 134.163 137.177  0.00  0.00    +0.000 OA
ATOM     16  C   UNL     1     109.831 131.886 136.660  0.00  0.00    +0.000 A 
ATOM     17  C   UNL     1     109.837 132.156 137.440  0.00  0.00    +0.000 A 
ATOM     18  C   UNL     1     110.100 132.376 136.052  0.00  0.00    +0.000 A 
ATOM     19  C   UNL     1     110.111 132.914 137.612  0.00  0.00    +0.000 A 
ATOM     20  C   UNL     1     110.374 133.135 136.224  0.00  0.00    +0.000 A 
ATOM     21  C   UNL     1     110.380 133.404 137.004  0.00  0.00    +0.000 A 
ENDBRANCH  12  16
BRANCH   5  22
ATOM     22  O   UNL     1     111.095 129.172 136.746  0.00  0.00    +0.000 OA
BRANCH  22  30
ATOM     23  O   UNL     1     110.699 128.908 138.093  0.00  0.00    +0.000 OA
ATOM     24  O   UNL     1     113.073 128.921 138.793  0.00  0.00    +0.000 OA
ATOM     25  O   UNL     1     112.678 129.181 137.213  0.00  0.00    +0.000 OA
ATOM     26  O   UNL     1     111.886 128.653 139.907  0.00  0.00    +0.000 OA
ATOM     27  C   UNL     1     112.282 128.917 138.560  0.00  0.00    +0.000 C 
ATOM     28  C   UNL     1     112.085 129.047 137.769  0.00  0.00    +0.000 C 
ATOM     29  C   UNL     1     111.689 128.783 139.117  0.00  0.00    +0.000 C 
ATOM     30  C   UNL     1     111.293 129.042 137.536  0.00  0.00    +0.000 C 
ATOM     31  C   UNL     1     110.897 128.779 138.883  0.00  0.00    +0.000 C 
BRANCH  31  34
ATOM     32  O   UNL     1     109.916 129.282 139.792  0.00  0.00    +0.000 OA
ATOM     33  O   UNL     1     110.097 127.873 139.645  0.00  0.00    +0.000 OA
ATOM     34  C   UNL     1     110.304 128.645 139.440  0.00  0.00    +0.000 C 
ENDBRANCH  31  34
ENDBRANCH  22  30
ENDBRANCH   5  22
BRANCH  13  35
ATOM     35  O   UNL     1     108.278 131.667 136.149  0.00  0.00    +0.000 OA
BRANCH  35  36
ATOM     36  S   UNL     1     107.475 131.549 136.001  0.00  0.00    +0.000 S 
ATOM     37  O   UNL     1     106.671 131.431 135.854  0.00  0.00    +0.000 OA
ATOM     38  O   UNL     1     107.334 131.492 136.812  0.00  0.00    +0.000 OA
ATOM     39  O   UNL     1     107.615 131.606 135.190  0.00  0.00    +0.000 OA
ENDBRANCH  35  36
ENDBRANCH  13  35
TORSDOF 6
ENDMDL
MODEL 6
REMARK VINA RESULT:      -9.5      1.992      4.442
REMARK  Name = 73829986
REMARK  6 active torsions:
REMARK  status: ('A' for Active; 'I' for Inactive)
REMARK    1  A    between atoms: S_1  and  O_12
REMARK    2  A    between atoms: O_3  and  C_22
REMARK    3  A    between atoms: O_3  and  C_25
REMARK    4  A    between atoms: O_12  and  C_33
REMARK    5  A    between atoms: C_23  and  C_24
REMARK    6  A    between atoms: C_32  and  C_34
REMARK                            x       y       z     vdW  Elec       q    Type
REMARK                         _______ _______ _______ _____ _____    ______ ____
ROOT
ATOM      1  O   UNL     1     112.715 127.727 136.733  0.00  0.00    +0.000 OA
ATOM      2  O   UNL     1     111.737 130.426 136.246  0.00  0.00    +0.000 OA
ATOM      3  O   UNL     1     110.070 128.108 135.635  0.00  0.00    +0.000 OA
ATOM      4  O   UNL     1     110.587 126.785 135.889  0.00  0.00    +0.000 OA
ATOM      5  C   UNL     1     112.244 129.080 136.496  0.00  0.00    +0.000 A 
ATOM      6  C   UNL     1     112.117 128.230 136.471  0.00  0.00    +0.000 A 
ATOM      7  C   UNL     1     111.408 127.917 136.190  0.00  0.00    +0.000 A 
ATOM      8  C   UNL     1     111.624 129.609 136.225  0.00  0.00    +0.000 A 
ATOM      9  C   UNL     1     110.777 128.430 135.914  0.00  0.00    +0.000 A 
ATOM     10  C   UNL     1     110.886 129.282 135.932  0.00  0.00    +0.000 A 
ATOM     11  C   UNL     1     111.297 127.099 136.170  0.00  0.00    +0.000 A 
ATOM     12  C   UNL     1     112.605 126.909 136.714  0.00  0.00    +0.000 A 
ATOM     13  C   UNL     1     111.896 126.596 136.432  0.00  0.00    +0.000 A 
ENDROOT
BRANCH  12  16
ATOM     14  O   UNL     1     114.976 125.401 136.193  0.00  0.00    +0.000 OA
ATOM     15  O   UNL     1     115.000 124.896 137.763  0.00  0.00    +0.000 OA
ATOM     16  C   UNL     1     113.204 126.406 136.975  0.00  0.00    +0.000 A 
ATOM     17  C   UNL     1     113.791 126.155 136.453  0.00  0.00    +0.000 A 
ATOM     18  C   UNL     1     113.216 126.153 137.762  0.00  0.00    +0.000 A 
ATOM     19  C   UNL     1     114.389 125.652 136.715  0.00  0.00    +0.000 A 
ATOM     20  C   UNL     1     113.814 125.650 138.024  0.00  0.00    +0.000 A 
ATOM     21  C   UNL     1     114.401 125.399 137.501  0.00  0.00    +0.000 A 
ENDBRANCH  12  16
BRANCH   5  22
ATOM     22  O   UNL     1     112.957 129.385 136.779  0.00  0.00    +0.000 OA
BRANCH  22  30
ATOM     23  O   UNL     1     112.403 129.524 138.089  0.00  0.00    +0.000 OA
ATOM     24  O   UNL     1     114.323 130.939 138.751  0.00  0.00    +0.000 OA
ATOM     25  O   UNL     1     114.237 130.328 137.220  0.00  0.00    +0.000 OA
ATOM     26  O   UNL     1     113.129 130.606 139.839  0.00  0.00    +0.000 OA
ATOM     27  C   UNL     1     113.683 130.467 138.530  0.00  0.00    +0.000 C 
ATOM     28  C   UNL     1     113.640 130.162 137.765  0.00  0.00    +0.000 C 
ATOM     29  C   UNL     1     113.086 130.301 139.075  0.00  0.00    +0.000 C 
ATOM     30  C   UNL     1     112.999 129.690 137.544  0.00  0.00    +0.000 C 
ATOM     31  C   UNL     1     112.445 129.829 138.854  0.00  0.00    +0.000 C 
BRANCH  31  34
ATOM     32  O   UNL     1     111.237 130.204 139.518  0.00  0.00    +0.000 OA
ATOM     33  O   UNL     1     111.864 128.957 139.824  0.00  0.00    +0.000 OA
ATOM     34  C   UNL     1     111.849 129.663 139.398  0.00  0.00    +0.000 C 
ENDBRANCH  31  34
ENDBRANCH  22  30
ENDBRANCH   5  22
BRANCH  13  35
ATOM     35  O   UNL     1     111.786 125.778 136.413  0.00  0.00    +0.000 OA
BRANCH  35  36
ATOM     36  S   UNL     1     111.113 125.461 136.054  0.00  0.00    +0.000 S 
ATOM     37  O   UNL     1     110.441 125.145 135.696  0.00  0.00    +0.000 OA
ATOM     38  O   UNL     1     110.736 125.432 136.787  0.00  0.00    +0.000 OA
ATOM     39  O   UNL     1     111.490 125.490 135.320  0.00  0.00    +0.000 OA
ENDBRANCH  35  36
ENDBRANCH  13  35
TORSDOF 6
ENDMDL
MODEL 7
REMARK VINA RESULT:      -9.4      8.359     10.128
REMARK  Name = 73829986
REMARK  6 active torsions:
REMARK  status: ('A' for Active; 'I' for Inactive)
REMARK    1  A    between atoms: S_1  and  O_12
REMARK    2  A    between atoms: O_3  and  C_22
REMARK    3  A    between atoms: O_3  and  C_25
REMARK    4  A    between atoms: O_12  and  C_33
REMARK    5  A    between atoms: C_23  and  C_24
REMARK    6  A    between atoms: C_32  and  C_34
REMARK                            x       y       z     vdW  Elec       q    Type
REMARK                         _______ _______ _______ _____ _____    ______ ____
ROOT
ATOM      1  O   UNL     1     103.401 130.279 142.302  0.00  0.00    +0.000 OA
ATOM      2  O   UNL     1     105.438 128.591 143.519  0.00  0.00    +0.000 OA
ATOM      3  O   UNL     1     104.232 127.858 140.963  0.00  0.00    +0.000 OA
ATOM      4  O   UNL     1     103.225 128.718 140.390  0.00  0.00    +0.000 OA
ATOM      5  C   UNL     1     104.418 129.450 142.924  0.00  0.00    +0.000 A 
ATOM      6  C   UNL     1     103.871 129.602 142.278  0.00  0.00    +0.000 A 
ATOM      7  C   UNL     1     103.813 129.082 141.641  0.00  0.00    +0.000 A 
ATOM      8  C   UNL     1     104.910 128.746 142.904  0.00  0.00    +0.000 A 
ATOM      9  C   UNL     1     104.297 128.373 141.605  0.00  0.00    +0.000 A 
ATOM     10  C   UNL     1     104.849 128.204 142.240  0.00  0.00    +0.000 A 
ATOM     11  C   UNL     1     103.284 129.239 141.027  0.00  0.00    +0.000 A 
ATOM     12  C   UNL     1     102.872 130.437 141.689  0.00  0.00    +0.000 A 
ATOM     13  C   UNL     1     102.814 129.916 141.051  0.00  0.00    +0.000 A 
ENDROOT
BRANCH  12  16
ATOM     14  O   UNL     1     102.532 133.233 141.206  0.00  0.00    +0.000 OA
ATOM     15  O   UNL     1     100.991 133.146 141.787  0.00  0.00    +0.000 OA
ATOM     16  C   UNL     1     102.402 131.114 141.713  0.00  0.00    +0.000 A 
ATOM     17  C   UNL     1     102.702 131.835 141.447  0.00  0.00    +0.000 A 
ATOM     18  C   UNL     1     101.630 131.070 142.004  0.00  0.00    +0.000 A 
ATOM     19  C   UNL     1     102.232 132.512 141.472  0.00  0.00    +0.000 A 
ATOM     20  C   UNL     1     101.161 131.748 142.028  0.00  0.00    +0.000 A 
ATOM     21  C   UNL     1     101.461 132.469 141.762  0.00  0.00    +0.000 A 
ENDBRANCH  12  16
BRANCH   5  22
ATOM     22  O   UNL     1     104.470 129.976 143.557  0.00  0.00    +0.000 OA
BRANCH  22  30
ATOM     23  O   UNL     1     105.578 130.624 142.929  0.00  0.00    +0.000 OA
ATOM     24  O   UNL     1     105.816 132.116 144.890  0.00  0.00    +0.000 OA
ATOM     25  O   UNL     1     104.629 130.970 144.864  0.00  0.00    +0.000 OA
ATOM     26  O   UNL     1     106.843 132.267 143.609  0.00  0.00    +0.000 OA
ATOM     27  C   UNL     1     105.736 131.619 144.237  0.00  0.00    +0.000 C 
ATOM     28  C   UNL     1     105.142 131.046 144.224  0.00  0.00    +0.000 C 
ATOM     29  C   UNL     1     106.250 131.694 143.597  0.00  0.00    +0.000 C 
ATOM     30  C   UNL     1     105.063 130.548 143.570  0.00  0.00    +0.000 C 
ATOM     31  C   UNL     1     106.171 131.197 142.942  0.00  0.00    +0.000 C 
BRANCH  31  34
ATOM     32  O   UNL     1     107.427 130.912 142.322  0.00  0.00    +0.000 OA
ATOM     33  O   UNL     1     106.457 131.710 141.640  0.00  0.00    +0.000 OA
ATOM     34  C   UNL     1     106.685 131.273 142.302  0.00  0.00    +0.000 C 
ENDBRANCH  31  34
ENDBRANCH  22  30
ENDBRANCH   5  22
BRANCH  13  35
ATOM     35  O   UNL     1     102.285 130.074 140.438  0.00  0.00    +0.000 OA
BRANCH  35  36
ATOM     36  S   UNL     1     102.381 129.705 139.706  0.00  0.00    +0.000 S 
ATOM     37  O   UNL     1     102.478 129.336 138.974  0.00  0.00    +0.000 OA
ATOM     38  O   UNL     1     102.961 130.256 139.504  0.00  0.00    +0.000 OA
ATOM     39  O   UNL     1     101.802 129.153 139.907  0.00  0.00    +0.000 OA
ENDBRANCH  35  36
ENDBRANCH  13  35
TORSDOF 6
ENDMDL
MODEL 8
REMARK VINA RESULT:      -9.3      1.852      3.155
REMARK  Name = 73829986
REMARK  6 active torsions:
REMARK  status: ('A' for Active; 'I' for Inactive)
REMARK    1  A    between atoms: S_1  and  O_12
REMARK    2  A    between atoms: O_3  and  C_22
REMARK    3  A    between atoms: O_3  and  C_25
REMARK    4  A    between atoms: O_12  and  C_33
REMARK    5  A    between atoms: C_23  and  C_24
REMARK    6  A    between atoms: C_32  and  C_34
REMARK                            x       y       z     vdW  Elec       q    Type
REMARK                         _______ _______ _______ _____ _____    ______ ____
ROOT
ATOM      1  O   UNL     1     112.163 127.995 137.835  0.00  0.00    +0.000 OA
ATOM      2  O   UNL     1     112.615 126.012 139.918  0.00  0.00    +0.000 OA
ATOM      3  O   UNL     1     113.812 128.669 140.110  0.00  0.00    +0.000 OA
ATOM      4  O   UNL     1     113.567 129.626 139.059  0.00  0.00    +0.000 OA
ATOM      5  C   UNL     1     112.378 126.994 138.864  0.00  0.00    +0.000 A 
ATOM      6  C   UNL     1     112.511 127.784 138.552  0.00  0.00    +0.000 A 
ATOM      7  C   UNL     1     112.978 128.327 138.960  0.00  0.00    +0.000 A 
ATOM      8  C   UNL     1     112.737 126.768 139.611  0.00  0.00    +0.000 A 
ATOM      9  C   UNL     1     113.346 128.119 139.708  0.00  0.00    +0.000 A 
ATOM     10  C   UNL     1     113.225 127.334 140.036  0.00  0.00    +0.000 A 
ATOM     11  C   UNL     1     113.099 129.083 138.650  0.00  0.00    +0.000 A 
ATOM     12  C   UNL     1     112.283 128.751 137.524  0.00  0.00    +0.000 A 
ATOM     13  C   UNL     1     112.751 129.294 137.933  0.00  0.00    +0.000 A 
ENDROOT
BRANCH  12  16
ATOM     14  O   UNL     1     112.352 128.831 134.669  0.00  0.00    +0.000 OA
ATOM     15  O   UNL     1     110.891 129.596 134.655  0.00  0.00    +0.000 OA
ATOM     16  C   UNL     1     111.936 128.962 136.807  0.00  0.00    +0.000 A 
ATOM     17  C   UNL     1     112.318 128.791 136.096  0.00  0.00    +0.000 A 
ATOM     18  C   UNL     1     111.204 129.345 136.801  0.00  0.00    +0.000 A 
ATOM     19  C   UNL     1     111.970 129.002 135.380  0.00  0.00    +0.000 A 
ATOM     20  C   UNL     1     110.856 129.556 136.083  0.00  0.00    +0.000 A 
ATOM     21  C   UNL     1     111.238 129.385 135.372  0.00  0.00    +0.000 A 
ENDBRANCH  12  16
BRANCH   5  22
ATOM     22  O   UNL     1     111.909 126.457 138.449  0.00  0.00    +0.000 OA
BRANCH  22  30
ATOM     23  O   UNL     1     113.066 125.907 137.818  0.00  0.00    +0.000 OA
ATOM     24  O   UNL     1     111.712 124.009 136.987  0.00  0.00    +0.000 OA
ATOM     25  O   UNL     1     111.005 125.192 137.895  0.00  0.00    +0.000 OA
ATOM     26  O   UNL     1     113.320 124.092 136.633  0.00  0.00    +0.000 OA
ATOM     27  C   UNL     1     112.163 124.642 137.264  0.00  0.00    +0.000 C 
ATOM     28  C   UNL     1     111.809 125.233 137.718  0.00  0.00    +0.000 C 
ATOM     29  C   UNL     1     112.967 124.683 137.087  0.00  0.00    +0.000 C 
ATOM     30  C   UNL     1     112.262 125.866 137.995  0.00  0.00    +0.000 C 
ATOM     31  C   UNL     1     113.419 125.316 137.364  0.00  0.00    +0.000 C 
BRANCH  31  34
ATOM     32  O   UNL     1     114.770 124.945 137.648  0.00  0.00    +0.000 OA
ATOM     33  O   UNL     1     114.482 125.810 136.547  0.00  0.00    +0.000 OA
ATOM     34  C   UNL     1     114.223 125.357 137.187  0.00  0.00    +0.000 C 
ENDBRANCH  31  34
ENDBRANCH  22  30
ENDBRANCH   5  22
BRANCH  13  35
ATOM     35  O   UNL     1     112.871 130.050 137.623  0.00  0.00    +0.000 OA
BRANCH  35  36
ATOM     36  S   UNL     1     113.490 130.516 137.904  0.00  0.00    +0.000 S 
ATOM     37  O   UNL     1     114.109 130.984 138.186  0.00  0.00    +0.000 OA
ATOM     38  O   UNL     1     112.960 130.937 138.375  0.00  0.00    +0.000 OA
ATOM     39  O   UNL     1     114.022 130.096 137.433  0.00  0.00    +0.000 OA
ENDBRANCH  35  36
ENDBRANCH  13  35
TORSDOF 6
ENDMDL
MODEL 9
REMARK VINA RESULT:      -9.3      1.623      1.961
REMARK  Name = 73829986
REMARK  6 active torsions:
REMARK  status: ('A' for Active; 'I' for Inactive)
REMARK    1  A    between atoms: S_1  and  O_12
REMARK    2  A    between atoms: O_3  and  C_22
REMARK    3  A    between atoms: O_3  and  C_25
REMARK    4  A    between atoms: O_12  and  C_33
REMARK    5  A    between atoms: C_23  and  C_24
REMARK    6  A    between atoms: C_32  and  C_34
REMARK                            x       y       z     vdW  Elec       q    Type
REMARK                         _______ _______ _______ _____ _____    ______ ____
ROOT
ATOM      1  O   UNL     1     112.893 128.022 137.381  0.00  0.00    +0.000 OA
ATOM      2  O   UNL     1     112.236 126.113 139.480  0.00  0.00    +0.000 OA
ATOM      3  O   UNL     1     110.391 128.272 138.803  0.00  0.00    +0.000 OA
ATOM      4  O   UNL     1     110.749 129.200 137.758  0.00  0.00    +0.000 OA
ATOM      5  C   UNL     1     112.582 127.061 138.425  0.00  0.00    +0.000 A 
ATOM      6  C   UNL     1     112.370 127.752 137.959  0.00  0.00    +0.000 A 
ATOM      7  C   UNL     1     111.656 128.144 138.085  0.00  0.00    +0.000 A 
ATOM      8  C   UNL     1     112.042 126.776 139.028  0.00  0.00    +0.000 A 
ATOM      9  C   UNL     1     111.103 127.873 138.685  0.00  0.00    +0.000 A 
ATOM     10  C   UNL     1     111.298 127.184 139.159  0.00  0.00    +0.000 A 
ATOM     11  C   UNL     1     111.464 128.807 137.632  0.00  0.00    +0.000 A 
ATOM     12  C   UNL     1     112.701 128.685 136.928  0.00  0.00    +0.000 A 
ATOM     13  C   UNL     1     111.987 129.077 137.054  0.00  0.00    +0.000 A 
ENDROOT
BRANCH  12  16
ATOM     14  O   UNL     1     114.970 130.251 136.178  0.00  0.00    +0.000 OA
ATOM     15  O   UNL     1     114.792 129.761 134.613  0.00  0.00    +0.000 OA
ATOM     16  C   UNL     1     113.224 128.954 136.350  0.00  0.00    +0.000 A 
ATOM     17  C   UNL     1     113.836 129.468 136.553  0.00  0.00    +0.000 A 
ATOM     18  C   UNL     1     113.134 128.708 135.566  0.00  0.00    +0.000 A 
ATOM     19  C   UNL     1     114.358 129.737 135.975  0.00  0.00    +0.000 A 
ATOM     20  C   UNL     1     113.657 128.977 134.988  0.00  0.00    +0.000 A 
ATOM     21  C   UNL     1     114.269 129.492 135.191  0.00  0.00    +0.000 A 
ENDBRANCH  12  16
BRANCH   5  22
ATOM     22  O   UNL     1     113.299 126.675 138.292  0.00  0.00    +0.000 OA
BRANCH  22  30
ATOM     23  O   UNL     1     112.658 125.762 137.399  0.00  0.00    +0.000 OA
ATOM     24  O   UNL     1     114.697 124.359 137.369  0.00  0.00    +0.000 OA
ATOM     25  O   UNL     1     114.658 125.739 138.272  0.00  0.00    +0.000 OA
ATOM     26  O   UNL     1     113.377 123.915 136.486  0.00  0.00    +0.000 OA
ATOM     27  C   UNL     1     114.017 124.827 137.379  0.00  0.00    +0.000 C 
ATOM     28  C   UNL     1     113.998 125.517 137.831  0.00  0.00    +0.000 C 
ATOM     29  C   UNL     1     113.357 124.604 136.938  0.00  0.00    +0.000 C 
ATOM     30  C   UNL     1     113.318 125.985 137.841  0.00  0.00    +0.000 C 
ATOM     31  C   UNL     1     112.677 125.072 136.947  0.00  0.00    +0.000 C 
BRANCH  31  34
ATOM     32  O   UNL     1     111.502 124.274 136.795  0.00  0.00    +0.000 OA
ATOM     33  O   UNL     1     111.872 125.203 135.775  0.00  0.00    +0.000 OA
ATOM     34  C   UNL     1     112.017 124.850 136.506  0.00  0.00    +0.000 C 
ENDBRANCH  31  34
ENDBRANCH  22  30
ENDBRANCH   5  22
BRANCH  13  35
ATOM     35  O   UNL     1     111.795 129.740 136.600  0.00  0.00    +0.000 OA
BRANCH  35  36
ATOM     36  S   UNL     1     111.195 130.249 136.849  0.00  0.00    +0.000 S 
ATOM     37  O   UNL     1     110.596 130.758 137.098  0.00  0.00    +0.000 OA
ATOM     38  O   UNL     1     111.717 130.605 137.379  0.00  0.00    +0.000 OA
ATOM     39  O   UNL     1     110.672 129.893 136.319  0.00  0.00    +0.000 OA
ENDBRANCH  35  36
ENDBRANCH  13  35
TORSDOF 6
ENDMDL
MODEL 10
REMARK VINA RESULT:      -9.3      1.574      4.502
REMARK  Name = 73829986
REMARK  6 active torsions:
REMARK  status: ('A' for Active; 'I' for Inactive)
REMARK    1  A    between atoms: S_1  and  O_12
REMARK    2  A    between atoms: O_3  and  C_22
REMARK    3  A    between atoms: O_3  and  C_25
REMARK    4  A    between atoms: O_12  and  C_33
REMARK    5  A    between atoms: C_23  and  C_24
REMARK    6  A    between atoms: C_32  and  C_34
REMARK                            x       y       z     vdW  Elec       q    Type
REMARK                         _______ _______ _______ _____ _____    ______ ____
ROOT
ATOM      1  O   UNL     1     112.466 127.259 136.877  0.00  0.00    +0.000 OA
ATOM      2  O   UNL     1     111.210 129.671 135.835  0.00  0.00    +0.000 OA
ATOM      3  O   UNL     1     109.909 128.101 137.926  0.00  0.00    +0.000 OA
ATOM      4  O   UNL     1     110.560 126.912 138.418  0.00  0.00    +0.000 OA
ATOM      5  C   UNL     1     111.854 128.464 136.346  0.00  0.00    +0.000 A 
ATOM      6  C   UNL     1     111.837 127.791 136.881  0.00  0.00    +0.000 A 
ATOM      7  C   UNL     1     111.202 127.676 137.394  0.00  0.00    +0.000 A 
ATOM      8  C   UNL     1     111.202 129.022 136.346  0.00  0.00    +0.000 A 
ATOM      9  C   UNL     1     110.540 128.224 137.408  0.00  0.00    +0.000 A 
ATOM     10  C   UNL     1     110.540 128.902 136.880  0.00  0.00    +0.000 A 
ATOM     11  C   UNL     1     111.196 127.027 137.904  0.00  0.00    +0.000 A 
ATOM     12  C   UNL     1     112.461 126.609 137.386  0.00  0.00    +0.000 A 
ATOM     13  C   UNL     1     111.825 126.494 137.900  0.00  0.00    +0.000 A 
ENDROOT
BRANCH  12  16
ATOM     14  O   UNL     1     113.769 124.332 136.260  0.00  0.00    +0.000 OA
ATOM     15  O   UNL     1     114.980 124.479 137.369  0.00  0.00    +0.000 OA
ATOM     16  C   UNL     1     113.090 126.077 137.382  0.00  0.00    +0.000 A 
ATOM     17  C   UNL     1     113.115 125.470 136.823  0.00  0.00    +0.000 A 
ATOM     18  C   UNL     1     113.697 126.150 137.938  0.00  0.00    +0.000 A 
ATOM     19  C   UNL     1     113.744 124.938 136.819  0.00  0.00    +0.000 A 
ATOM     20  C   UNL     1     114.326 125.617 137.933  0.00  0.00    +0.000 A 
ATOM     21  C   UNL     1     114.351 125.011 137.374  0.00  0.00    +0.000 A 
ENDBRANCH  12  16
BRANCH   5  22
ATOM     22  O   UNL     1     112.494 128.572 135.835  0.00  0.00    +0.000 OA
BRANCH  22  30
ATOM     23  O   UNL     1     113.098 129.464 136.774  0.00  0.00    +0.000 OA
ATOM     24  O   UNL     1     114.889 129.967 135.142  0.00  0.00    +0.000 OA
ATOM     25  O   UNL     1     113.688 128.907 134.748  0.00  0.00    +0.000 OA
ATOM     26  O   UNL     1     114.896 130.691 136.624  0.00  0.00    +0.000 OA
ATOM     27  C   UNL     1     114.292 129.800 135.686  0.00  0.00    +0.000 C 
ATOM     28  C   UNL     1     113.692 129.269 135.488  0.00  0.00    +0.000 C 
ATOM     29  C   UNL     1     114.296 130.161 136.427  0.00  0.00    +0.000 C 
ATOM     30  C   UNL     1     113.094 129.101 136.033  0.00  0.00    +0.000 C 
ATOM     31  C   UNL     1     113.698 129.993 136.971  0.00  0.00    +0.000 C 
BRANCH  31  34
ATOM     32  O   UNL     1     114.020 129.961 138.363  0.00  0.00    +0.000 OA
ATOM     33  O   UNL     1     113.386 131.112 137.803  0.00  0.00    +0.000 OA
ATOM     34  C   UNL     1     113.701 130.355 137.712  0.00  0.00    +0.000 C 
ENDBRANCH  31  34
ENDBRANCH  22  30
ENDBRANCH   5  22
BRANCH  13  35
ATOM     35  O   UNL     1     111.820 125.844 138.409  0.00  0.00    +0.000 OA
BRANCH  35  36
ATOM     36  S   UNL     1     111.117 125.612 138.773  0.00  0.00    +0.000 S 
ATOM     37  O   UNL     1     110.414 125.381 139.138  0.00  0.00    +0.000 OA
ATOM     38  O   UNL     1     111.356 125.981 139.471  0.00  0.00    +0.000 OA
ATOM     39  O   UNL     1     110.877 125.243 138.075  0.00  0.00    +0.000 OA
ENDBRANCH  35  36
ENDBRANCH  13  35
TORSDOF 6
ENDMDL
