MODEL 1
REMARK VINA RESULT:      -8.5      0.000      0.000
REMARK  Name = 131752832
REMARK  3 active torsions:
REMARK  status: ('A' for Active; 'I' for Inactive)
REMARK    1  A    between atoms: O_6  and  C_18
REMARK    2  A    between atoms: O_7  and  C_20
REMARK    3  A    between atoms: C_8  and  C_10
REMARK                            x       y       z     vdW  Elec       q    Type
REMARK                         _______ _______ _______ _____ _____    ______ ____
ROOT
ATOM      1  O   UNL     1     104.600 123.700 138.030  0.00  0.00    +0.000 OA
ATOM      2  O   UNL     1     103.206 123.912 139.696  0.00  0.00    +0.000 OA
ATOM      3  O   UNL     1     102.181 123.448 138.489  0.00  0.00    +0.000 OA
ATOM      4  O   UNL     1     101.931 123.062 137.122  0.00  0.00    +0.000 OA
ATOM      5  C   UNL     1     104.306 123.848 138.787  0.00  0.00    +0.000 C 
ATOM      6  C   UNL     1     103.499 123.764 138.940  0.00  0.00    +0.000 C 
ATOM      7  C   UNL     1     102.987 123.532 138.336  0.00  0.00    +0.000 C 
ATOM      8  C   UNL     1     103.280 123.384 137.580  0.00  0.00    +0.000 A 
ATOM      9  C   UNL     1     104.087 123.468 137.427  0.00  0.00    +0.000 A 
ATOM     10  C   UNL     1     102.736 123.143 136.959  0.00  0.00    +0.000 A 
ATOM     11  C   UNL     1     104.405 123.317 136.642  0.00  0.00    +0.000 A 
ATOM     12  C   UNL     1     103.876 123.075 136.010  0.00  0.00    +0.000 A 
ATOM     13  C   UNL     1     103.036 122.988 136.170  0.00  0.00    +0.000 A 
ENDROOT
BRANCH   5  15
ATOM     14  O   UNL     1     105.304 122.740 139.493  0.00  0.00    +0.000 OA
ATOM     15  C   UNL     1     104.819 124.079 139.390  0.00  0.00    +0.000 A 
ATOM     16  C   UNL     1     105.318 123.526 139.743  0.00  0.00    +0.000 A 
ATOM     17  C   UNL     1     104.832 124.866 139.640  0.00  0.00    +0.000 A 
ATOM     18  C   UNL     1     105.345 125.098 140.242  0.00  0.00    +0.000 A 
ATOM     19  C   UNL     1     105.831 123.759 140.346  0.00  0.00    +0.000 A 
ATOM     20  C   UNL     1     105.845 124.544 140.596  0.00  0.00    +0.000 A 
BRANCH  18  21
ATOM     21  O   UNL     1     105.359 125.885 140.492  0.00  0.00    +0.000 OA
ATOM     22  C   UNL     1     105.586 126.068 141.264  0.00  0.00    +0.000 C 
ENDBRANCH  18  21
ENDBRANCH   5  15
BRANCH  12  23
ATOM     23  O   UNL     1     104.173 122.928 135.254  0.00  0.00    +0.000 OA
ATOM     24  C   UNL     1     104.306 123.555 134.735  0.00  0.00    +0.000 C 
ENDBRANCH  12  23
TORSDOF 3
ENDMDL
MODEL 2
REMARK VINA RESULT:      -8.5      7.626      9.311
REMARK  Name = 131752832
REMARK  3 active torsions:
REMARK  status: ('A' for Active; 'I' for Inactive)
REMARK    1  A    between atoms: O_6  and  C_18
REMARK    2  A    between atoms: O_7  and  C_20
REMARK    3  A    between atoms: C_8  and  C_10
REMARK                            x       y       z     vdW  Elec       q    Type
REMARK                         _______ _______ _______ _____ _____    ______ ____
ROOT
ATOM      1  O   UNL     1     104.970 124.303 147.200  0.00  0.00    +0.000 OA
ATOM      2  O   UNL     1     104.553 124.740 145.102  0.00  0.00    +0.000 OA
ATOM      3  O   UNL     1     106.040 125.435 145.277  0.00  0.00    +0.000 OA
ATOM      4  O   UNL     1     107.192 125.769 146.077  0.00  0.00    +0.000 OA
ATOM      5  C   UNL     1     104.583 124.333 146.471  0.00  0.00    +0.000 C 
ATOM      6  C   UNL     1     104.940 124.710 145.830  0.00  0.00    +0.000 C 
ATOM      7  C   UNL     1     105.683 125.058 145.918  0.00  0.00    +0.000 C 
ATOM      8  C   UNL     1     106.070 125.028 146.645  0.00  0.00    +0.000 A 
ATOM      9  C   UNL     1     105.713 124.651 147.286  0.00  0.00    +0.000 A 
ATOM     10  C   UNL     1     106.844 125.394 146.724  0.00  0.00    +0.000 A 
ATOM     11  C   UNL     1     106.106 124.613 148.050  0.00  0.00    +0.000 A 
ATOM     12  C   UNL     1     106.880 124.973 148.147  0.00  0.00    +0.000 A 
ATOM     13  C   UNL     1     107.251 125.366 147.479  0.00  0.00    +0.000 A 
ENDROOT
BRANCH   5  15
ATOM     14  O   UNL     1     104.454 122.790 145.901  0.00  0.00    +0.000 OA
ATOM     15  C   UNL     1     103.840 123.985 146.385  0.00  0.00    +0.000 A 
ATOM     16  C   UNL     1     103.776 123.214 146.100  0.00  0.00    +0.000 A 
ATOM     17  C   UNL     1     103.161 124.410 146.584  0.00  0.00    +0.000 A 
ATOM     18  C   UNL     1     102.418 124.062 146.498  0.00  0.00    +0.000 A 
ATOM     19  C   UNL     1     103.032 122.867 146.014  0.00  0.00    +0.000 A 
ATOM     20  C   UNL     1     102.353 123.291 146.212  0.00  0.00    +0.000 A 
BRANCH  18  21
ATOM     21  O   UNL     1     101.738 124.487 146.697  0.00  0.00    +0.000 OA
ATOM     22  C   UNL     1     101.184 124.159 147.211  0.00  0.00    +0.000 C 
ENDBRANCH  18  21
ENDBRANCH   5  15
BRANCH  12  23
ATOM     23  O   UNL     1     107.264 124.941 148.877  0.00  0.00    +0.000 OA
ATOM     24  C   UNL     1     107.615 124.238 149.127  0.00  0.00    +0.000 C 
ENDBRANCH  12  23
TORSDOF 3
ENDMDL
MODEL 3
REMARK VINA RESULT:      -8.0      7.667      9.091
REMARK  Name = 131752832
REMARK  3 active torsions:
REMARK  status: ('A' for Active; 'I' for Inactive)
REMARK    1  A    between atoms: O_6  and  C_18
REMARK    2  A    between atoms: O_7  and  C_20
REMARK    3  A    between atoms: C_8  and  C_10
REMARK                            x       y       z     vdW  Elec       q    Type
REMARK                         _______ _______ _______ _____ _____    ______ ____
ROOT
ATOM      1  O   UNL     1     103.869 124.618 147.458  0.00  0.00    +0.000 OA
ATOM      2  O   UNL     1     105.524 124.223 146.091  0.00  0.00    +0.000 OA
ATOM      3  O   UNL     1     104.275 123.510 145.283  0.00  0.00    +0.000 OA
ATOM      4  O   UNL     1     102.882 123.150 145.173  0.00  0.00    +0.000 OA
ATOM      5  C   UNL     1     104.629 124.605 147.137  0.00  0.00    +0.000 C 
ATOM      6  C   UNL     1     104.764 124.236 146.412  0.00  0.00    +0.000 C 
ATOM      7  C   UNL     1     104.139 123.879 146.008  0.00  0.00    +0.000 C 
ATOM      8  C   UNL     1     103.380 123.892 146.328  0.00  0.00    +0.000 A 
ATOM      9  C   UNL     1     103.245 124.261 147.054  0.00  0.00    +0.000 A 
ATOM     10  C   UNL     1     102.737 123.517 145.898  0.00  0.00    +0.000 A 
ATOM     11  C   UNL     1     102.457 124.281 147.398  0.00  0.00    +0.000 A 
ATOM     12  C   UNL     1     101.803 123.912 146.982  0.00  0.00    +0.000 A 
ATOM     13  C   UNL     1     101.944 123.527 146.227  0.00  0.00    +0.000 A 
ENDROOT
BRANCH   5  15
ATOM     14  O   UNL     1     104.869 126.233 147.016  0.00  0.00    +0.000 OA
ATOM     15  C   UNL     1     105.253 124.962 147.542  0.00  0.00    +0.000 A 
ATOM     16  C   UNL     1     105.373 125.776 147.481  0.00  0.00    +0.000 A 
ATOM     17  C   UNL     1     105.758 124.503 148.007  0.00  0.00    +0.000 A 
ATOM     18  C   UNL     1     106.382 124.860 148.412  0.00  0.00    +0.000 A 
ATOM     19  C   UNL     1     105.998 126.131 147.886  0.00  0.00    +0.000 A 
ATOM     20  C   UNL     1     106.502 125.674 148.352  0.00  0.00    +0.000 A 
BRANCH  18  21
ATOM     21  O   UNL     1     106.887 124.401 148.878  0.00  0.00    +0.000 OA
ATOM     22  C   UNL     1     107.694 124.567 148.896  0.00  0.00    +0.000 C 
ENDBRANCH  18  21
ENDBRANCH   5  15
BRANCH  12  23
ATOM     23  O   UNL     1     101.044 123.927 147.306  0.00  0.00    +0.000 OA
ATOM     24  C   UNL     1     100.786 123.301 147.778  0.00  0.00    +0.000 C 
ENDBRANCH  12  23
TORSDOF 3
ENDMDL
MODEL 4
REMARK VINA RESULT:      -7.8      7.143      7.947
REMARK  Name = 131752832
REMARK  3 active torsions:
REMARK  status: ('A' for Active; 'I' for Inactive)
REMARK    1  A    between atoms: O_6  and  C_18
REMARK    2  A    between atoms: O_7  and  C_20
REMARK    3  A    between atoms: C_8  and  C_10
REMARK                            x       y       z     vdW  Elec       q    Type
REMARK                         _______ _______ _______ _____ _____    ______ ____
ROOT
ATOM      1  O   UNL     1     111.328 126.022 136.122  0.00  0.00    +0.000 OA
ATOM      2  O   UNL     1     110.994 125.121 138.082  0.00  0.00    +0.000 OA
ATOM      3  O   UNL     1     109.687 126.121 137.972  0.00  0.00    +0.000 OA
ATOM      4  O   UNL     1     108.900 127.099 137.261  0.00  0.00    +0.000 OA
ATOM      5  C   UNL     1     111.434 125.554 136.795  0.00  0.00    +0.000 C 
ATOM      6  C   UNL     1     110.887 125.588 137.411  0.00  0.00    +0.000 C 
ATOM      7  C   UNL     1     110.234 126.088 137.356  0.00  0.00    +0.000 C 
ATOM      8  C   UNL     1     110.127 126.555 136.685  0.00  0.00    +0.000 A 
ATOM      9  C   UNL     1     110.674 126.522 136.068  0.00  0.00    +0.000 A 
ATOM     10  C   UNL     1     109.442 127.072 136.639  0.00  0.00    +0.000 A 
ATOM     11  C   UNL     1     110.573 127.003 135.363  0.00  0.00    +0.000 A 
ATOM     12  C   UNL     1     109.895 127.526 135.300  0.00  0.00    +0.000 A 
ATOM     13  C   UNL     1     109.325 127.561 135.942  0.00  0.00    +0.000 A 
ENDROOT
BRANCH   5  15
ATOM     14  O   UNL     1     111.394 124.062 136.092  0.00  0.00    +0.000 OA
ATOM     15  C   UNL     1     112.088 125.054 136.849  0.00  0.00    +0.000 A 
ATOM     16  C   UNL     1     112.068 124.308 136.498  0.00  0.00    +0.000 A 
ATOM     17  C   UNL     1     112.763 125.302 137.255  0.00  0.00    +0.000 A 
ATOM     18  C   UNL     1     113.417 124.802 137.310  0.00  0.00    +0.000 A 
ATOM     19  C   UNL     1     112.723 123.809 136.553  0.00  0.00    +0.000 A 
ATOM     20  C   UNL     1     113.397 124.055 136.958  0.00  0.00    +0.000 A 
BRANCH  18  21
ATOM     21  O   UNL     1     114.092 125.049 137.716  0.00  0.00    +0.000 OA
ATOM     22  C   UNL     1     114.837 124.941 137.379  0.00  0.00    +0.000 C 
ENDBRANCH  18  21
ENDBRANCH   5  15
BRANCH  12  23
ATOM     23  O   UNL     1     109.791 127.992 134.626  0.00  0.00    +0.000 OA
ATOM     24  C   UNL     1     110.074 128.767 134.614  0.00  0.00    +0.000 C 
ENDBRANCH  12  23
TORSDOF 3
ENDMDL
MODEL 5
REMARK VINA RESULT:      -7.8      7.728      9.164
REMARK  Name = 131752832
REMARK  3 active torsions:
REMARK  status: ('A' for Active; 'I' for Inactive)
REMARK    1  A    between atoms: O_6  and  C_18
REMARK    2  A    between atoms: O_7  and  C_20
REMARK    3  A    between atoms: C_8  and  C_10
REMARK                            x       y       z     vdW  Elec       q    Type
REMARK                         _______ _______ _______ _____ _____    ______ ____
ROOT
ATOM      1  O   UNL     1     104.496 124.126 146.931  0.00  0.00    +0.000 OA
ATOM      2  O   UNL     1     104.559 125.817 148.310  0.00  0.00    +0.000 OA
ATOM      3  O   UNL     1     102.932 125.651 148.094  0.00  0.00    +0.000 OA
ATOM      4  O   UNL     1     101.797 124.988 147.499  0.00  0.00    +0.000 OA
ATOM      5  C   UNL     1     104.789 124.718 147.427  0.00  0.00    +0.000 C 
ATOM      6  C   UNL     1     104.267 125.226 147.815  0.00  0.00    +0.000 C 
ATOM      7  C   UNL     1     103.453 125.142 147.706  0.00  0.00    +0.000 C 
ATOM      8  C   UNL     1     103.161 124.552 147.211  0.00  0.00    +0.000 A 
ATOM      9  C   UNL     1     103.683 124.043 146.824  0.00  0.00    +0.000 A 
ATOM     10  C   UNL     1     102.311 124.475 147.107  0.00  0.00    +0.000 A 
ATOM     11  C   UNL     1     103.390 123.423 146.305  0.00  0.00    +0.000 A 
ATOM     12  C   UNL     1     102.544 123.332 146.189  0.00  0.00    +0.000 A 
ATOM     13  C   UNL     1     102.001 123.861 146.592  0.00  0.00    +0.000 A 
ENDROOT
BRANCH   5  15
ATOM     14  O   UNL     1     105.691 125.533 146.312  0.00  0.00    +0.000 OA
ATOM     15  C   UNL     1     105.602 124.800 147.534  0.00  0.00    +0.000 A 
ATOM     16  C   UNL     1     106.053 125.208 146.977  0.00  0.00    +0.000 A 
ATOM     17  C   UNL     1     105.965 124.474 148.201  0.00  0.00    +0.000 A 
ATOM     18  C   UNL     1     106.779 124.557 148.308  0.00  0.00    +0.000 A 
ATOM     19  C   UNL     1     106.867 125.289 147.085  0.00  0.00    +0.000 A 
ATOM     20  C   UNL     1     107.230 124.964 147.750  0.00  0.00    +0.000 A 
BRANCH  18  21
ATOM     21  O   UNL     1     107.142 124.231 148.975  0.00  0.00    +0.000 OA
ATOM     22  C   UNL     1     107.846 124.553 149.258  0.00  0.00    +0.000 C 
ENDBRANCH  18  21
ENDBRANCH   5  15
BRANCH  12  23
ATOM     23  O   UNL     1     102.255 122.739 145.692  0.00  0.00    +0.000 OA
ATOM     24  C   UNL     1     101.594 122.883 145.220  0.00  0.00    +0.000 C 
ENDBRANCH  12  23
TORSDOF 3
ENDMDL
MODEL 6
REMARK VINA RESULT:      -7.7      7.465      9.585
REMARK  Name = 131752832
REMARK  3 active torsions:
REMARK  status: ('A' for Active; 'I' for Inactive)
REMARK    1  A    between atoms: O_6  and  C_18
REMARK    2  A    between atoms: O_7  and  C_20
REMARK    3  A    between atoms: C_8  and  C_10
REMARK                            x       y       z     vdW  Elec       q    Type
REMARK                         _______ _______ _______ _____ _____    ______ ____
ROOT
ATOM      1  O   UNL     1     103.020 124.618 147.363  0.00  0.00    +0.000 OA
ATOM      2  O   UNL     1     103.689 123.101 145.944  0.00  0.00    +0.000 OA
ATOM      3  O   UNL     1     105.116 123.851 146.293  0.00  0.00    +0.000 OA
ATOM      4  O   UNL     1     105.875 124.858 146.994  0.00  0.00    +0.000 OA
ATOM      5  C   UNL     1     103.005 123.986 146.831  0.00  0.00    +0.000 C 
ATOM      6  C   UNL     1     103.704 123.731 146.475  0.00  0.00    +0.000 C 
ATOM      7  C   UNL     1     104.417 124.107 146.650  0.00  0.00    +0.000 C 
ATOM      8  C   UNL     1     104.432 124.737 147.181  0.00  0.00    +0.000 A 
ATOM      9  C   UNL     1     103.733 124.992 147.538  0.00  0.00    +0.000 A 
ATOM     10  C   UNL     1     105.182 125.120 147.355  0.00  0.00    +0.000 A 
ATOM     11  C   UNL     1     103.736 125.649 148.093  0.00  0.00    +0.000 A 
ATOM     12  C   UNL     1     104.476 126.043 148.279  0.00  0.00    +0.000 A 
ATOM     13  C   UNL     1     105.204 125.777 147.908  0.00  0.00    +0.000 A 
ENDROOT
BRANCH   5  15
ATOM     14  O   UNL     1     102.302 122.990 147.943  0.00  0.00    +0.000 OA
ATOM     15  C   UNL     1     102.291 123.612 146.657  0.00  0.00    +0.000 A 
ATOM     16  C   UNL     1     101.940 123.113 147.213  0.00  0.00    +0.000 A 
ATOM     17  C   UNL     1     101.929 123.735 145.925  0.00  0.00    +0.000 A 
ATOM     18  C   UNL     1     101.215 123.360 145.751  0.00  0.00    +0.000 A 
ATOM     19  C   UNL     1     101.226 122.739 147.037  0.00  0.00    +0.000 A 
ATOM     20  C   UNL     1     100.863 122.862 146.307  0.00  0.00    +0.000 A 
BRANCH  18  21
ATOM     21  O   UNL     1     100.853 123.484 145.019  0.00  0.00    +0.000 OA
ATOM     22  C   UNL     1     100.710 122.845 144.517  0.00  0.00    +0.000 C 
ENDBRANCH  18  21
ENDBRANCH   5  15
BRANCH  12  23
ATOM     23  O   UNL     1     104.487 126.674 148.812  0.00  0.00    +0.000 OA
ATOM     24  C   UNL     1     104.576 127.446 148.534  0.00  0.00    +0.000 C 
ENDBRANCH  12  23
TORSDOF 3
ENDMDL
MODEL 7
REMARK VINA RESULT:      -7.6      7.337      8.652
REMARK  Name = 131752832
REMARK  3 active torsions:
REMARK  status: ('A' for Active; 'I' for Inactive)
REMARK    1  A    between atoms: O_6  and  C_18
REMARK    2  A    between atoms: O_7  and  C_20
REMARK    3  A    between atoms: C_8  and  C_10
REMARK                            x       y       z     vdW  Elec       q    Type
REMARK                         _______ _______ _______ _____ _____    ______ ____
ROOT
ATOM      1  O   UNL     1     104.590 124.687 145.707  0.00  0.00    +0.000 OA
ATOM      2  O   UNL     1     104.280 123.979 147.748  0.00  0.00    +0.000 OA
ATOM      3  O   UNL     1     105.697 124.806 147.917  0.00  0.00    +0.000 OA
ATOM      4  O   UNL     1     106.768 125.602 147.370  0.00  0.00    +0.000 OA
ATOM      5  C   UNL     1     104.250 124.313 146.360  0.00  0.00    +0.000 C 
ATOM      6  C   UNL     1     104.619 124.352 147.097  0.00  0.00    +0.000 C 
ATOM      7  C   UNL     1     105.328 124.766 147.180  0.00  0.00    +0.000 C 
ATOM      8  C   UNL     1     105.667 125.140 146.529  0.00  0.00    +0.000 A 
ATOM      9  C   UNL     1     105.298 125.100 145.792  0.00  0.00    +0.000 A 
ATOM     10  C   UNL     1     106.406 125.568 146.629  0.00  0.00    +0.000 A 
ATOM     11  C   UNL     1     105.642 125.486 145.105  0.00  0.00    +0.000 A 
ATOM     12  C   UNL     1     106.380 125.918 145.187  0.00  0.00    +0.000 A 
ATOM     13  C   UNL     1     106.764 125.959 145.954  0.00  0.00    +0.000 A 
ENDROOT
BRANCH   5  15
ATOM     14  O   UNL     1     104.244 122.819 145.659  0.00  0.00    +0.000 OA
ATOM     15  C   UNL     1     103.541 123.899 146.275  0.00  0.00    +0.000 A 
ATOM     16  C   UNL     1     103.538 123.152 145.924  0.00  0.00    +0.000 A 
ATOM     17  C   UNL     1     102.835 124.233 146.541  0.00  0.00    +0.000 A 
ATOM     18  C   UNL     1     102.126 123.820 146.456  0.00  0.00    +0.000 A 
ATOM     19  C   UNL     1     102.829 122.740 145.840  0.00  0.00    +0.000 A 
ATOM     20  C   UNL     1     102.123 123.073 146.105  0.00  0.00    +0.000 A 
BRANCH  18  21
ATOM     21  O   UNL     1     101.419 124.154 146.722  0.00  0.00    +0.000 OA
ATOM     22  C   UNL     1     100.857 123.682 147.098  0.00  0.00    +0.000 C 
ENDBRANCH  18  21
ENDBRANCH   5  15
BRANCH  12  23
ATOM     23  O   UNL     1     106.717 126.291 144.532  0.00  0.00    +0.000 OA
ATOM     24  C   UNL     1     106.478 127.053 144.324  0.00  0.00    +0.000 C 
ENDBRANCH  12  23
TORSDOF 3
ENDMDL
MODEL 8
REMARK VINA RESULT:      -7.5      9.004     10.354
REMARK  Name = 131752832
REMARK  3 active torsions:
REMARK  status: ('A' for Active; 'I' for Inactive)
REMARK    1  A    between atoms: O_6  and  C_18
REMARK    2  A    between atoms: O_7  and  C_20
REMARK    3  A    between atoms: C_8  and  C_10
REMARK                            x       y       z     vdW  Elec       q    Type
REMARK                         _______ _______ _______ _____ _____    ______ ____
ROOT
ATOM      1  O   UNL     1     113.615 126.998 136.361  0.00  0.00    +0.000 OA
ATOM      2  O   UNL     1     112.801 126.468 138.316  0.00  0.00    +0.000 OA
ATOM      3  O   UNL     1     112.733 128.115 138.386  0.00  0.00    +0.000 OA
ATOM      4  O   UNL     1     112.951 129.414 137.800  0.00  0.00    +0.000 OA
ATOM      5  C   UNL     1     113.354 126.546 137.001  0.00  0.00    +0.000 C 
ATOM      6  C   UNL     1     113.061 126.919 137.676  0.00  0.00    +0.000 C 
ATOM      7  C   UNL     1     113.027 127.743 137.711  0.00  0.00    +0.000 C 
ATOM      8  C   UNL     1     113.287 128.194 137.072  0.00  0.00    +0.000 A 
ATOM      9  C   UNL     1     113.580 127.821 136.397  0.00  0.00    +0.000 A 
ATOM     10  C   UNL     1     113.247 129.051 137.120  0.00  0.00    +0.000 A 
ATOM     11  C   UNL     1     113.854 128.281 135.723  0.00  0.00    +0.000 A 
ATOM     12  C   UNL     1     113.821 129.138 135.754  0.00  0.00    +0.000 A 
ATOM     13  C   UNL     1     113.516 129.526 136.457  0.00  0.00    +0.000 A 
ENDROOT
BRANCH   5  15
ATOM     14  O   UNL     1     114.762 125.762 137.357  0.00  0.00    +0.000 OA
ATOM     15  C   UNL     1     113.388 125.723 136.966  0.00  0.00    +0.000 A 
ATOM     16  C   UNL     1     114.092 125.331 137.143  0.00  0.00    +0.000 A 
ATOM     17  C   UNL     1     112.718 125.292 136.751  0.00  0.00    +0.000 A 
ATOM     18  C   UNL     1     112.752 124.468 136.716  0.00  0.00    +0.000 A 
ATOM     19  C   UNL     1     114.125 124.507 137.107  0.00  0.00    +0.000 A 
ATOM     20  C   UNL     1     113.455 124.076 136.894  0.00  0.00    +0.000 A 
BRANCH  18  21
ATOM     21  O   UNL     1     112.081 124.037 136.502  0.00  0.00    +0.000 OA
ATOM     22  C   UNL     1     111.856 123.379 136.945  0.00  0.00    +0.000 C 
ENDBRANCH  18  21
ENDBRANCH   5  15
BRANCH  12  23
ATOM     23  O   UNL     1     114.082 129.587 135.112  0.00  0.00    +0.000 OA
ATOM     24  C   UNL     1     114.874 129.813 135.063  0.00  0.00    +0.000 C 
ENDBRANCH  12  23
TORSDOF 3
ENDMDL
MODEL 9
REMARK VINA RESULT:      -7.4      8.489      9.360
REMARK  Name = 131752832
REMARK  3 active torsions:
REMARK  status: ('A' for Active; 'I' for Inactive)
REMARK    1  A    between atoms: O_6  and  C_18
REMARK    2  A    between atoms: O_7  and  C_20
REMARK    3  A    between atoms: C_8  and  C_10
REMARK                            x       y       z     vdW  Elec       q    Type
REMARK                         _______ _______ _______ _____ _____    ______ ____
ROOT
ATOM      1  O   UNL     1     112.336 126.982 136.382  0.00  0.00    +0.000 OA
ATOM      2  O   UNL     1     111.605 128.527 135.025  0.00  0.00    +0.000 OA
ATOM      3  O   UNL     1     110.628 127.263 134.613  0.00  0.00    +0.000 OA
ATOM      4  O   UNL     1     110.195 125.896 134.772  0.00  0.00    +0.000 OA
ATOM      5  C   UNL     1     112.255 127.708 135.998  0.00  0.00    +0.000 C 
ATOM      6  C   UNL     1     111.686 127.802 135.408  0.00  0.00    +0.000 C 
ATOM      7  C   UNL     1     111.197 127.169 135.203  0.00  0.00    +0.000 C 
ATOM      8  C   UNL     1     111.277 126.444 135.586  0.00  0.00    +0.000 A 
ATOM      9  C   UNL     1     111.846 126.350 136.176  0.00  0.00    +0.000 A 
ATOM     10  C   UNL     1     110.762 125.793 135.363  0.00  0.00    +0.000 A 
ATOM     11  C   UNL     1     111.940 125.599 136.583  0.00  0.00    +0.000 A 
ATOM     12  C   UNL     1     111.434 124.937 136.373  0.00  0.00    +0.000 A 
ATOM     13  C   UNL     1     110.841 125.035 135.759  0.00  0.00    +0.000 A 
ENDROOT
BRANCH   5  15
ATOM     14  O   UNL     1     111.905 128.625 137.324  0.00  0.00    +0.000 OA
ATOM     15  C   UNL     1     112.744 128.339 136.204  0.00  0.00    +0.000 A 
ATOM     16  C   UNL     1     112.569 128.798 136.867  0.00  0.00    +0.000 A 
ATOM     17  C   UNL     1     113.409 128.512 135.746  0.00  0.00    +0.000 A 
ATOM     18  C   UNL     1     113.898 129.144 135.952  0.00  0.00    +0.000 A 
ATOM     19  C   UNL     1     113.059 129.429 137.072  0.00  0.00    +0.000 A 
ATOM     20  C   UNL     1     113.723 129.602 136.615  0.00  0.00    +0.000 A 
BRANCH  18  21
ATOM     21  O   UNL     1     114.563 129.316 135.494  0.00  0.00    +0.000 OA
ATOM     22  C   UNL     1     114.850 130.089 135.459  0.00  0.00    +0.000 C 
ENDBRANCH  18  21
ENDBRANCH   5  15
BRANCH  12  23
ATOM     23  O   UNL     1     111.517 124.213 136.760  0.00  0.00    +0.000 OA
ATOM     24  C   UNL     1     112.162 123.727 136.589  0.00  0.00    +0.000 C 
ENDBRANCH  12  23
TORSDOF 3
ENDMDL
MODEL 10
REMARK VINA RESULT:      -7.4      7.834      9.086
REMARK  Name = 131752832
REMARK  3 active torsions:
REMARK  status: ('A' for Active; 'I' for Inactive)
REMARK    1  A    between atoms: O_6  and  C_18
REMARK    2  A    between atoms: O_7  and  C_20
REMARK    3  A    between atoms: C_8  and  C_10
REMARK                            x       y       z     vdW  Elec       q    Type
REMARK                         _______ _______ _______ _____ _____    ______ ____
ROOT
ATOM      1  O   UNL     1     112.235 126.228 138.073  0.00  0.00    +0.000 OA
ATOM      2  O   UNL     1     114.261 126.045 138.863  0.00  0.00    +0.000 OA
ATOM      3  O   UNL     1     114.289 124.909 137.666  0.00  0.00    +0.000 OA
ATOM      4  O   UNL     1     113.651 124.192 136.590  0.00  0.00    +0.000 OA
ATOM      5  C   UNL     1     112.907 126.356 138.536  0.00  0.00    +0.000 C 
ATOM      6  C   UNL     1     113.591 125.917 138.401  0.00  0.00    +0.000 C 
ATOM      7  C   UNL     1     113.605 125.349 137.802  0.00  0.00    +0.000 C 
ATOM      8  C   UNL     1     112.934 125.221 137.339  0.00  0.00    +0.000 A 
ATOM      9  C   UNL     1     112.250 125.660 137.475  0.00  0.00    +0.000 A 
ATOM     10  C   UNL     1     112.961 124.626 136.719  0.00  0.00    +0.000 A 
ATOM     11  C   UNL     1     111.544 125.536 136.999  0.00  0.00    +0.000 A 
ATOM     12  C   UNL     1     111.553 124.946 136.375  0.00  0.00    +0.000 A 
ATOM     13  C   UNL     1     112.266 124.489 136.233  0.00  0.00    +0.000 A 
ENDROOT
BRANCH   5  15
ATOM     14  O   UNL     1     112.185 126.016 139.980  0.00  0.00    +0.000 OA
ATOM     15  C   UNL     1     112.892 126.924 139.134  0.00  0.00    +0.000 A 
ATOM     16  C   UNL     1     112.531 126.754 139.857  0.00  0.00    +0.000 A 
ATOM     17  C   UNL     1     113.239 127.663 139.010  0.00  0.00    +0.000 A 
ATOM     18  C   UNL     1     113.224 128.230 139.608  0.00  0.00    +0.000 A 
ATOM     19  C   UNL     1     112.517 127.323 140.454  0.00  0.00    +0.000 A 
ATOM     20  C   UNL     1     112.863 128.060 140.330  0.00  0.00    +0.000 A 
BRANCH  18  21
ATOM     21  O   UNL     1     113.571 128.969 139.484  0.00  0.00    +0.000 OA
ATOM     22  C   UNL     1     113.901 129.381 140.118  0.00  0.00    +0.000 C 
ENDBRANCH  18  21
ENDBRANCH   5  15
BRANCH  12  23
ATOM     23  O   UNL     1     110.880 124.821 135.913  0.00  0.00    +0.000 OA
ATOM     24  C   UNL     1     110.621 125.408 135.394  0.00  0.00    +0.000 C 
ENDBRANCH  12  23
TORSDOF 3
ENDMDL
