MODEL 1
REMARK VINA RESULT:      -8.8      0.000      0.000
REMARK  Name = 5318083
REMARK  5 active torsions:
REMARK  status: ('A' for Active; 'I' for Inactive)
REMARK    1  A    between atoms: O_2  and  C_16
REMARK    2  A    between atoms: O_2  and  C_18
REMARK    3  A    between atoms: O_8  and  C_19
REMARK    4  A    between atoms: C_15  and  C_17
REMARK    5  A    between atoms: C_25  and  C_27
REMARK                            x       y       z     vdW  Elec       q    Type
REMARK                         _______ _______ _______ _____ _____    ______ ____
ROOT
ATOM      1  O   UNL     1     112.645 128.920 135.738  0.00  0.00    +0.000 OA
ATOM      2  O   UNL     1     112.076 126.233 136.655  0.00  0.00    +0.000 OA
ATOM      3  O   UNL     1     113.449 126.677 136.597  0.00  0.00    +0.000 OA
ATOM      4  C   UNL     1     110.740 127.825 135.989  0.00  0.00    +0.000 A 
ATOM      5  C   UNL     1     111.005 127.096 136.269  0.00  0.00    +0.000 A 
ATOM      6  C   UNL     1     111.283 128.423 135.816  0.00  0.00    +0.000 A 
ATOM      7  C   UNL     1     112.090 128.290 135.922  0.00  0.00    +0.000 A 
ATOM      8  C   UNL     1     112.354 127.560 136.202  0.00  0.00    +0.000 A 
ATOM      9  C   UNL     1     111.812 126.963 136.375  0.00  0.00    +0.000 A 
ATOM     10  C   UNL     1     113.192 127.409 136.317  0.00  0.00    +0.000 A 
ATOM     11  C   UNL     1     113.487 128.787 135.847  0.00  0.00    +0.000 A 
ATOM     12  C   UNL     1     113.763 128.027 136.138  0.00  0.00    +0.000 A 
ENDROOT
BRANCH  11  14
ATOM     13  O   UNL     1     115.648 131.182 135.152  0.00  0.00    +0.000 OA
ATOM     14  C   UNL     1     114.027 129.386 135.673  0.00  0.00    +0.000 A 
ATOM     15  C   UNL     1     114.389 129.412 134.932  0.00  0.00    +0.000 A 
ATOM     16  C   UNL     1     114.205 129.958 136.240  0.00  0.00    +0.000 A 
ATOM     17  C   UNL     1     114.930 130.011 134.758  0.00  0.00    +0.000 A 
ATOM     18  C   UNL     1     114.745 130.557 136.067  0.00  0.00    +0.000 A 
ATOM     19  C   UNL     1     115.108 130.583 135.326  0.00  0.00    +0.000 A 
ENDBRANCH  11  14
BRANCH   5  20
ATOM     20  O   UNL     1     110.462 126.499 136.442  0.00  0.00    +0.000 OA
ATOM     21  C   UNL     1     110.404 125.839 135.950  0.00  0.00    +0.000 C 
ENDBRANCH   5  20
BRANCH   4  22
ATOM     22  O   UNL     1     109.932 127.958 135.883  0.00  0.00    +0.000 OA
BRANCH  22  31
ATOM     23  O   UNL     1     109.692 128.817 136.999  0.00  0.00    +0.000 OA
ATOM     24  O   UNL     1     108.295 130.280 135.573  0.00  0.00    +0.000 OA
ATOM     25  O   UNL     1     108.521 130.651 137.164  0.00  0.00    +0.000 OA
ATOM     26  O   UNL     1     109.001 128.933 134.932  0.00  0.00    +0.000 OA
ATOM     27  C   UNL     1     108.761 129.792 136.048  0.00  0.00    +0.000 C 
ATOM     28  C   UNL     1     108.874 129.978 136.844  0.00  0.00    +0.000 C 
ATOM     29  C   UNL     1     109.114 129.118 135.728  0.00  0.00    +0.000 C 
ATOM     30  C   UNL     1     109.340 129.490 137.320  0.00  0.00    +0.000 C 
ATOM     31  C   UNL     1     109.580 128.631 136.203  0.00  0.00    +0.000 C 
BRANCH  30  33
ATOM     32  O   UNL     1     109.311 129.108 138.696  0.00  0.00    +0.000 OA
ATOM     33  C   UNL     1     109.452 129.676 138.115  0.00  0.00    +0.000 C 
ENDBRANCH  30  33
ENDBRANCH  22  31
ENDBRANCH   4  22
TORSDOF 5
ENDMDL
MODEL 2
REMARK VINA RESULT:      -8.7     10.048     13.025
REMARK  Name = 5318083
REMARK  5 active torsions:
REMARK  status: ('A' for Active; 'I' for Inactive)
REMARK    1  A    between atoms: O_2  and  C_16
REMARK    2  A    between atoms: O_2  and  C_18
REMARK    3  A    between atoms: O_8  and  C_19
REMARK    4  A    between atoms: C_15  and  C_17
REMARK    5  A    between atoms: C_25  and  C_27
REMARK                            x       y       z     vdW  Elec       q    Type
REMARK                         _______ _______ _______ _____ _____    ______ ____
ROOT
ATOM      1  O   UNL     1     104.138 124.478 146.046  0.00  0.00    +0.000 OA
ATOM      2  O   UNL     1     106.132 125.241 148.001  0.00  0.00    +0.000 OA
ATOM      3  O   UNL     1     104.917 124.606 148.452  0.00  0.00    +0.000 OA
ATOM      4  C   UNL     1     106.110 125.456 145.829  0.00  0.00    +0.000 A 
ATOM      5  C   UNL     1     106.361 125.496 146.613  0.00  0.00    +0.000 A 
ATOM      6  C   UNL     1     105.378 125.120 145.646  0.00  0.00    +0.000 A 
ATOM      7  C   UNL     1     104.898 124.825 146.249  0.00  0.00    +0.000 A 
ATOM      8  C   UNL     1     105.150 124.866 147.034  0.00  0.00    +0.000 A 
ATOM      9  C   UNL     1     105.880 125.201 147.216  0.00  0.00    +0.000 A 
ATOM     10  C   UNL     1     104.659 124.562 147.670  0.00  0.00    +0.000 A 
ATOM     11  C   UNL     1     103.634 124.169 146.669  0.00  0.00    +0.000 A 
ATOM     12  C   UNL     1     103.895 124.211 147.487  0.00  0.00    +0.000 A 
ENDROOT
BRANCH  11  14
ATOM     13  O   UNL     1     100.710 122.831 145.929  0.00  0.00    +0.000 OA
ATOM     14  C   UNL     1     102.903 123.835 146.484  0.00  0.00    +0.000 A 
ATOM     15  C   UNL     1     102.869 123.104 146.102  0.00  0.00    +0.000 A 
ATOM     16  C   UNL     1     102.206 124.230 146.681  0.00  0.00    +0.000 A 
ATOM     17  C   UNL     1     102.138 122.769 145.916  0.00  0.00    +0.000 A 
ATOM     18  C   UNL     1     101.475 123.896 146.496  0.00  0.00    +0.000 A 
ATOM     19  C   UNL     1     101.441 123.166 146.114  0.00  0.00    +0.000 A 
ENDBRANCH  11  14
BRANCH   5  20
ATOM     20  O   UNL     1     107.093 125.832 146.796  0.00  0.00    +0.000 OA
ATOM     21  C   UNL     1     107.655 125.392 147.209  0.00  0.00    +0.000 C 
ENDBRANCH   5  20
BRANCH   4  22
ATOM     22  O   UNL     1     106.590 125.751 145.226  0.00  0.00    +0.000 OA
BRANCH  22  31
ATOM     23  O   UNL     1     105.900 126.954 144.884  0.00  0.00    +0.000 OA
ATOM     24  O   UNL     1     106.066 126.367 142.485  0.00  0.00    +0.000 OA
ATOM     25  O   UNL     1     105.321 127.766 142.942  0.00  0.00    +0.000 OA
ATOM     26  O   UNL     1     106.701 125.360 143.627  0.00  0.00    +0.000 OA
ATOM     27  C   UNL     1     106.011 126.563 143.285  0.00  0.00    +0.000 C 
ATOM     28  C   UNL     1     105.638 127.262 143.514  0.00  0.00    +0.000 C 
ATOM     29  C   UNL     1     106.328 126.059 143.856  0.00  0.00    +0.000 C 
ATOM     30  C   UNL     1     105.582 127.458 144.313  0.00  0.00    +0.000 C 
ATOM     31  C   UNL     1     106.273 126.255 144.656  0.00  0.00    +0.000 C 
BRANCH  30  33
ATOM     32  O   UNL     1     105.517 128.606 145.162  0.00  0.00    +0.000 OA
ATOM     33  C   UNL     1     105.209 128.157 144.541  0.00  0.00    +0.000 C 
ENDBRANCH  30  33
ENDBRANCH  22  31
ENDBRANCH   4  22
TORSDOF 5
ENDMDL
MODEL 3
REMARK VINA RESULT:      -8.6      9.385     11.975
REMARK  Name = 5318083
REMARK  5 active torsions:
REMARK  status: ('A' for Active; 'I' for Inactive)
REMARK    1  A    between atoms: O_2  and  C_16
REMARK    2  A    between atoms: O_2  and  C_18
REMARK    3  A    between atoms: O_8  and  C_19
REMARK    4  A    between atoms: C_15  and  C_17
REMARK    5  A    between atoms: C_25  and  C_27
REMARK                            x       y       z     vdW  Elec       q    Type
REMARK                         _______ _______ _______ _____ _____    ______ ____
ROOT
ATOM      1  O   UNL     1     105.446 126.402 144.321  0.00  0.00    +0.000 OA
ATOM      2  O   UNL     1     107.230 126.605 146.592  0.00  0.00    +0.000 OA
ATOM      3  O   UNL     1     107.279 127.624 145.570  0.00  0.00    +0.000 OA
ATOM      4  C   UNL     1     105.723 125.107 146.093  0.00  0.00    +0.000 A 
ATOM      5  C   UNL     1     106.320 125.508 146.497  0.00  0.00    +0.000 A 
ATOM      6  C   UNL     1     105.438 125.405 145.377  0.00  0.00    +0.000 A 
ATOM      7  C   UNL     1     105.751 126.102 145.067  0.00  0.00    +0.000 A 
ATOM      8  C   UNL     1     106.348 126.502 145.472  0.00  0.00    +0.000 A 
ATOM      9  C   UNL     1     106.633 126.206 146.186  0.00  0.00    +0.000 A 
ATOM     10  C   UNL     1     106.682 127.230 145.159  0.00  0.00    +0.000 A 
ATOM     11  C   UNL     1     105.768 127.127 143.993  0.00  0.00    +0.000 A 
ATOM     12  C   UNL     1     106.390 127.545 144.414  0.00  0.00    +0.000 A 
ENDROOT
BRANCH  11  14
ATOM     13  O   UNL     1     104.622 128.306 141.132  0.00  0.00    +0.000 OA
ATOM     14  C   UNL     1     105.481 127.422 143.278  0.00  0.00    +0.000 A 
ATOM     15  C   UNL     1     105.027 128.111 143.268  0.00  0.00    +0.000 A 
ATOM     16  C   UNL     1     105.649 127.029 142.572  0.00  0.00    +0.000 A 
ATOM     17  C   UNL     1     104.741 128.406 142.552  0.00  0.00    +0.000 A 
ATOM     18  C   UNL     1     105.363 127.323 141.857  0.00  0.00    +0.000 A 
ATOM     19  C   UNL     1     104.909 128.011 141.847  0.00  0.00    +0.000 A 
ENDBRANCH  11  14
BRANCH   5  20
ATOM     20  O   UNL     1     106.605 125.211 147.213  0.00  0.00    +0.000 OA
ATOM     21  C   UNL     1     107.408 125.044 147.299  0.00  0.00    +0.000 C 
ENDBRANCH   5  20
BRANCH   4  22
ATOM     22  O   UNL     1     105.410 124.410 146.403  0.00  0.00    +0.000 OA
BRANCH  22  31
ATOM     23  O   UNL     1     104.172 124.885 146.936  0.00  0.00    +0.000 OA
ATOM     24  O   UNL     1     102.992 122.975 145.893  0.00  0.00    +0.000 OA
ATOM     25  O   UNL     1     102.148 124.086 146.773  0.00  0.00    +0.000 OA
ATOM     26  O   UNL     1     104.624 123.137 145.708  0.00  0.00    +0.000 OA
ATOM     27  C   UNL     1     103.385 123.611 146.241  0.00  0.00    +0.000 C 
ATOM     28  C   UNL     1     102.964 124.167 146.681  0.00  0.00    +0.000 C 
ATOM     29  C   UNL     1     104.202 123.693 146.148  0.00  0.00    +0.000 C 
ATOM     30  C   UNL     1     103.357 124.804 147.028  0.00  0.00    +0.000 C 
ATOM     31  C   UNL     1     104.595 124.329 146.496  0.00  0.00    +0.000 C 
BRANCH  30  33
ATOM     32  O   UNL     1     103.255 125.666 148.163  0.00  0.00    +0.000 OA
ATOM     33  C   UNL     1     102.934 125.359 147.468  0.00  0.00    +0.000 C 
ENDBRANCH  30  33
ENDBRANCH  22  31
ENDBRANCH   4  22
TORSDOF 5
ENDMDL
MODEL 4
REMARK VINA RESULT:      -8.6      3.650      4.987
REMARK  Name = 5318083
REMARK  5 active torsions:
REMARK  status: ('A' for Active; 'I' for Inactive)
REMARK    1  A    between atoms: O_2  and  C_16
REMARK    2  A    between atoms: O_2  and  C_18
REMARK    3  A    between atoms: O_8  and  C_19
REMARK    4  A    between atoms: C_15  and  C_17
REMARK    5  A    between atoms: C_25  and  C_27
REMARK                            x       y       z     vdW  Elec       q    Type
REMARK                         _______ _______ _______ _____ _____    ______ ____
ROOT
ATOM      1  O   UNL     1     113.585 126.531 138.463  0.00  0.00    +0.000 OA
ATOM      2  O   UNL     1     111.029 126.234 139.789  0.00  0.00    +0.000 OA
ATOM      3  O   UNL     1     111.360 125.346 138.701  0.00  0.00    +0.000 OA
ATOM      4  C   UNL     1     112.663 127.637 140.142  0.00  0.00    +0.000 A 
ATOM      5  C   UNL     1     111.939 127.249 140.216  0.00  0.00    +0.000 A 
ATOM      6  C   UNL     1     113.202 127.398 139.564  0.00  0.00    +0.000 A 
ATOM      7  C   UNL     1     113.016 126.771 139.061  0.00  0.00    +0.000 A 
ATOM      8  C   UNL     1     112.292 126.383 139.137  0.00  0.00    +0.000 A 
ATOM      9  C   UNL     1     111.754 126.622 139.714  0.00  0.00    +0.000 A 
ATOM     10  C   UNL     1     112.087 125.729 138.619  0.00  0.00    +0.000 A 
ATOM     11  C   UNL     1     113.397 125.879 137.937  0.00  0.00    +0.000 A 
ATOM     12  C   UNL     1     112.643 125.475 138.015  0.00  0.00    +0.000 A 
ENDROOT
BRANCH  11  14
ATOM     13  O   UNL     1     115.557 124.932 135.630  0.00  0.00    +0.000 OA
ATOM     14  C   UNL     1     113.937 125.642 137.360  0.00  0.00    +0.000 A 
ATOM     15  C   UNL     1     114.413 124.980 137.488  0.00  0.00    +0.000 A 
ATOM     16  C   UNL     1     114.002 126.067 136.656  0.00  0.00    +0.000 A 
ATOM     17  C   UNL     1     114.954 124.743 136.911  0.00  0.00    +0.000 A 
ATOM     18  C   UNL     1     114.541 125.831 136.079  0.00  0.00    +0.000 A 
ATOM     19  C   UNL     1     115.017 125.169 136.206  0.00  0.00    +0.000 A 
ENDBRANCH  11  14
BRANCH   5  20
ATOM     20  O   UNL     1     111.401 127.488 140.795  0.00  0.00    +0.000 OA
ATOM     21  C   UNL     1     111.262 127.009 141.452  0.00  0.00    +0.000 C 
ENDBRANCH   5  20
BRANCH   4  22
ATOM     22  O   UNL     1     112.849 128.265 140.645  0.00  0.00    +0.000 OA
BRANCH  22  31
ATOM     23  O   UNL     1     112.807 129.378 139.749  0.00  0.00    +0.000 OA
ATOM     24  O   UNL     1     114.997 130.149 140.606  0.00  0.00    +0.000 OA
ATOM     25  O   UNL     1     114.225 131.004 139.425  0.00  0.00    +0.000 OA
ATOM     26  O   UNL     1     114.309 128.779 141.215  0.00  0.00    +0.000 OA
ATOM     27  C   UNL     1     114.267 129.892 140.320  0.00  0.00    +0.000 C 
ATOM     28  C   UNL     1     113.880 130.319 139.730  0.00  0.00    +0.000 C 
ATOM     29  C   UNL     1     113.923 129.206 140.625  0.00  0.00    +0.000 C 
ATOM     30  C   UNL     1     113.150 130.062 139.445  0.00  0.00    +0.000 C 
ATOM     31  C   UNL     1     113.193 128.949 140.340  0.00  0.00    +0.000 C 
BRANCH  30  33
ATOM     32  O   UNL     1     111.986 130.740 138.968  0.00  0.00    +0.000 OA
ATOM     33  C   UNL     1     112.765 130.490 138.855  0.00  0.00    +0.000 C 
ENDBRANCH  30  33
ENDBRANCH  22  31
ENDBRANCH   4  22
TORSDOF 5
ENDMDL
MODEL 5
REMARK VINA RESULT:      -8.6      9.517     12.527
REMARK  Name = 5318083
REMARK  5 active torsions:
REMARK  status: ('A' for Active; 'I' for Inactive)
REMARK    1  A    between atoms: O_2  and  C_16
REMARK    2  A    between atoms: O_2  and  C_18
REMARK    3  A    between atoms: O_8  and  C_19
REMARK    4  A    between atoms: C_15  and  C_17
REMARK    5  A    between atoms: C_25  and  C_27
REMARK                            x       y       z     vdW  Elec       q    Type
REMARK                         _______ _______ _______ _____ _____    ______ ____
ROOT
ATOM      1  O   UNL     1     104.234 124.903 145.795  0.00  0.00    +0.000 OA
ATOM      2  O   UNL     1     106.795 125.247 147.101  0.00  0.00    +0.000 OA
ATOM      3  O   UNL     1     105.883 124.246 147.601  0.00  0.00    +0.000 OA
ATOM      4  C   UNL     1     105.917 126.280 145.390  0.00  0.00    +0.000 A 
ATOM      5  C   UNL     1     106.451 126.063 145.979  0.00  0.00    +0.000 A 
ATOM      6  C   UNL     1     105.188 125.895 145.333  0.00  0.00    +0.000 A 
ATOM      7  C   UNL     1     104.995 125.295 145.865  0.00  0.00    +0.000 A 
ATOM      8  C   UNL     1     105.531 125.079 146.454  0.00  0.00    +0.000 A 
ATOM      9  C   UNL     1     106.259 125.463 146.511  0.00  0.00    +0.000 A 
ATOM     10  C   UNL     1     105.342 124.456 147.014  0.00  0.00    +0.000 A 
ATOM     11  C   UNL     1     104.028 124.278 146.347  0.00  0.00    +0.000 A 
ATOM     12  C   UNL     1     104.585 124.052 146.961  0.00  0.00    +0.000 A 
ENDROOT
BRANCH  11  14
ATOM     13  O   UNL     1     101.113 122.748 146.109  0.00  0.00    +0.000 OA
ATOM     14  C   UNL     1     103.299 123.895 146.287  0.00  0.00    +0.000 A 
ATOM     15  C   UNL     1     102.640 124.201 146.678  0.00  0.00    +0.000 A 
ATOM     16  C   UNL     1     103.229 123.207 145.838  0.00  0.00    +0.000 A 
ATOM     17  C   UNL     1     101.911 123.819 146.618  0.00  0.00    +0.000 A 
ATOM     18  C   UNL     1     102.501 122.824 145.778  0.00  0.00    +0.000 A 
ATOM     19  C   UNL     1     101.842 123.131 146.168  0.00  0.00    +0.000 A 
ENDBRANCH  11  14
BRANCH   5  20
ATOM     20  O   UNL     1     107.180 126.447 146.036  0.00  0.00    +0.000 OA
ATOM     21  C   UNL     1     107.319 126.977 146.653  0.00  0.00    +0.000 C 
ENDBRANCH   5  20
BRANCH   4  22
ATOM     22  O   UNL     1     106.109 126.880 144.857  0.00  0.00    +0.000 OA
BRANCH  22  31
ATOM     23  O   UNL     1     106.209 126.109 143.658  0.00  0.00    +0.000 OA
ATOM     24  O   UNL     1     104.950 127.853 142.433  0.00  0.00    +0.000 OA
ATOM     25  O   UNL     1     105.469 126.502 141.643  0.00  0.00    +0.000 OA
ATOM     26  O   UNL     1     105.270 128.042 144.041  0.00  0.00    +0.000 OA
ATOM     27  C   UNL     1     105.369 127.272 142.842  0.00  0.00    +0.000 C 
ATOM     28  C   UNL     1     105.629 126.596 142.447  0.00  0.00    +0.000 C 
ATOM     29  C   UNL     1     105.530 127.366 143.646  0.00  0.00    +0.000 C 
ATOM     30  C   UNL     1     106.049 126.015 142.855  0.00  0.00    +0.000 C 
ATOM     31  C   UNL     1     105.949 126.785 144.054  0.00  0.00    +0.000 C 
BRANCH  30  33
ATOM     32  O   UNL     1     107.103 125.122 142.491  0.00  0.00    +0.000 OA
ATOM     33  C   UNL     1     106.308 125.339 142.459  0.00  0.00    +0.000 C 
ENDBRANCH  30  33
ENDBRANCH  22  31
ENDBRANCH   4  22
TORSDOF 5
ENDMDL
MODEL 6
REMARK VINA RESULT:      -8.5      1.454      3.710
REMARK  Name = 5318083
REMARK  5 active torsions:
REMARK  status: ('A' for Active; 'I' for Inactive)
REMARK    1  A    between atoms: O_2  and  C_16
REMARK    2  A    between atoms: O_2  and  C_18
REMARK    3  A    between atoms: O_8  and  C_19
REMARK    4  A    between atoms: C_15  and  C_17
REMARK    5  A    between atoms: C_25  and  C_27
REMARK                            x       y       z     vdW  Elec       q    Type
REMARK                         _______ _______ _______ _____ _____    ______ ____
ROOT
ATOM      1  O   UNL     1     112.109 127.292 136.853  0.00  0.00    +0.000 OA
ATOM      2  O   UNL     1     113.893 129.414 136.021  0.00  0.00    +0.000 OA
ATOM      3  O   UNL     1     114.298 128.043 135.824  0.00  0.00    +0.000 OA
ATOM      4  C   UNL     1     111.920 129.494 136.951  0.00  0.00    +0.000 A 
ATOM      5  C   UNL     1     112.634 129.735 136.616  0.00  0.00    +0.000 A 
ATOM      6  C   UNL     1     111.751 128.689 137.027  0.00  0.00    +0.000 A 
ATOM      7  C   UNL     1     112.296 128.127 136.768  0.00  0.00    +0.000 A 
ATOM      8  C   UNL     1     113.010 128.369 136.432  0.00  0.00    +0.000 A 
ATOM      9  C   UNL     1     113.179 129.172 136.356  0.00  0.00    +0.000 A 
ATOM     10  C   UNL     1     113.586 127.793 136.159  0.00  0.00    +0.000 A 
ATOM     11  C   UNL     1     112.673 126.702 136.585  0.00  0.00    +0.000 A 
ATOM     12  C   UNL     1     113.416 126.954 136.235  0.00  0.00    +0.000 A 
ENDROOT
BRANCH  11  14
ATOM     13  O   UNL     1     111.986 123.489 136.894  0.00  0.00    +0.000 OA
ATOM     14  C   UNL     1     112.501 125.899 136.662  0.00  0.00    +0.000 A 
ATOM     15  C   UNL     1     112.904 125.443 137.219  0.00  0.00    +0.000 A 
ATOM     16  C   UNL     1     111.926 125.552 136.183  0.00  0.00    +0.000 A 
ATOM     17  C   UNL     1     112.733 124.639 137.296  0.00  0.00    +0.000 A 
ATOM     18  C   UNL     1     111.755 124.749 136.259  0.00  0.00    +0.000 A 
ATOM     19  C   UNL     1     112.158 124.293 136.816  0.00  0.00    +0.000 A 
ENDBRANCH  11  14
BRANCH   5  20
ATOM     20  O   UNL     1     112.803 130.539 136.539  0.00  0.00    +0.000 OA
ATOM     21  C   UNL     1     113.371 130.889 137.025  0.00  0.00    +0.000 C 
ENDBRANCH   5  20
BRANCH   4  22
ATOM     22  O   UNL     1     111.375 130.056 137.211  0.00  0.00    +0.000 OA
BRANCH  22  31
ATOM     23  O   UNL     1     110.352 129.871 136.230  0.00  0.00    +0.000 OA
ATOM     24  O   UNL     1     108.633 129.950 138.010  0.00  0.00    +0.000 OA
ATOM     25  O   UNL     1     108.184 129.739 136.437  0.00  0.00    +0.000 OA
ATOM     26  O   UNL     1     110.229 130.108 138.397  0.00  0.00    +0.000 OA
ATOM     27  C   UNL     1     109.206 129.924 137.417  0.00  0.00    +0.000 C 
ATOM     28  C   UNL     1     108.982 129.818 136.630  0.00  0.00    +0.000 C 
ATOM     29  C   UNL     1     110.005 130.003 137.610  0.00  0.00    +0.000 C 
ATOM     30  C   UNL     1     109.555 129.792 136.037  0.00  0.00    +0.000 C 
ATOM     31  C   UNL     1     110.578 129.977 137.017  0.00  0.00    +0.000 C 
BRANCH  30  33
ATOM     32  O   UNL     1     109.680 130.139 134.656  0.00  0.00    +0.000 OA
ATOM     33  C   UNL     1     109.329 129.687 135.251  0.00  0.00    +0.000 C 
ENDBRANCH  30  33
ENDBRANCH  22  31
ENDBRANCH   4  22
TORSDOF 5
ENDMDL
MODEL 7
REMARK VINA RESULT:      -8.5      1.792      4.441
REMARK  Name = 5318083
REMARK  5 active torsions:
REMARK  status: ('A' for Active; 'I' for Inactive)
REMARK    1  A    between atoms: O_2  and  C_16
REMARK    2  A    between atoms: O_2  and  C_18
REMARK    3  A    between atoms: O_8  and  C_19
REMARK    4  A    between atoms: C_15  and  C_17
REMARK    5  A    between atoms: C_25  and  C_27
REMARK                            x       y       z     vdW  Elec       q    Type
REMARK                         _______ _______ _______ _____ _____    ______ ____
ROOT
ATOM      1  O   UNL     1     111.144 127.035 136.614  0.00  0.00    +0.000 OA
ATOM      2  O   UNL     1     108.754 128.661 136.471  0.00  0.00    +0.000 OA
ATOM      3  O   UNL     1     108.620 127.236 136.656  0.00  0.00    +0.000 OA
ATOM      4  C   UNL     1     110.862 129.212 136.345  0.00  0.00    +0.000 A 
ATOM      5  C   UNL     1     110.040 129.274 136.359  0.00  0.00    +0.000 A 
ATOM      6  C   UNL     1     111.222 128.473 136.429  0.00  0.00    +0.000 A 
ATOM      7  C   UNL     1     110.758 127.798 136.528  0.00  0.00    +0.000 A 
ATOM      8  C   UNL     1     109.935 127.861 136.541  0.00  0.00    +0.000 A 
ATOM      9  C   UNL     1     109.576 128.598 136.457  0.00  0.00    +0.000 A 
ATOM     10  C   UNL     1     109.442 127.165 136.643  0.00  0.00    +0.000 A 
ATOM     11  C   UNL     1     110.667 126.328 136.717  0.00  0.00    +0.000 A 
ATOM     12  C   UNL     1     109.810 126.393 136.731  0.00  0.00    +0.000 A 
ENDROOT
BRANCH  11  14
ATOM     13  O   UNL     1     112.113 123.382 137.054  0.00  0.00    +0.000 OA
ATOM     14  C   UNL     1     111.028 125.591 136.801  0.00  0.00    +0.000 A 
ATOM     15  C   UNL     1     111.202 125.138 136.133  0.00  0.00    +0.000 A 
ATOM     16  C   UNL     1     111.217 125.308 137.552  0.00  0.00    +0.000 A 
ATOM     17  C   UNL     1     111.564 124.402 136.217  0.00  0.00    +0.000 A 
ATOM     18  C   UNL     1     111.578 124.571 137.637  0.00  0.00    +0.000 A 
ATOM     19  C   UNL     1     111.752 124.118 136.970  0.00  0.00    +0.000 A 
ENDBRANCH  11  14
BRANCH   5  20
ATOM     20  O   UNL     1     109.681 130.012 136.275  0.00  0.00    +0.000 OA
ATOM     21  C   UNL     1     109.290 130.203 135.573  0.00  0.00    +0.000 C 
ENDBRANCH   5  20
BRANCH   4  22
ATOM     22  O   UNL     1     111.326 129.887 136.247  0.00  0.00    +0.000 OA
BRANCH  22  31
ATOM     23  O   UNL     1     111.794 130.101 137.580  0.00  0.00    +0.000 OA
ATOM     24  O   UNL     1     114.097 130.395 136.724  0.00  0.00    +0.000 OA
ATOM     25  O   UNL     1     113.797 130.511 138.342  0.00  0.00    +0.000 OA
ATOM     26  O   UNL     1     112.861 130.083 135.676  0.00  0.00    +0.000 OA
ATOM     27  C   UNL     1     113.329 130.297 137.010  0.00  0.00    +0.000 C 
ATOM     28  C   UNL     1     113.179 130.355 137.818  0.00  0.00    +0.000 C 
ATOM     29  C   UNL     1     112.711 130.141 136.485  0.00  0.00    +0.000 C 
ATOM     30  C   UNL     1     112.411 130.257 138.104  0.00  0.00    +0.000 C 
ATOM     31  C   UNL     1     111.943 130.043 136.771  0.00  0.00    +0.000 C 
BRANCH  30  33
ATOM     32  O   UNL     1     111.664 130.813 139.188  0.00  0.00    +0.000 OA
ATOM     33  C   UNL     1     112.261 130.315 138.912  0.00  0.00    +0.000 C 
ENDBRANCH  30  33
ENDBRANCH  22  31
ENDBRANCH   4  22
TORSDOF 5
ENDMDL
MODEL 8
REMARK VINA RESULT:      -8.4      1.358      3.393
REMARK  Name = 5318083
REMARK  5 active torsions:
REMARK  status: ('A' for Active; 'I' for Inactive)
REMARK    1  A    between atoms: O_2  and  C_16
REMARK    2  A    between atoms: O_2  and  C_18
REMARK    3  A    between atoms: O_8  and  C_19
REMARK    4  A    between atoms: C_15  and  C_17
REMARK    5  A    between atoms: C_25  and  C_27
REMARK                            x       y       z     vdW  Elec       q    Type
REMARK                         _______ _______ _______ _____ _____    ______ ____
ROOT
ATOM      1  O   UNL     1     112.324 128.414 135.712  0.00  0.00    +0.000 OA
ATOM      2  O   UNL     1     109.593 129.104 136.380  0.00  0.00    +0.000 OA
ATOM      3  O   UNL     1     110.563 130.161 136.220  0.00  0.00    +0.000 OA
ATOM      4  C   UNL     1     110.532 127.162 136.050  0.00  0.00    +0.000 A 
ATOM      5  C   UNL     1     109.961 127.734 136.215  0.00  0.00    +0.000 A 
ATOM      6  C   UNL     1     111.308 127.390 135.885  0.00  0.00    +0.000 A 
ATOM      7  C   UNL     1     111.512 128.189 135.885  0.00  0.00    +0.000 A 
ATOM      8  C   UNL     1     110.940 128.760 136.050  0.00  0.00    +0.000 A 
ATOM      9  C   UNL     1     110.165 128.533 136.215  0.00  0.00    +0.000 A 
ATOM     10  C   UNL     1     111.140 129.596 136.054  0.00  0.00    +0.000 A 
ATOM     11  C   UNL     1     112.542 129.245 135.711  0.00  0.00    +0.000 A 
ATOM     12  C   UNL     1     111.947 129.840 135.883  0.00  0.00    +0.000 A 
ENDROOT
BRANCH  11  14
ATOM     13  O   UNL     1     115.647 130.145 135.049  0.00  0.00    +0.000 OA
ATOM     14  C   UNL     1     113.318 129.470 135.546  0.00  0.00    +0.000 A 
ATOM     15  C   UNL     1     113.800 129.761 136.148  0.00  0.00    +0.000 A 
ATOM     16  C   UNL     1     113.613 129.403 134.778  0.00  0.00    +0.000 A 
ATOM     17  C   UNL     1     114.577 129.986 135.983  0.00  0.00    +0.000 A 
ATOM     18  C   UNL     1     114.388 129.628 134.612  0.00  0.00    +0.000 A 
ATOM     19  C   UNL     1     114.870 129.919 135.215  0.00  0.00    +0.000 A 
ENDBRANCH  11  14
BRANCH   5  20
ATOM     20  O   UNL     1     109.185 127.505 136.380  0.00  0.00    +0.000 OA
ATOM     21  C   UNL     1     108.591 127.635 135.823  0.00  0.00    +0.000 C 
ENDBRANCH   5  20
BRANCH   4  22
ATOM     22  O   UNL     1     110.328 126.362 136.049  0.00  0.00    +0.000 OA
BRANCH  22  31
ATOM     23  O   UNL     1     110.922 125.969 137.288  0.00  0.00    +0.000 OA
ATOM     24  O   UNL     1     111.795 123.915 136.218  0.00  0.00    +0.000 OA
ATOM     25  O   UNL     1     112.098 124.207 137.813  0.00  0.00    +0.000 OA
ATOM     26  O   UNL     1     110.910 124.993 135.336  0.00  0.00    +0.000 OA
ATOM     27  C   UNL     1     111.504 124.600 136.575  0.00  0.00    +0.000 C 
ATOM     28  C   UNL     1     111.655 124.747 137.372  0.00  0.00    +0.000 C 
ATOM     29  C   UNL     1     111.061 125.139 136.134  0.00  0.00    +0.000 C 
ATOM     30  C   UNL     1     111.364 125.431 137.729  0.00  0.00    +0.000 C 
ATOM     31  C   UNL     1     110.770 125.824 136.490  0.00  0.00    +0.000 C 
BRANCH  30  33
ATOM     32  O   UNL     1     110.896 125.764 139.038  0.00  0.00    +0.000 OA
ATOM     33  C   UNL     1     111.516 125.577 138.526  0.00  0.00    +0.000 C 
ENDBRANCH  30  33
ENDBRANCH  22  31
ENDBRANCH   4  22
TORSDOF 5
ENDMDL
MODEL 9
REMARK VINA RESULT:      -8.4      2.842      3.875
REMARK  Name = 5318083
REMARK  5 active torsions:
REMARK  status: ('A' for Active; 'I' for Inactive)
REMARK    1  A    between atoms: O_2  and  C_16
REMARK    2  A    between atoms: O_2  and  C_18
REMARK    3  A    between atoms: O_8  and  C_19
REMARK    4  A    between atoms: C_15  and  C_17
REMARK    5  A    between atoms: C_25  and  C_27
REMARK                            x       y       z     vdW  Elec       q    Type
REMARK                         _______ _______ _______ _____ _____    ______ ____
ROOT
ATOM      1  O   UNL     1     111.830 126.192 137.153  0.00  0.00    +0.000 OA
ATOM      2  O   UNL     1     109.426 126.121 135.542  0.00  0.00    +0.000 OA
ATOM      3  O   UNL     1     110.541 125.283 135.171  0.00  0.00    +0.000 OA
ATOM      4  C   UNL     1     109.910 127.275 137.330  0.00  0.00    +0.000 A 
ATOM      5  C   UNL     1     109.493 126.977 136.683  0.00  0.00    +0.000 A 
ATOM      6  C   UNL     1     110.678 127.014 137.481  0.00  0.00    +0.000 A 
ATOM      7  C   UNL     1     111.029 126.455 136.985  0.00  0.00    +0.000 A 
ATOM      8  C   UNL     1     110.611 126.158 136.339  0.00  0.00    +0.000 A 
ATOM      9  C   UNL     1     109.844 126.418 136.188  0.00  0.00    +0.000 A 
ATOM     10  C   UNL     1     110.965 125.576 135.815  0.00  0.00    +0.000 A 
ATOM     11  C   UNL     1     112.200 125.610 136.640  0.00  0.00    +0.000 A 
ATOM     12  C   UNL     1     111.766 125.300 135.967  0.00  0.00    +0.000 A 
ENDROOT
BRANCH  11  14
ATOM     13  O   UNL     1     115.272 124.574 137.253  0.00  0.00    +0.000 OA
ATOM     14  C   UNL     1     112.968 125.351 136.793  0.00  0.00    +0.000 A 
ATOM     15  C   UNL     1     113.610 125.841 136.624  0.00  0.00    +0.000 A 
ATOM     16  C   UNL     1     113.094 124.603 137.116  0.00  0.00    +0.000 A 
ATOM     17  C   UNL     1     114.378 125.582 136.777  0.00  0.00    +0.000 A 
ATOM     18  C   UNL     1     113.862 124.343 137.269  0.00  0.00    +0.000 A 
ATOM     19  C   UNL     1     114.504 124.833 137.100  0.00  0.00    +0.000 A 
ENDBRANCH  11  14
BRANCH   5  20
ATOM     20  O   UNL     1     108.724 127.238 136.533  0.00  0.00    +0.000 OA
ATOM     21  C   UNL     1     108.577 127.735 135.891  0.00  0.00    +0.000 C 
ENDBRANCH   5  20
BRANCH   4  22
ATOM     22  O   UNL     1     109.559 127.834 137.825  0.00  0.00    +0.000 OA
BRANCH  22  31
ATOM     23  O   UNL     1     109.336 127.040 138.993  0.00  0.00    +0.000 OA
ATOM     24  O   UNL     1     110.239 128.863 140.403  0.00  0.00    +0.000 OA
ATOM     25  O   UNL     1     109.715 127.463 141.100  0.00  0.00    +0.000 OA
ATOM     26  O   UNL     1     110.161 129.049 138.766  0.00  0.00    +0.000 OA
ATOM     27  C   UNL     1     109.938 128.256 139.933  0.00  0.00    +0.000 C 
ATOM     28  C   UNL     1     109.676 127.555 140.281  0.00  0.00    +0.000 C 
ATOM     29  C   UNL     1     109.899 128.348 139.114  0.00  0.00    +0.000 C 
ATOM     30  C   UNL     1     109.375 126.947 139.811  0.00  0.00    +0.000 C 
ATOM     31  C   UNL     1     109.598 127.741 138.644  0.00  0.00    +0.000 C 
BRANCH  30  33
ATOM     32  O   UNL     1     108.408 125.900 139.910  0.00  0.00    +0.000 OA
ATOM     33  C   UNL     1     109.114 126.248 140.160  0.00  0.00    +0.000 C 
ENDBRANCH  30  33
ENDBRANCH  22  31
ENDBRANCH   4  22
TORSDOF 5
ENDMDL
MODEL 10
REMARK VINA RESULT:      -8.4     11.136     13.099
REMARK  Name = 5318083
REMARK  5 active torsions:
REMARK  status: ('A' for Active; 'I' for Inactive)
REMARK    1  A    between atoms: O_2  and  C_16
REMARK    2  A    between atoms: O_2  and  C_18
REMARK    3  A    between atoms: O_8  and  C_19
REMARK    4  A    between atoms: C_15  and  C_17
REMARK    5  A    between atoms: C_25  and  C_27
REMARK                            x       y       z     vdW  Elec       q    Type
REMARK                         _______ _______ _______ _____ _____    ______ ____
ROOT
ATOM      1  O   UNL     1     105.348 127.008 146.658  0.00  0.00    +0.000 OA
ATOM      2  O   UNL     1     107.493 125.313 147.611  0.00  0.00    +0.000 OA
ATOM      3  O   UNL     1     107.821 126.571 146.984  0.00  0.00    +0.000 OA
ATOM      4  C   UNL     1     105.328 125.037 147.661  0.00  0.00    +0.000 A 
ATOM      5  C   UNL     1     106.135 124.898 147.765  0.00  0.00    +0.000 A 
ATOM      6  C   UNL     1     105.074 125.732 147.296  0.00  0.00    +0.000 A 
ATOM      7  C   UNL     1     105.626 126.288 147.036  0.00  0.00    +0.000 A 
ATOM      8  C   UNL     1     106.432 126.148 147.141  0.00  0.00    +0.000 A 
ATOM      9  C   UNL     1     106.687 125.453 147.506  0.00  0.00    +0.000 A 
ATOM     10  C   UNL     1     107.017 126.718 146.875  0.00  0.00    +0.000 A 
ATOM     11  C   UNL     1     105.918 127.590 146.385  0.00  0.00    +0.000 A 
ATOM     12  C   UNL     1     106.758 127.445 146.494  0.00  0.00    +0.000 A 
ENDROOT
BRANCH  11  14
ATOM     13  O   UNL     1     104.890 130.366 144.928  0.00  0.00    +0.000 OA
ATOM     14  C   UNL     1     105.661 128.284 146.021  0.00  0.00    +0.000 A 
ATOM     15  C   UNL     1     105.558 128.306 145.203  0.00  0.00    +0.000 A 
ATOM     16  C   UNL     1     105.508 128.955 146.474  0.00  0.00    +0.000 A 
ATOM     17  C   UNL     1     105.301 129.000 144.838  0.00  0.00    +0.000 A 
ATOM     18  C   UNL     1     105.251 129.650 146.111  0.00  0.00    +0.000 A 
ATOM     19  C   UNL     1     105.147 129.672 145.293  0.00  0.00    +0.000 A 
ENDBRANCH  11  14
BRANCH   5  20
ATOM     20  O   UNL     1     106.389 124.202 148.130  0.00  0.00    +0.000 OA
ATOM     21  C   UNL     1     106.708 124.229 148.891  0.00  0.00    +0.000 C 
ENDBRANCH   5  20
BRANCH   4  22
ATOM     22  O   UNL     1     104.776 124.481 147.921  0.00  0.00    +0.000 OA
BRANCH  22  31
ATOM     23  O   UNL     1     104.338 123.920 146.681  0.00  0.00    +0.000 OA
ATOM     24  O   UNL     1     101.983 124.171 147.400  0.00  0.00    +0.000 OA
ATOM     25  O   UNL     1     102.331 123.527 145.922  0.00  0.00    +0.000 OA
ATOM     26  O   UNL     1     103.206 124.649 148.400  0.00  0.00    +0.000 OA
ATOM     27  C   UNL     1     102.768 124.088 147.160  0.00  0.00    +0.000 C 
ATOM     28  C   UNL     1     102.943 123.765 146.421  0.00  0.00    +0.000 C 
ATOM     29  C   UNL     1     103.380 124.326 147.660  0.00  0.00    +0.000 C 
ATOM     30  C   UNL     1     103.728 123.682 146.182  0.00  0.00    +0.000 C 
ATOM     31  C   UNL     1     104.165 124.243 147.421  0.00  0.00    +0.000 C 
BRANCH  30  33
ATOM     32  O   UNL     1     104.469 122.765 145.374  0.00  0.00    +0.000 OA
ATOM     33  C   UNL     1     103.901 123.360 145.443  0.00  0.00    +0.000 C 
ENDBRANCH  30  33
ENDBRANCH  22  31
ENDBRANCH   4  22
TORSDOF 5
ENDMDL
