MODEL 1
REMARK VINA RESULT:     -11.4      0.000      0.000
REMARK  Name = 73829968
REMARK  5 active torsions:
REMARK  status: ('A' for Active; 'I' for Inactive)
REMARK    1  A    between atoms: O_1  and  C_16
REMARK    2  A    between atoms: O_1  and  C_21
REMARK    3  A    between atoms: C_18  and  C_26
REMARK    4  A    between atoms: C_20  and  C_27
REMARK    5  A    between atoms: C_35  and  C_37
REMARK                            x       y       z     vdW  Elec       q    Type
REMARK                         _______ _______ _______ _____ _____    ______ ____
ROOT
ATOM      1  O   UNL     1     113.415 127.314 136.681  0.00  0.00    +0.000 OA
ATOM      2  O   UNL     1     112.507 128.194 138.807  0.00  0.00    +0.000 OA
ATOM      3  O   UNL     1     113.093 129.233 137.668  0.00  0.00    +0.000 OA
ATOM      4  C   UNL     1     112.819 127.087 137.959  0.00  0.00    +0.000 C 
ATOM      5  C   UNL     1     112.809 127.901 138.099  0.00  0.00    +0.000 C 
ATOM      6  C   UNL     1     113.122 126.794 137.250  0.00  0.00    +0.000 C 
ATOM      7  C   UNL     1     113.103 128.420 137.529  0.00  0.00    +0.000 C 
ATOM      8  C   UNL     1     113.406 128.127 136.820  0.00  0.00    +0.000 C 
ENDROOT
BRANCH   6  13
ATOM      9  O   UNL     1     111.777 126.080 136.599  0.00  0.00    +0.000 OA
ATOM     10  O   UNL     1     114.466 125.911 137.618  0.00  0.00    +0.000 OA
ATOM     11  O   UNL     1     113.164 123.542 136.691  0.00  0.00    +0.000 OA
ATOM     12  O   UNL     1     111.818 123.585 136.173  0.00  0.00    +0.000 OA
ATOM     13  C   UNL     1     113.132 125.981 137.110  0.00  0.00    +0.000 A 
ATOM     14  C   UNL     1     112.471 125.610 136.786  0.00  0.00    +0.000 A 
ATOM     15  C   UNL     1     113.804 125.540 137.294  0.00  0.00    +0.000 A 
ATOM     16  C   UNL     1     112.481 124.797 136.646  0.00  0.00    +0.000 A 
ATOM     17  C   UNL     1     113.815 124.727 137.154  0.00  0.00    +0.000 A 
ATOM     18  C   UNL     1     113.153 124.355 136.830  0.00  0.00    +0.000 A 
ATOM     19  C   UNL     1     111.799 124.399 136.309  0.00  0.00    +0.000 A 
ATOM     20  C   UNL     1     111.084 125.699 136.261  0.00  0.00    +0.000 A 
ATOM     21  C   UNL     1     111.096 124.853 136.115  0.00  0.00    +0.000 A 
BRANCH  20  24
ATOM     22  O   UNL     1     108.611 126.889 137.058  0.00  0.00    +0.000 OA
ATOM     23  O   UNL     1     108.401 127.475 135.529  0.00  0.00    +0.000 OA
ATOM     24  C   UNL     1     110.413 126.143 136.078  0.00  0.00    +0.000 A 
ATOM     25  C   UNL     1     109.848 126.294 136.659  0.00  0.00    +0.000 A 
ATOM     26  C   UNL     1     110.309 126.437 135.314  0.00  0.00    +0.000 A 
ATOM     27  C   UNL     1     109.176 126.738 136.476  0.00  0.00    +0.000 A 
ATOM     28  C   UNL     1     109.638 126.880 135.132  0.00  0.00    +0.000 A 
ATOM     29  C   UNL     1     109.072 127.031 135.712  0.00  0.00    +0.000 A 
ENDBRANCH  20  24
ENDBRANCH   6  13
BRANCH   8  31
ATOM     30  O   UNL     1     113.609 128.473 135.448  0.00  0.00    +0.000 OA
ATOM     31  C   UNL     1     113.699 128.647 136.250  0.00  0.00    +0.000 C 
ENDBRANCH   8  31
BRANCH   4  32
ATOM     32  O   UNL     1     112.526 126.568 138.528  0.00  0.00    +0.000 OA
BRANCH  32  37
ATOM     33  O   UNL     1     113.491 126.914 139.523  0.00  0.00    +0.000 OA
ATOM     34  O   UNL     1     111.414 126.270 139.711  0.00  0.00    +0.000 OA
ATOM     35  O   UNL     1     111.824 126.467 141.297  0.00  0.00    +0.000 OA
ATOM     36  O   UNL     1     113.346 126.962 141.700  0.00  0.00    +0.000 OA
ATOM     37  C   UNL     1     112.731 126.666 139.322  0.00  0.00    +0.000 C 
ATOM     38  C   UNL     1     112.175 126.517 139.913  0.00  0.00    +0.000 C 
ATOM     39  C   UNL     1     112.380 126.616 140.706  0.00  0.00    +0.000 C 
ATOM     40  C   UNL     1     113.140 126.863 140.907  0.00  0.00    +0.000 C 
ATOM     41  C   UNL     1     113.696 127.012 140.316  0.00  0.00    +0.000 C 
ATOM     42  C   UNL     1     114.457 127.260 140.518  0.00  0.00    +0.000 C 
ENDBRANCH  32  37
ENDBRANCH   4  32
TORSDOF 5
ENDMDL
MODEL 2
REMARK VINA RESULT:     -10.8      1.981      4.040
REMARK  Name = 73829968
REMARK  5 active torsions:
REMARK  status: ('A' for Active; 'I' for Inactive)
REMARK    1  A    between atoms: O_1  and  C_16
REMARK    2  A    between atoms: O_1  and  C_21
REMARK    3  A    between atoms: C_18  and  C_26
REMARK    4  A    between atoms: C_20  and  C_27
REMARK    5  A    between atoms: C_35  and  C_37
REMARK                            x       y       z     vdW  Elec       q    Type
REMARK                         _______ _______ _______ _____ _____    ______ ____
ROOT
ATOM      1  O   UNL     1     112.302 128.592 135.162  0.00  0.00    +0.000 OA
ATOM      2  O   UNL     1     111.767 129.743 137.286  0.00  0.00    +0.000 OA
ATOM      3  O   UNL     1     113.040 130.254 136.369  0.00  0.00    +0.000 OA
ATOM      4  C   UNL     1     111.487 128.720 136.328  0.00  0.00    +0.000 C 
ATOM      5  C   UNL     1     111.945 129.359 136.578  0.00  0.00    +0.000 C 
ATOM      6  C   UNL     1     111.665 128.336 135.621  0.00  0.00    +0.000 C 
ATOM      7  C   UNL     1     112.581 129.615 136.120  0.00  0.00    +0.000 C 
ATOM      8  C   UNL     1     112.760 129.231 135.411  0.00  0.00    +0.000 C 
ENDROOT
BRANCH   6  13
ATOM      9  O   UNL     1     112.070 126.815 136.137  0.00  0.00    +0.000 OA
ATOM     10  O   UNL     1     110.374 128.587 134.625  0.00  0.00    +0.000 OA
ATOM     11  O   UNL     1     109.834 125.780 134.620  0.00  0.00    +0.000 OA
ATOM     12  O   UNL     1     110.659 124.860 135.364  0.00  0.00    +0.000 OA
ATOM     13  C   UNL     1     111.208 127.697 135.371  0.00  0.00    +0.000 A 
ATOM     14  C   UNL     1     111.395 126.933 135.618  0.00  0.00    +0.000 A 
ATOM     15  C   UNL     1     110.562 127.822 134.873  0.00  0.00    +0.000 A 
ATOM     16  C   UNL     1     110.938 126.293 135.368  0.00  0.00    +0.000 A 
ATOM     17  C   UNL     1     110.104 127.184 134.622  0.00  0.00    +0.000 A 
ATOM     18  C   UNL     1     110.292 126.419 134.870  0.00  0.00    +0.000 A 
ATOM     19  C   UNL     1     111.123 125.494 135.619  0.00  0.00    +0.000 A 
ATOM     20  C   UNL     1     112.271 126.021 136.398  0.00  0.00    +0.000 A 
ATOM     21  C   UNL     1     111.794 125.356 136.138  0.00  0.00    +0.000 A 
BRANCH  20  24
ATOM     22  O   UNL     1     113.431 126.091 139.009  0.00  0.00    +0.000 OA
ATOM     23  O   UNL     1     114.856 125.532 138.391  0.00  0.00    +0.000 OA
ATOM     24  C   UNL     1     112.918 125.899 136.896  0.00  0.00    +0.000 A 
ATOM     25  C   UNL     1     112.851 126.056 137.703  0.00  0.00    +0.000 A 
ATOM     26  C   UNL     1     113.629 125.620 136.587  0.00  0.00    +0.000 A 
ATOM     27  C   UNL     1     113.498 125.934 138.202  0.00  0.00    +0.000 A 
ATOM     28  C   UNL     1     114.275 125.498 137.086  0.00  0.00    +0.000 A 
ATOM     29  C   UNL     1     114.210 125.655 137.893  0.00  0.00    +0.000 A 
ENDBRANCH  20  24
ENDBRANCH   6  13
BRANCH   8  31
ATOM     30  O   UNL     1     113.907 128.934 134.612  0.00  0.00    +0.000 OA
ATOM     31  C   UNL     1     113.396 129.486 134.952  0.00  0.00    +0.000 C 
ENDBRANCH   8  31
BRANCH   4  32
ATOM     32  O   UNL     1     110.851 128.465 136.787  0.00  0.00    +0.000 OA
BRANCH  32  37
ATOM     33  O   UNL     1     110.085 129.659 136.619  0.00  0.00    +0.000 OA
ATOM     34  O   UNL     1     110.211 128.265 138.295  0.00  0.00    +0.000 OA
ATOM     35  O   UNL     1     109.124 129.360 138.881  0.00  0.00    +0.000 OA
ATOM     36  O   UNL     1     108.678 130.654 137.959  0.00  0.00    +0.000 OA
ATOM     37  C   UNL     1     110.307 129.012 137.081  0.00  0.00    +0.000 C 
ATOM     38  C   UNL     1     109.987 128.913 137.834  0.00  0.00    +0.000 C 
ATOM     39  C   UNL     1     109.444 129.460 138.127  0.00  0.00    +0.000 C 
ATOM     40  C   UNL     1     109.221 130.106 137.667  0.00  0.00    +0.000 C 
ATOM     41  C   UNL     1     109.541 130.206 136.913  0.00  0.00    +0.000 C 
ATOM     42  C   UNL     1     109.318 130.853 136.452  0.00  0.00    +0.000 C 
ENDBRANCH  32  37
ENDBRANCH   4  32
TORSDOF 5
ENDMDL
MODEL 3
REMARK VINA RESULT:     -10.8      1.389      2.874
REMARK  Name = 73829968
REMARK  5 active torsions:
REMARK  status: ('A' for Active; 'I' for Inactive)
REMARK    1  A    between atoms: O_1  and  C_16
REMARK    2  A    between atoms: O_1  and  C_21
REMARK    3  A    between atoms: C_18  and  C_26
REMARK    4  A    between atoms: C_20  and  C_27
REMARK    5  A    between atoms: C_35  and  C_37
REMARK                            x       y       z     vdW  Elec       q    Type
REMARK                         _______ _______ _______ _____ _____    ______ ____
ROOT
ATOM      1  O   UNL     1     111.755 126.395 139.168  0.00  0.00    +0.000 OA
ATOM      2  O   UNL     1     111.546 128.819 138.718  0.00  0.00    +0.000 OA
ATOM      3  O   UNL     1     110.381 128.038 139.588  0.00  0.00    +0.000 OA
ATOM      4  C   UNL     1     112.267 127.593 138.584  0.00  0.00    +0.000 C 
ATOM      5  C   UNL     1     111.615 128.011 138.868  0.00  0.00    +0.000 C 
ATOM      6  C   UNL     1     112.337 126.785 138.734  0.00  0.00    +0.000 C 
ATOM      7  C   UNL     1     111.033 127.621 139.303  0.00  0.00    +0.000 C 
ATOM      8  C   UNL     1     111.103 126.812 139.453  0.00  0.00    +0.000 C 
ENDROOT
BRANCH   6  13
ATOM      9  O   UNL     1     112.247 126.091 137.232  0.00  0.00    +0.000 OA
ATOM     10  O   UNL     1     113.697 126.652 139.658  0.00  0.00    +0.000 OA
ATOM     11  O   UNL     1     114.945 125.112 137.599  0.00  0.00    +0.000 OA
ATOM     12  O   UNL     1     114.253 124.810 136.370  0.00  0.00    +0.000 OA
ATOM     13  C   UNL     1     112.989 126.366 138.449  0.00  0.00    +0.000 A 
ATOM     14  C   UNL     1     112.961 126.015 137.704  0.00  0.00    +0.000 A 
ATOM     15  C   UNL     1     113.669 126.300 138.911  0.00  0.00    +0.000 A 
ATOM     16  C   UNL     1     113.613 125.596 137.420  0.00  0.00    +0.000 A 
ATOM     17  C   UNL     1     114.321 125.882 138.628  0.00  0.00    +0.000 A 
ATOM     18  C   UNL     1     114.293 125.530 137.882  0.00  0.00    +0.000 A 
ATOM     19  C   UNL     1     113.596 125.226 136.645  0.00  0.00    +0.000 A 
ATOM     20  C   UNL     1     112.211 125.727 136.454  0.00  0.00    +0.000 A 
ATOM     21  C   UNL     1     112.890 125.292 136.159  0.00  0.00    +0.000 A 
BRANCH  20  24
ATOM     22  O   UNL     1     110.598 127.219 134.627  0.00  0.00    +0.000 OA
ATOM     23  O   UNL     1     109.485 126.001 134.614  0.00  0.00    +0.000 OA
ATOM     24  C   UNL     1     111.530 125.795 135.994  0.00  0.00    +0.000 A 
ATOM     25  C   UNL     1     111.405 126.473 135.541  0.00  0.00    +0.000 A 
ATOM     26  C   UNL     1     110.973 125.186 135.989  0.00  0.00    +0.000 A 
ATOM     27  C   UNL     1     110.723 126.542 135.080  0.00  0.00    +0.000 A 
ATOM     28  C   UNL     1     110.292 125.255 135.528  0.00  0.00    +0.000 A 
ATOM     29  C   UNL     1     110.167 125.933 135.074  0.00  0.00    +0.000 A 
ENDBRANCH  20  24
ENDBRANCH   6  13
BRANCH   8  31
ATOM     30  O   UNL     1     110.702 125.720 140.283  0.00  0.00    +0.000 OA
ATOM     31  C   UNL     1     110.520 126.421 139.888  0.00  0.00    +0.000 C 
ENDBRANCH   8  31
BRANCH   4  32
ATOM     32  O   UNL     1     112.850 127.983 138.149  0.00  0.00    +0.000 OA
BRANCH  32  37
ATOM     33  O   UNL     1     113.287 128.859 139.190  0.00  0.00    +0.000 OA
ATOM     34  O   UNL     1     113.059 129.191 137.045  0.00  0.00    +0.000 OA
ATOM     35  O   UNL     1     113.601 130.671 137.534  0.00  0.00    +0.000 OA
ATOM     36  O   UNL     1     113.933 130.943 139.127  0.00  0.00    +0.000 OA
ATOM     37  C   UNL     1     113.121 128.724 138.393  0.00  0.00    +0.000 C 
ATOM     38  C   UNL     1     113.226 129.328 137.841  0.00  0.00    +0.000 C 
ATOM     39  C   UNL     1     113.496 130.067 138.086  0.00  0.00    +0.000 C 
ATOM     40  C   UNL     1     113.662 130.203 138.882  0.00  0.00    +0.000 C 
ATOM     41  C   UNL     1     113.558 129.599 139.434  0.00  0.00    +0.000 C 
ATOM     42  C   UNL     1     113.724 129.734 140.231  0.00  0.00    +0.000 C 
ENDBRANCH  32  37
ENDBRANCH   4  32
TORSDOF 5
ENDMDL
MODEL 4
REMARK VINA RESULT:     -10.8      1.995      4.065
REMARK  Name = 73829968
REMARK  5 active torsions:
REMARK  status: ('A' for Active; 'I' for Inactive)
REMARK    1  A    between atoms: O_1  and  C_16
REMARK    2  A    between atoms: O_1  and  C_21
REMARK    3  A    between atoms: C_18  and  C_26
REMARK    4  A    between atoms: C_20  and  C_27
REMARK    5  A    between atoms: C_35  and  C_37
REMARK                            x       y       z     vdW  Elec       q    Type
REMARK                         _______ _______ _______ _____ _____    ______ ____
ROOT
ATOM      1  O   UNL     1     113.231 128.947 135.204  0.00  0.00    +0.000 OA
ATOM      2  O   UNL     1     113.327 130.024 137.430  0.00  0.00    +0.000 OA
ATOM      3  O   UNL     1     114.582 130.201 136.373  0.00  0.00    +0.000 OA
ATOM      4  C   UNL     1     112.636 129.217 136.474  0.00  0.00    +0.000 C 
ATOM      5  C   UNL     1     113.295 129.665 136.688  0.00  0.00    +0.000 C 
ATOM      6  C   UNL     1     112.604 128.858 135.733  0.00  0.00    +0.000 C 
ATOM      7  C   UNL     1     113.922 129.754 136.160  0.00  0.00    +0.000 C 
ATOM      8  C   UNL     1     113.891 129.394 135.417  0.00  0.00    +0.000 C 
ENDROOT
BRANCH   6  13
ATOM      9  O   UNL     1     112.560 127.255 136.144  0.00  0.00    +0.000 OA
ATOM     10  O   UNL     1     111.361 129.565 134.909  0.00  0.00    +0.000 OA
ATOM     11  O   UNL     1     109.967 127.070 134.874  0.00  0.00    +0.000 OA
ATOM     12  O   UNL     1     110.533 125.890 135.482  0.00  0.00    +0.000 OA
ATOM     13  C   UNL     1     111.945 128.411 135.518  0.00  0.00    +0.000 A 
ATOM     14  C   UNL     1     111.907 127.611 135.715  0.00  0.00    +0.000 A 
ATOM     15  C   UNL     1     111.323 128.764 135.106  0.00  0.00    +0.000 A 
ATOM     16  C   UNL     1     111.248 127.163 135.501  0.00  0.00    +0.000 A 
ATOM     17  C   UNL     1     110.664 128.317 134.891  0.00  0.00    +0.000 A 
ATOM     18  C   UNL     1     110.626 127.516 135.089  0.00  0.00    +0.000 A 
ATOM     19  C   UNL     1     111.197 126.330 135.700  0.00  0.00    +0.000 A 
ATOM     20  C   UNL     1     112.527 126.421 136.353  0.00  0.00    +0.000 A 
ATOM     21  C   UNL     1     111.840 125.956 136.129  0.00  0.00    +0.000 A 
BRANCH  20  24
ATOM     22  O   UNL     1     115.053 125.085 136.351  0.00  0.00    +0.000 OA
ATOM     23  O   UNL     1     115.020 125.019 138.000  0.00  0.00    +0.000 OA
ATOM     24  C   UNL     1     113.150 126.071 136.765  0.00  0.00    +0.000 A 
ATOM     25  C   UNL     1     113.790 125.753 136.352  0.00  0.00    +0.000 A 
ATOM     26  C   UNL     1     113.133 126.038 137.589  0.00  0.00    +0.000 A 
ATOM     27  C   UNL     1     114.414 125.402 136.764  0.00  0.00    +0.000 A 
ATOM     28  C   UNL     1     113.757 125.688 138.000  0.00  0.00    +0.000 A 
ATOM     29  C   UNL     1     114.397 125.370 137.588  0.00  0.00    +0.000 A 
ENDBRANCH  20  24
ENDBRANCH   6  13
BRANCH   8  31
ATOM     30  O   UNL     1     114.920 128.817 134.612  0.00  0.00    +0.000 OA
ATOM     31  C   UNL     1     114.518 129.482 134.889  0.00  0.00    +0.000 C 
ENDBRANCH   8  31
BRANCH   4  32
ATOM     32  O   UNL     1     112.008 129.129 137.002  0.00  0.00    +0.000 OA
BRANCH  32  37
ATOM     33  O   UNL     1     111.643 130.511 137.026  0.00  0.00    +0.000 OA
ATOM     34  O   UNL     1     111.574 128.987 138.588  0.00  0.00    +0.000 OA
ATOM     35  O   UNL     1     110.992 130.298 139.404  0.00  0.00    +0.000 OA
ATOM     36  O   UNL     1     110.844 131.750 138.635  0.00  0.00    +0.000 OA
ATOM     37  C   UNL     1     111.717 129.785 137.411  0.00  0.00    +0.000 C 
ATOM     38  C   UNL     1     111.500 129.714 138.204  0.00  0.00    +0.000 C 
ATOM     39  C   UNL     1     111.209 130.369 138.611  0.00  0.00    +0.000 C 
ATOM     40  C   UNL     1     111.135 131.094 138.227  0.00  0.00    +0.000 C 
ATOM     41  C   UNL     1     111.352 131.165 137.435  0.00  0.00    +0.000 C 
ATOM     42  C   UNL     1     111.279 131.892 137.050  0.00  0.00    +0.000 C 
ENDBRANCH  32  37
ENDBRANCH   4  32
TORSDOF 5
ENDMDL
MODEL 5
REMARK VINA RESULT:     -10.7      1.381      1.885
REMARK  Name = 73829968
REMARK  5 active torsions:
REMARK  status: ('A' for Active; 'I' for Inactive)
REMARK    1  A    between atoms: O_1  and  C_16
REMARK    2  A    between atoms: O_1  and  C_21
REMARK    3  A    between atoms: C_18  and  C_26
REMARK    4  A    between atoms: C_20  and  C_27
REMARK    5  A    between atoms: C_35  and  C_37
REMARK                            x       y       z     vdW  Elec       q    Type
REMARK                         _______ _______ _______ _____ _____    ______ ____
ROOT
ATOM      1  O   UNL     1     112.901 127.833 136.131  0.00  0.00    +0.000 OA
ATOM      2  O   UNL     1     112.396 128.638 138.415  0.00  0.00    +0.000 OA
ATOM      3  O   UNL     1     113.471 129.458 137.470  0.00  0.00    +0.000 OA
ATOM      4  C   UNL     1     112.195 127.691 137.364  0.00  0.00    +0.000 C 
ATOM      5  C   UNL     1     112.564 128.369 137.654  0.00  0.00    +0.000 C 
ATOM      6  C   UNL     1     112.363 127.422 136.603  0.00  0.00    +0.000 C 
ATOM      7  C   UNL     1     113.102 128.780 137.182  0.00  0.00    +0.000 C 
ATOM      8  C   UNL     1     113.270 128.511 136.419  0.00  0.00    +0.000 C 
ENDROOT
BRANCH   6  13
ATOM      9  O   UNL     1     110.879 127.567 135.883  0.00  0.00    +0.000 OA
ATOM     10  O   UNL     1     113.105 125.956 136.747  0.00  0.00    +0.000 OA
ATOM     11  O   UNL     1     110.889 124.707 135.444  0.00  0.00    +0.000 OA
ATOM     12  O   UNL     1     109.755 125.478 134.996  0.00  0.00    +0.000 OA
ATOM     13  C   UNL     1     111.994 126.744 136.313  0.00  0.00    +0.000 A 
ATOM     14  C   UNL     1     111.255 126.798 135.952  0.00  0.00    +0.000 A 
ATOM     15  C   UNL     1     112.365 126.010 136.385  0.00  0.00    +0.000 A 
ATOM     16  C   UNL     1     110.886 126.119 135.662  0.00  0.00    +0.000 A 
ATOM     17  C   UNL     1     111.997 125.331 136.096  0.00  0.00    +0.000 A 
ATOM     18  C   UNL     1     111.257 125.386 135.734  0.00  0.00    +0.000 A 
ATOM     19  C   UNL     1     110.116 126.163 135.283  0.00  0.00    +0.000 A 
ATOM     20  C   UNL     1     110.108 127.631 135.507  0.00  0.00    +0.000 A 
ATOM     21  C   UNL     1     109.725 126.923 135.205  0.00  0.00    +0.000 A 
BRANCH  20  24
ATOM     22  O   UNL     1     108.167 129.522 136.412  0.00  0.00    +0.000 OA
ATOM     23  O   UNL     1     108.633 130.569 135.225  0.00  0.00    +0.000 OA
ATOM     24  C   UNL     1     109.740 128.365 135.436  0.00  0.00    +0.000 A 
ATOM     25  C   UNL     1     109.138 128.576 135.959  0.00  0.00    +0.000 A 
ATOM     26  C   UNL     1     109.973 128.889 134.842  0.00  0.00    +0.000 A 
ATOM     27  C   UNL     1     108.768 129.311 135.889  0.00  0.00    +0.000 A 
ATOM     28  C   UNL     1     109.604 129.623 134.772  0.00  0.00    +0.000 A 
ATOM     29  C   UNL     1     109.002 129.835 135.295  0.00  0.00    +0.000 A 
ENDBRANCH  20  24
ENDBRANCH   6  13
BRANCH   8  31
ATOM     30  O   UNL     1     113.673 128.993 135.136  0.00  0.00    +0.000 OA
ATOM     31  C   UNL     1     113.808 128.922 135.947  0.00  0.00    +0.000 C 
ENDBRANCH   8  31
BRANCH   4  32
ATOM     32  O   UNL     1     111.657 127.281 137.837  0.00  0.00    +0.000 OA
BRANCH  32  37
ATOM     33  O   UNL     1     112.641 126.914 138.806  0.00  0.00    +0.000 OA
ATOM     34  O   UNL     1     110.489 127.222 139.000  0.00  0.00    +0.000 OA
ATOM     35  O   UNL     1     110.888 126.826 140.551  0.00  0.00    +0.000 OA
ATOM     36  O   UNL     1     112.456 126.489 140.939  0.00  0.00    +0.000 OA
ATOM     37  C   UNL     1     111.857 127.082 138.613  0.00  0.00    +0.000 C 
ATOM     38  C   UNL     1     111.273 127.053 139.195  0.00  0.00    +0.000 C 
ATOM     39  C   UNL     1     111.472 126.855 139.970  0.00  0.00    +0.000 C 
ATOM     40  C   UNL     1     112.256 126.687 140.164  0.00  0.00    +0.000 C 
ATOM     41  C   UNL     1     112.840 126.716 139.582  0.00  0.00    +0.000 C 
ATOM     42  C   UNL     1     113.625 126.548 139.776  0.00  0.00    +0.000 C 
ENDBRANCH  32  37
ENDBRANCH   4  32
TORSDOF 5
ENDMDL
MODEL 6
REMARK VINA RESULT:     -10.6      9.464     11.823
REMARK  Name = 73829968
REMARK  5 active torsions:
REMARK  status: ('A' for Active; 'I' for Inactive)
REMARK    1  A    between atoms: O_1  and  C_16
REMARK    2  A    between atoms: O_1  and  C_21
REMARK    3  A    between atoms: C_18  and  C_26
REMARK    4  A    between atoms: C_20  and  C_27
REMARK    5  A    between atoms: C_35  and  C_37
REMARK                            x       y       z     vdW  Elec       q    Type
REMARK                         _______ _______ _______ _____ _____    ______ ____
ROOT
ATOM      1  O   UNL     1     106.221 125.023 145.607  0.00  0.00    +0.000 OA
ATOM      2  O   UNL     1     105.346 127.313 145.270  0.00  0.00    +0.000 OA
ATOM      3  O   UNL     1     105.385 126.251 144.008  0.00  0.00    +0.000 OA
ATOM      4  C   UNL     1     105.910 126.317 146.126  0.00  0.00    +0.000 C 
ATOM      5  C   UNL     1     105.638 126.550 145.382  0.00  0.00    +0.000 C 
ATOM      6  C   UNL     1     106.202 125.554 146.238  0.00  0.00    +0.000 C 
ATOM      7  C   UNL     1     105.657 126.019 144.751  0.00  0.00    +0.000 C 
ATOM      8  C   UNL     1     105.949 125.255 144.864  0.00  0.00    +0.000 C 
ENDROOT
BRANCH   6  13
ATOM      9  O   UNL     1     105.116 124.955 147.335  0.00  0.00    +0.000 OA
ATOM     10  O   UNL     1     107.804 125.690 146.607  0.00  0.00    +0.000 OA
ATOM     11  O   UNL     1     107.295 124.623 149.209  0.00  0.00    +0.000 OA
ATOM     12  O   UNL     1     105.963 124.243 149.612  0.00  0.00    +0.000 OA
ATOM     13  C   UNL     1     106.475 125.321 146.981  0.00  0.00    +0.000 A 
ATOM     14  C   UNL     1     105.947 125.021 147.539  0.00  0.00    +0.000 A 
ATOM     15  C   UNL     1     107.276 125.389 147.166  0.00  0.00    +0.000 A 
ATOM     16  C   UNL     1     106.220 124.788 148.282  0.00  0.00    +0.000 A 
ATOM     17  C   UNL     1     107.550 125.157 147.908  0.00  0.00    +0.000 A 
ATOM     18  C   UNL     1     107.021 124.856 148.467  0.00  0.00    +0.000 A 
ATOM     19  C   UNL     1     105.681 124.473 148.871  0.00  0.00    +0.000 A 
ATOM     20  C   UNL     1     104.560 124.642 147.912  0.00  0.00    +0.000 A 
ATOM     21  C   UNL     1     104.845 124.400 148.685  0.00  0.00    +0.000 A 
BRANCH  20  24
ATOM     22  O   UNL     1     102.428 123.236 146.629  0.00  0.00    +0.000 OA
ATOM     23  O   UNL     1     101.358 124.374 147.162  0.00  0.00    +0.000 OA
ATOM     24  C   UNL     1     103.759 124.575 147.724  0.00  0.00    +0.000 A 
ATOM     25  C   UNL     1     103.495 123.940 147.271  0.00  0.00    +0.000 A 
ATOM     26  C   UNL     1     103.225 125.144 147.991  0.00  0.00    +0.000 A 
ATOM     27  C   UNL     1     102.693 123.872 147.083  0.00  0.00    +0.000 A 
ATOM     28  C   UNL     1     102.424 125.077 147.803  0.00  0.00    +0.000 A 
ATOM     29  C   UNL     1     102.158 124.441 147.349  0.00  0.00    +0.000 A 
ENDBRANCH  20  24
ENDBRANCH   6  13
BRANCH   8  31
ATOM     30  O   UNL     1     105.960 123.911 144.378  0.00  0.00    +0.000 OA
ATOM     31  C   UNL     1     105.968 124.724 144.233  0.00  0.00    +0.000 C 
ENDBRANCH   8  31
BRANCH   4  32
ATOM     32  O   UNL     1     105.891 126.848 146.757  0.00  0.00    +0.000 OA
BRANCH  32  37
ATOM     33  O   UNL     1     106.815 127.786 146.199  0.00  0.00    +0.000 OA
ATOM     34  O   UNL     1     105.042 128.089 147.437  0.00  0.00    +0.000 OA
ATOM     35  O   UNL     1     105.541 129.647 147.219  0.00  0.00    +0.000 OA
ATOM     36  O   UNL     1     106.889 129.964 146.322  0.00  0.00    +0.000 OA
ATOM     37  C   UNL     1     106.141 127.628 146.648  0.00  0.00    +0.000 C 
ATOM     38  C   UNL     1     105.716 128.248 146.988  0.00  0.00    +0.000 C 
ATOM     39  C   UNL     1     105.966 129.026 146.879  0.00  0.00    +0.000 C 
ATOM     40  C   UNL     1     106.639 129.185 146.431  0.00  0.00    +0.000 C 
ATOM     41  C   UNL     1     107.064 128.565 146.091  0.00  0.00    +0.000 C 
ATOM     42  C   UNL     1     107.738 128.723 145.642  0.00  0.00    +0.000 C 
ENDBRANCH  32  37
ENDBRANCH   4  32
TORSDOF 5
ENDMDL
MODEL 7
REMARK VINA RESULT:     -10.5      1.472      3.195
REMARK  Name = 73829968
REMARK  5 active torsions:
REMARK  status: ('A' for Active; 'I' for Inactive)
REMARK    1  A    between atoms: O_1  and  C_16
REMARK    2  A    between atoms: O_1  and  C_21
REMARK    3  A    between atoms: C_18  and  C_26
REMARK    4  A    between atoms: C_20  and  C_27
REMARK    5  A    between atoms: C_35  and  C_37
REMARK                            x       y       z     vdW  Elec       q    Type
REMARK                         _______ _______ _______ _____ _____    ______ ____
ROOT
ATOM      1  O   UNL     1     110.809 125.971 136.061  0.00  0.00    +0.000 OA
ATOM      2  O   UNL     1     109.486 126.419 138.104  0.00  0.00    +0.000 OA
ATOM      3  O   UNL     1     108.895 126.856 136.627  0.00  0.00    +0.000 OA
ATOM      4  C   UNL     1     110.663 125.902 137.480  0.00  0.00    +0.000 C 
ATOM      5  C   UNL     1     109.927 126.270 137.424  0.00  0.00    +0.000 C 
ATOM      6  C   UNL     1     111.104 125.753 136.800  0.00  0.00    +0.000 C 
ATOM      7  C   UNL     1     109.631 126.489 136.685  0.00  0.00    +0.000 C 
ATOM      8  C   UNL     1     110.073 126.339 136.003  0.00  0.00    +0.000 C 
ENDROOT
BRANCH   6  13
ATOM      9  O   UNL     1     112.470 126.663 136.581  0.00  0.00    +0.000 OA
ATOM     10  O   UNL     1     111.195 124.138 137.126  0.00  0.00    +0.000 OA
ATOM     11  O   UNL     1     114.048 124.279 137.028  0.00  0.00    +0.000 OA
ATOM     12  O   UNL     1     114.724 125.524 136.758  0.00  0.00    +0.000 OA
ATOM     13  C   UNL     1     111.840 125.385 136.857  0.00  0.00    +0.000 A 
ATOM     14  C   UNL     1     112.530 125.823 136.751  0.00  0.00    +0.000 A 
ATOM     15  C   UNL     1     111.886 124.577 137.020  0.00  0.00    +0.000 A 
ATOM     16  C   UNL     1     113.267 125.455 136.808  0.00  0.00    +0.000 A 
ATOM     17  C   UNL     1     112.621 124.208 137.077  0.00  0.00    +0.000 A 
ATOM     18  C   UNL     1     113.312 124.648 136.971  0.00  0.00    +0.000 A 
ATOM     19  C   UNL     1     113.992 125.901 136.699  0.00  0.00    +0.000 A 
ATOM     20  C   UNL     1     113.185 127.126 136.470  0.00  0.00    +0.000 A 
ATOM     21  C   UNL     1     113.952 126.742 136.529  0.00  0.00    +0.000 A 
BRANCH  20  24
ATOM     22  O   UNL     1     112.608 129.253 134.650  0.00  0.00    +0.000 OA
ATOM     23  O   UNL     1     112.991 130.355 135.817  0.00  0.00    +0.000 OA
ATOM     24  C   UNL     1     113.137 127.934 136.307  0.00  0.00    +0.000 A 
ATOM     25  C   UNL     1     112.897 128.189 135.561  0.00  0.00    +0.000 A 
ATOM     26  C   UNL     1     113.329 128.484 136.890  0.00  0.00    +0.000 A 
ATOM     27  C   UNL     1     112.848 128.997 135.396  0.00  0.00    +0.000 A 
ATOM     28  C   UNL     1     113.280 129.292 136.726  0.00  0.00    +0.000 A 
ATOM     29  C   UNL     1     113.040 129.548 135.980  0.00  0.00    +0.000 A 
ENDBRANCH  20  24
ENDBRANCH   6  13
BRANCH   8  31
ATOM     30  O   UNL     1     109.892 126.066 134.613  0.00  0.00    +0.000 OA
ATOM     31  C   UNL     1     109.777 126.558 135.265  0.00  0.00    +0.000 C 
ENDBRANCH   8  31
BRANCH   4  32
ATOM     32  O   UNL     1     110.958 125.683 138.219  0.00  0.00    +0.000 OA
BRANCH  32  37
ATOM     33  O   UNL     1     111.036 127.001 138.765  0.00  0.00    +0.000 OA
ATOM     34  O   UNL     1     110.511 125.098 139.696  0.00  0.00    +0.000 OA
ATOM     35  O   UNL     1     110.364 126.124 140.980  0.00  0.00    +0.000 OA
ATOM     36  O   UNL     1     110.665 127.735 140.787  0.00  0.00    +0.000 OA
ATOM     37  C   UNL     1     110.885 126.196 138.862  0.00  0.00    +0.000 C 
ATOM     38  C   UNL     1     110.661 125.904 139.600  0.00  0.00    +0.000 C 
ATOM     39  C   UNL     1     110.588 126.416 140.241  0.00  0.00    +0.000 C 
ATOM     40  C   UNL     1     110.738 127.221 140.145  0.00  0.00    +0.000 C 
ATOM     41  C   UNL     1     110.962 127.514 139.407  0.00  0.00    +0.000 C 
ATOM     42  C   UNL     1     111.113 128.320 139.311  0.00  0.00    +0.000 C 
ENDBRANCH  32  37
ENDBRANCH   4  32
TORSDOF 5
ENDMDL
MODEL 8
REMARK VINA RESULT:     -10.5      2.117      4.053
REMARK  Name = 73829968
REMARK  5 active torsions:
REMARK  status: ('A' for Active; 'I' for Inactive)
REMARK    1  A    between atoms: O_1  and  C_16
REMARK    2  A    between atoms: O_1  and  C_21
REMARK    3  A    between atoms: C_18  and  C_26
REMARK    4  A    between atoms: C_20  and  C_27
REMARK    5  A    between atoms: C_35  and  C_37
REMARK                            x       y       z     vdW  Elec       q    Type
REMARK                         _______ _______ _______ _____ _____    ______ ____
ROOT
ATOM      1  O   UNL     1     111.937 130.482 136.812  0.00  0.00    +0.000 OA
ATOM      2  O   UNL     1     112.200 130.673 139.265  0.00  0.00    +0.000 OA
ATOM      3  O   UNL     1     110.693 130.688 138.594  0.00  0.00    +0.000 OA
ATOM      4  C   UNL     1     112.778 130.539 137.965  0.00  0.00    +0.000 C 
ATOM      5  C   UNL     1     112.113 130.610 138.448  0.00  0.00    +0.000 C 
ATOM      6  C   UNL     1     112.690 130.475 137.148  0.00  0.00    +0.000 C 
ATOM      7  C   UNL     1     111.359 130.617 138.112  0.00  0.00    +0.000 C 
ATOM      8  C   UNL     1     111.271 130.553 137.294  0.00  0.00    +0.000 C 
ENDROOT
BRANCH   6  13
ATOM      9  O   UNL     1     113.014 129.011 136.444  0.00  0.00    +0.000 OA
ATOM     10  O   UNL     1     113.670 131.779 136.899  0.00  0.00    +0.000 OA
ATOM     11  O   UNL     1     115.352 130.195 135.218  0.00  0.00    +0.000 OA
ATOM     12  O   UNL     1     115.058 128.805 134.965  0.00  0.00    +0.000 OA
ATOM     13  C   UNL     1     113.356 130.405 136.665  0.00  0.00    +0.000 A 
ATOM     14  C   UNL     1     113.531 129.683 136.307  0.00  0.00    +0.000 A 
ATOM     15  C   UNL     1     113.846 131.057 136.541  0.00  0.00    +0.000 A 
ATOM     16  C   UNL     1     114.197 129.612 135.824  0.00  0.00    +0.000 A 
ATOM     17  C   UNL     1     114.511 130.987 136.058  0.00  0.00    +0.000 A 
ATOM     18  C   UNL     1     114.687 130.264 135.700  0.00  0.00    +0.000 A 
ATOM     19  C   UNL     1     114.390 128.866 135.446  0.00  0.00    +0.000 A 
ATOM     20  C   UNL     1     113.191 128.256 136.074  0.00  0.00    +0.000 A 
ATOM     21  C   UNL     1     113.884 128.183 135.571  0.00  0.00    +0.000 A 
BRANCH  20  24
ATOM     22  O   UNL     1     110.752 126.860 135.553  0.00  0.00    +0.000 OA
ATOM     23  O   UNL     1     111.224 125.655 136.578  0.00  0.00    +0.000 OA
ATOM     24  C   UNL     1     112.699 127.606 136.200  0.00  0.00    +0.000 A 
ATOM     25  C   UNL     1     111.972 127.558 135.814  0.00  0.00    +0.000 A 
ATOM     26  C   UNL     1     112.935 127.004 136.712  0.00  0.00    +0.000 A 
ATOM     27  C   UNL     1     111.479 126.907 135.940  0.00  0.00    +0.000 A 
ATOM     28  C   UNL     1     112.443 126.354 136.838  0.00  0.00    +0.000 A 
ATOM     29  C   UNL     1     111.715 126.305 136.452  0.00  0.00    +0.000 A 
ENDBRANCH  20  24
ENDBRANCH   6  13
BRANCH   8  31
ATOM     30  O   UNL     1     110.398 130.910 136.221  0.00  0.00    +0.000 OA
ATOM     31  C   UNL     1     110.517 130.560 136.958  0.00  0.00    +0.000 C 
ENDBRANCH   8  31
BRANCH   4  32
ATOM     32  O   UNL     1     113.532 130.532 138.301  0.00  0.00    +0.000 OA
BRANCH  32  37
ATOM     33  O   UNL     1     113.337 129.330 139.049  0.00  0.00    +0.000 OA
ATOM     34  O   UNL     1     114.514 131.113 139.492  0.00  0.00    +0.000 OA
ATOM     35  O   UNL     1     114.810 130.202 140.835  0.00  0.00    +0.000 OA
ATOM     36  O   UNL     1     114.124 128.709 140.987  0.00  0.00    +0.000 OA
ATOM     37  C   UNL     1     113.680 130.076 138.973  0.00  0.00    +0.000 C 
ATOM     38  C   UNL     1     114.171 130.367 139.569  0.00  0.00    +0.000 C 
ATOM     39  C   UNL     1     114.319 129.911 140.240  0.00  0.00    +0.000 C 
ATOM     40  C   UNL     1     113.977 129.165 140.316  0.00  0.00    +0.000 C 
ATOM     41  C   UNL     1     113.485 128.875 139.720  0.00  0.00    +0.000 C 
ATOM     42  C   UNL     1     113.142 128.127 139.796  0.00  0.00    +0.000 C 
ENDBRANCH  32  37
ENDBRANCH   4  32
TORSDOF 5
ENDMDL
MODEL 9
REMARK VINA RESULT:     -10.4      1.523      4.516
REMARK  Name = 73829968
REMARK  5 active torsions:
REMARK  status: ('A' for Active; 'I' for Inactive)
REMARK    1  A    between atoms: O_1  and  C_16
REMARK    2  A    between atoms: O_1  and  C_21
REMARK    3  A    between atoms: C_18  and  C_26
REMARK    4  A    between atoms: C_20  and  C_27
REMARK    5  A    between atoms: C_35  and  C_37
REMARK                            x       y       z     vdW  Elec       q    Type
REMARK                         _______ _______ _______ _____ _____    ______ ____
ROOT
ATOM      1  O   UNL     1     110.827 125.578 138.684  0.00  0.00    +0.000 OA
ATOM      2  O   UNL     1     109.580 127.167 137.254  0.00  0.00    +0.000 OA
ATOM      3  O   UNL     1     109.026 126.809 138.766  0.00  0.00    +0.000 OA
ATOM      4  C   UNL     1     110.688 126.287 137.452  0.00  0.00    +0.000 C 
ATOM      5  C   UNL     1     109.995 126.638 137.730  0.00  0.00    +0.000 C 
ATOM      6  C   UNL     1     111.104 125.757 137.928  0.00  0.00    +0.000 C 
ATOM      7  C   UNL     1     109.718 126.458 138.487  0.00  0.00    +0.000 C 
ATOM      8  C   UNL     1     110.134 125.929 138.964  0.00  0.00    +0.000 C 
ENDROOT
BRANCH   6  13
ATOM      9  O   UNL     1     112.552 126.215 138.589  0.00  0.00    +0.000 OA
ATOM     10  O   UNL     1     111.029 124.622 136.733  0.00  0.00    +0.000 OA
ATOM     11  O   UNL     1     113.873 124.353 136.812  0.00  0.00    +0.000 OA
ATOM     12  O   UNL     1     114.672 125.132 137.727  0.00  0.00    +0.000 OA
ATOM     13  C   UNL     1     111.797 125.407 137.649  0.00  0.00    +0.000 A 
ATOM     14  C   UNL     1     112.526 125.623 137.967  0.00  0.00    +0.000 A 
ATOM     15  C   UNL     1     111.759 124.839 137.052  0.00  0.00    +0.000 A 
ATOM     16  C   UNL     1     113.219 125.272 137.689  0.00  0.00    +0.000 A 
ATOM     17  C   UNL     1     112.451 124.487 136.772  0.00  0.00    +0.000 A 
ATOM     18  C   UNL     1     113.181 124.704 137.091  0.00  0.00    +0.000 A 
ATOM     19  C   UNL     1     113.984 125.489 138.012  0.00  0.00    +0.000 A 
ATOM     20  C   UNL     1     113.309 126.445 138.925  0.00  0.00    +0.000 A 
ATOM     21  C   UNL     1     114.030 126.079 138.634  0.00  0.00    +0.000 A 
BRANCH  20  24
ATOM     22  O   UNL     1     113.651 129.163 139.738  0.00  0.00    +0.000 OA
ATOM     23  O   UNL     1     113.446 128.717 141.314  0.00  0.00    +0.000 OA
ATOM     24  C   UNL     1     113.343 127.013 139.523  0.00  0.00    +0.000 A 
ATOM     25  C   UNL     1     113.480 127.803 139.332  0.00  0.00    +0.000 A 
ATOM     26  C   UNL     1     113.241 126.790 140.310  0.00  0.00    +0.000 A 
ATOM     27  C   UNL     1     113.514 128.373 139.929  0.00  0.00    +0.000 A 
ATOM     28  C   UNL     1     113.275 127.358 140.907  0.00  0.00    +0.000 A 
ATOM     29  C   UNL     1     113.412 128.149 140.717  0.00  0.00    +0.000 A 
ENDBRANCH  20  24
ENDBRANCH   6  13
BRANCH   8  31
ATOM     30  O   UNL     1     109.965 124.992 140.030  0.00  0.00    +0.000 OA
ATOM     31  C   UNL     1     109.857 125.749 139.720  0.00  0.00    +0.000 C 
ENDBRANCH   8  31
BRANCH   4  32
ATOM     32  O   UNL     1     110.965 126.466 136.695  0.00  0.00    +0.000 OA
BRANCH  32  37
ATOM     33  O   UNL     1     111.195 127.851 136.960  0.00  0.00    +0.000 OA
ATOM     34  O   UNL     1     110.576 126.828 135.134  0.00  0.00    +0.000 OA
ATOM     35  O   UNL     1     110.610 128.395 134.617  0.00  0.00    +0.000 OA
ATOM     36  O   UNL     1     111.034 129.599 135.662  0.00  0.00    +0.000 OA
ATOM     37  C   UNL     1     110.982 127.250 136.437  0.00  0.00    +0.000 C 
ATOM     38  C   UNL     1     110.788 127.431 135.656  0.00  0.00    +0.000 C 
ATOM     39  C   UNL     1     110.805 128.213 135.398  0.00  0.00    +0.000 C 
ATOM     40  C   UNL     1     111.017 128.815 135.920  0.00  0.00    +0.000 C 
ATOM     41  C   UNL     1     111.211 128.634 136.701  0.00  0.00    +0.000 C 
ATOM     42  C   UNL     1     111.424 129.237 137.224  0.00  0.00    +0.000 C 
ENDBRANCH  32  37
ENDBRANCH   4  32
TORSDOF 5
ENDMDL
MODEL 10
REMARK VINA RESULT:     -10.4      1.571      4.534
REMARK  Name = 73829968
REMARK  5 active torsions:
REMARK  status: ('A' for Active; 'I' for Inactive)
REMARK    1  A    between atoms: O_1  and  C_16
REMARK    2  A    between atoms: O_1  and  C_21
REMARK    3  A    between atoms: C_18  and  C_26
REMARK    4  A    between atoms: C_20  and  C_27
REMARK    5  A    between atoms: C_35  and  C_37
REMARK                            x       y       z     vdW  Elec       q    Type
REMARK                         _______ _______ _______ _____ _____    ______ ____
ROOT
ATOM      1  O   UNL     1     111.313 128.330 138.156  0.00  0.00    +0.000 OA
ATOM      2  O   UNL     1     112.038 129.766 136.277  0.00  0.00    +0.000 OA
ATOM      3  O   UNL     1     110.597 128.966 136.195  0.00  0.00    +0.000 OA
ATOM      4  C   UNL     1     112.275 129.208 137.571  0.00  0.00    +0.000 C 
ATOM      5  C   UNL     1     111.797 129.288 136.903  0.00  0.00    +0.000 C 
ATOM      6  C   UNL     1     112.034 128.730 138.197  0.00  0.00    +0.000 C 
ATOM      7  C   UNL     1     111.076 128.888 136.862  0.00  0.00    +0.000 C 
ATOM      8  C   UNL     1     110.834 128.408 137.489  0.00  0.00    +0.000 C 
ENDROOT
BRANCH   6  13
ATOM      9  O   UNL     1     112.846 127.306 138.432  0.00  0.00    +0.000 OA
ATOM     10  O   UNL     1     112.167 129.978 139.268  0.00  0.00    +0.000 OA
ATOM     11  O   UNL     1     113.946 128.415 140.868  0.00  0.00    +0.000 OA
ATOM     12  O   UNL     1     114.311 127.073 140.484  0.00  0.00    +0.000 OA
ATOM     13  C   UNL     1     112.512 128.650 138.865  0.00  0.00    +0.000 A 
ATOM     14  C   UNL     1     112.923 127.948 138.997  0.00  0.00    +0.000 A 
ATOM     15  C   UNL     1     112.579 129.275 139.400  0.00  0.00    +0.000 A 
ATOM     16  C   UNL     1     113.402 127.869 139.665  0.00  0.00    +0.000 A 
ATOM     17  C   UNL     1     113.057 129.196 140.068  0.00  0.00    +0.000 A 
ATOM     18  C   UNL     1     113.468 128.493 140.200  0.00  0.00    +0.000 A 
ATOM     19  C   UNL     1     113.835 127.143 139.813  0.00  0.00    +0.000 A 
ATOM     20  C   UNL     1     113.272 126.571 138.564  0.00  0.00    +0.000 A 
ATOM     21  C   UNL     1     113.770 126.489 139.260  0.00  0.00    +0.000 A 
BRANCH  20  24
ATOM     22  O   UNL     1     111.734 124.457 137.409  0.00  0.00    +0.000 OA
ATOM     23  O   UNL     1     112.997 124.081 136.416  0.00  0.00    +0.000 OA
ATOM     24  C   UNL     1     113.203 125.948 138.027  0.00  0.00    +0.000 A 
ATOM     25  C   UNL     1     112.503 125.514 137.987  0.00  0.00    +0.000 A 
ATOM     26  C   UNL     1     113.835 125.760 137.531  0.00  0.00    +0.000 A 
ATOM     27  C   UNL     1     112.434 124.891 137.449  0.00  0.00    +0.000 A 
ATOM     28  C   UNL     1     113.766 125.138 136.994  0.00  0.00    +0.000 A 
ATOM     29  C   UNL     1     113.065 124.703 136.953  0.00  0.00    +0.000 A 
ENDBRANCH  20  24
ENDBRANCH   6  13
BRANCH   8  31
ATOM     30  O   UNL     1     109.624 127.974 138.112  0.00  0.00    +0.000 OA
ATOM     31  C   UNL     1     110.114 128.008 137.449  0.00  0.00    +0.000 C 
ENDBRANCH   8  31
BRANCH   4  32
ATOM     32  O   UNL     1     112.995 129.609 137.611  0.00  0.00    +0.000 OA
BRANCH  32  37
ATOM     33  O   UNL     1     113.586 128.950 136.489  0.00  0.00    +0.000 OA
ATOM     34  O   UNL     1     113.818 130.988 137.234  0.00  0.00    +0.000 OA
ATOM     35  O   UNL     1     114.820 131.019 135.923  0.00  0.00    +0.000 OA
ATOM     36  O   UNL     1     114.999 129.670 134.990  0.00  0.00    +0.000 OA
ATOM     37  C   UNL     1     113.497 129.624 136.955  0.00  0.00    +0.000 C 
ATOM     38  C   UNL     1     113.908 130.314 136.767  0.00  0.00    +0.000 C 
ATOM     39  C   UNL     1     114.409 130.329 136.112  0.00  0.00    +0.000 C 
ATOM     40  C   UNL     1     114.498 129.655 135.645  0.00  0.00    +0.000 C 
ATOM     41  C   UNL     1     114.087 128.966 135.834  0.00  0.00    +0.000 C 
ATOM     42  C   UNL     1     114.176 128.291 135.367  0.00  0.00    +0.000 C 
ENDBRANCH  32  37
ENDBRANCH   4  32
TORSDOF 5
ENDMDL
