MODEL 1
REMARK VINA RESULT:      -9.3      0.000      0.000
REMARK  Name = 44258452
REMARK  10 active torsions:
REMARK  status: ('A' for Active; 'I' for Inactive)
REMARK    1  A    between atoms: O_3  and  C_22
REMARK    2  A    between atoms: O_3  and  C_26
REMARK    3  A    between atoms: O_4  and  C_19
REMARK    4  A    between atoms: O_4  and  C_30
REMARK    5  A    between atoms: O_8  and  C_27
REMARK    6  A    between atoms: O_8  and  C_29
REMARK    7  A    between atoms: O_12  and  C_31
REMARK    8  A    between atoms: O_16  and  C_46
REMARK    9  A    between atoms: C_17  and  C_26
REMARK   10  A    between atoms: C_38  and  C_41
REMARK                            x       y       z     vdW  Elec       q    Type
REMARK                         _______ _______ _______ _____ _____    ______ ____
ROOT
ATOM      1  O   UNL     1     111.956 130.241 138.333  0.00  0.00    +0.000 OA
ATOM      2  O   UNL     1     112.421 131.428 136.561  0.00  0.00    +0.000 OA
ATOM      3  O   UNL     1     113.871 131.460 137.347  0.00  0.00    +0.000 OA
ATOM      4  O   UNL     1     114.045 130.679 138.791  0.00  0.00    +0.000 OA
ATOM      5  C   UNL     1     111.869 130.632 137.611  0.00  0.00    +0.000 C 
ATOM      6  C   UNL     1     112.508 131.038 137.282  0.00  0.00    +0.000 C 
ATOM      7  C   UNL     1     113.233 131.054 137.676  0.00  0.00    +0.000 C 
ATOM      8  C   UNL     1     113.320 130.664 138.397  0.00  0.00    +0.000 C 
ATOM      9  C   UNL     1     112.681 130.258 138.726  0.00  0.00    +0.000 C 
ENDROOT
BRANCH   9  10
ATOM     10  O   UNL     1     112.768 129.867 139.448  0.00  0.00    +0.000 OA
BRANCH  10  14
ATOM     11  O   UNL     1     113.296 127.251 138.362  0.00  0.00    +0.000 OA
ATOM     12  O   UNL     1     111.680 127.563 140.744  0.00  0.00    +0.000 OA
ATOM     13  O   UNL     1     111.921 126.236 140.232  0.00  0.00    +0.000 OA
ATOM     14  C   UNL     1     112.671 129.049 139.487  0.00  0.00    +0.000 A 
ATOM     15  C   UNL     1     112.224 128.715 140.096  0.00  0.00    +0.000 A 
ATOM     16  C   UNL     1     113.022 128.564 138.919  0.00  0.00    +0.000 A 
ATOM     17  C   UNL     1     112.925 127.745 138.960  0.00  0.00    +0.000 A 
ATOM     18  C   UNL     1     112.128 127.897 140.135  0.00  0.00    +0.000 A 
ATOM     19  C   UNL     1     112.478 127.412 139.568  0.00  0.00    +0.000 A 
ATOM     20  C   UNL     1     112.370 126.561 139.620  0.00  0.00    +0.000 A 
ATOM     21  C   UNL     1     113.198 126.398 138.398  0.00  0.00    +0.000 A 
ATOM     22  C   UNL     1     112.732 126.050 139.032  0.00  0.00    +0.000 A 
BRANCH  21  23
ATOM     23  C   UNL     1     113.550 125.915 137.829  0.00  0.00    +0.000 A 
ATOM     24  C   UNL     1     113.185 125.808 137.097  0.00  0.00    +0.000 A 
ATOM     25  C   UNL     1     114.266 125.539 137.992  0.00  0.00    +0.000 A 
ATOM     26  C   UNL     1     113.537 125.326 136.528  0.00  0.00    +0.000 A 
ATOM     27  C   UNL     1     114.618 125.057 137.423  0.00  0.00    +0.000 A 
ATOM     28  C   UNL     1     114.253 124.950 136.691  0.00  0.00    +0.000 A 
BRANCH  28  29
ATOM     29  O   UNL     1     114.605 124.467 136.121  0.00  0.00    +0.000 OA
ATOM     30  C   UNL     1     115.252 124.742 135.690  0.00  0.00    +0.000 C 
ENDBRANCH  28  29
ENDBRANCH  21  23
BRANCH  15  31
ATOM     31  O   UNL     1     111.873 129.200 140.664  0.00  0.00    +0.000 OA
ATOM     32  C   UNL     1     112.177 129.224 141.430  0.00  0.00    +0.000 C 
ENDBRANCH  15  31
ENDBRANCH  10  14
ENDBRANCH   9  10
BRANCH   5  33
ATOM     33  C   UNL     1     111.144 130.616 137.219  0.00  0.00    +0.000 C 
BRANCH  33  34
ATOM     34  O   UNL     1     110.677 129.936 137.240  0.00  0.00    +0.000 OA
BRANCH  34  40
ATOM     35  O   UNL     1     109.522 130.642 136.785  0.00  0.00    +0.000 OA
ATOM     36  O   UNL     1     108.526 128.513 136.010  0.00  0.00    +0.000 OA
ATOM     37  O   UNL     1     107.702 129.929 135.813  0.00  0.00    +0.000 OA
ATOM     38  C   UNL     1     109.601 129.225 136.625  0.00  0.00    +0.000 C 
ATOM     39  C   UNL     1     108.858 129.223 136.268  0.00  0.00    +0.000 C 
ATOM     40  C   UNL     1     109.933 129.935 136.883  0.00  0.00    +0.000 C 
ATOM     41  C   UNL     1     108.446 129.931 136.170  0.00  0.00    +0.000 C 
ATOM     42  C   UNL     1     108.778 130.641 136.428  0.00  0.00    +0.000 C 
ATOM     43  C   UNL     1     108.366 131.349 136.329  0.00  0.00    +0.000 C 
BRANCH  38  44
ATOM     44  O   UNL     1     110.013 128.516 136.723  0.00  0.00    +0.000 OA
BRANCH  44  46
ATOM     45  O   UNL     1     109.422 128.148 137.971  0.00  0.00    +0.000 OA
ATOM     46  C   UNL     1     109.721 127.936 137.232  0.00  0.00    +0.000 C 
ATOM     47  C   UNL     1     109.727 127.145 137.000  0.00  0.00    +0.000 C 
ENDBRANCH  44  46
ENDBRANCH  38  44
ENDBRANCH  34  40
ENDBRANCH  33  34
ENDBRANCH   5  33
TORSDOF 10
ENDMDL
MODEL 2
REMARK VINA RESULT:      -9.3      1.372      2.580
REMARK  Name = 44258452
REMARK  10 active torsions:
REMARK  status: ('A' for Active; 'I' for Inactive)
REMARK    1  A    between atoms: O_3  and  C_22
REMARK    2  A    between atoms: O_3  and  C_26
REMARK    3  A    between atoms: O_4  and  C_19
REMARK    4  A    between atoms: O_4  and  C_30
REMARK    5  A    between atoms: O_8  and  C_27
REMARK    6  A    between atoms: O_8  and  C_29
REMARK    7  A    between atoms: O_12  and  C_31
REMARK    8  A    between atoms: O_16  and  C_46
REMARK    9  A    between atoms: C_17  and  C_26
REMARK   10  A    between atoms: C_38  and  C_41
REMARK                            x       y       z     vdW  Elec       q    Type
REMARK                         _______ _______ _______ _____ _____    ______ ____
ROOT
ATOM      1  O   UNL     1     111.350 129.871 138.707  0.00  0.00    +0.000 OA
ATOM      2  O   UNL     1     109.698 129.500 140.084  0.00  0.00    +0.000 OA
ATOM      3  O   UNL     1     110.993 129.232 141.071  0.00  0.00    +0.000 OA
ATOM      4  O   UNL     1     112.526 129.390 140.482  0.00  0.00    +0.000 OA
ATOM      5  C   UNL     1     110.583 129.792 139.002  0.00  0.00    +0.000 C 
ATOM      6  C   UNL     1     110.464 129.579 139.790  0.00  0.00    +0.000 C 
ATOM      7  C   UNL     1     111.112 129.445 140.283  0.00  0.00    +0.000 C 
ATOM      8  C   UNL     1     111.878 129.524 139.989  0.00  0.00    +0.000 C 
ATOM      9  C   UNL     1     111.997 129.737 139.201  0.00  0.00    +0.000 C 
ENDROOT
BRANCH   9  10
ATOM     10  O   UNL     1     112.764 129.816 138.906  0.00  0.00    +0.000 OA
BRANCH  10  14
ATOM     11  O   UNL     1     113.012 127.281 137.559  0.00  0.00    +0.000 OA
ATOM     12  O   UNL     1     113.905 129.724 136.287  0.00  0.00    +0.000 OA
ATOM     13  O   UNL     1     114.047 128.475 135.579  0.00  0.00    +0.000 OA
ATOM     14  C   UNL     1     112.997 129.383 138.243  0.00  0.00    +0.000 A 
ATOM     15  C   UNL     1     113.334 129.770 137.596  0.00  0.00    +0.000 A 
ATOM     16  C   UNL     1     112.893 128.565 138.227  0.00  0.00    +0.000 A 
ATOM     17  C   UNL     1     113.126 128.133 137.563  0.00  0.00    +0.000 A 
ATOM     18  C   UNL     1     113.567 129.337 136.934  0.00  0.00    +0.000 A 
ATOM     19  C   UNL     1     113.463 128.519 136.917  0.00  0.00    +0.000 A 
ATOM     20  C   UNL     1     113.710 128.080 136.221  0.00  0.00    +0.000 A 
ATOM     21  C   UNL     1     113.253 126.825 136.871  0.00  0.00    +0.000 A 
ATOM     22  C   UNL     1     113.604 127.228 136.197  0.00  0.00    +0.000 A 
BRANCH  21  23
ATOM     23  C   UNL     1     113.148 126.007 136.858  0.00  0.00    +0.000 A 
ATOM     24  C   UNL     1     113.761 125.509 137.093  0.00  0.00    +0.000 A 
ATOM     25  C   UNL     1     112.429 125.688 136.608  0.00  0.00    +0.000 A 
ATOM     26  C   UNL     1     113.656 124.690 137.079  0.00  0.00    +0.000 A 
ATOM     27  C   UNL     1     112.324 124.870 136.594  0.00  0.00    +0.000 A 
ATOM     28  C   UNL     1     112.937 124.371 136.830  0.00  0.00    +0.000 A 
BRANCH  28  29
ATOM     29  O   UNL     1     112.832 123.553 136.816  0.00  0.00    +0.000 OA
ATOM     30  C   UNL     1     112.099 123.228 137.006  0.00  0.00    +0.000 C 
ENDBRANCH  28  29
ENDBRANCH  21  23
BRANCH  15  31
ATOM     31  O   UNL     1     113.438 130.588 137.613  0.00  0.00    +0.000 OA
ATOM     32  C   UNL     1     114.196 130.906 137.683  0.00  0.00    +0.000 C 
ENDBRANCH  15  31
ENDBRANCH  10  14
ENDBRANCH   9  10
BRANCH   5  33
ATOM     33  C   UNL     1     109.936 129.927 138.508  0.00  0.00    +0.000 C 
BRANCH  33  34
ATOM     34  O   UNL     1     109.971 129.710 137.713  0.00  0.00    +0.000 OA
BRANCH  34  40
ATOM     35  O   UNL     1     109.107 130.753 137.257  0.00  0.00    +0.000 OA
ATOM     36  O   UNL     1     108.271 129.273 135.458  0.00  0.00    +0.000 OA
ATOM     37  O   UNL     1     107.686 130.809 135.601  0.00  0.00    +0.000 OA
ATOM     38  C   UNL     1     109.121 129.492 136.586  0.00  0.00    +0.000 C 
ATOM     39  C   UNL     1     108.550 129.766 136.058  0.00  0.00    +0.000 C 
ATOM     40  C   UNL     1     109.400 129.986 137.185  0.00  0.00    +0.000 C 
ATOM     41  C   UNL     1     108.258 130.534 136.130  0.00  0.00    +0.000 C 
ATOM     42  C   UNL     1     108.537 131.028 136.729  0.00  0.00    +0.000 C 
ATOM     43  C   UNL     1     108.244 131.796 136.800  0.00  0.00    +0.000 C 
BRANCH  38  44
ATOM     44  O   UNL     1     109.413 128.723 136.514  0.00  0.00    +0.000 OA
BRANCH  44  46
ATOM     45  O   UNL     1     110.427 129.031 135.555  0.00  0.00    +0.000 OA
ATOM     46  C   UNL     1     109.859 128.511 135.853  0.00  0.00    +0.000 C 
ATOM     47  C   UNL     1     109.737 127.781 135.491  0.00  0.00    +0.000 C 
ENDBRANCH  44  46
ENDBRANCH  38  44
ENDBRANCH  34  40
ENDBRANCH  33  34
ENDBRANCH   5  33
TORSDOF 10
ENDMDL
MODEL 3
REMARK VINA RESULT:      -9.1      1.177      5.417
REMARK  Name = 44258452
REMARK  10 active torsions:
REMARK  status: ('A' for Active; 'I' for Inactive)
REMARK    1  A    between atoms: O_3  and  C_22
REMARK    2  A    between atoms: O_3  and  C_26
REMARK    3  A    between atoms: O_4  and  C_19
REMARK    4  A    between atoms: O_4  and  C_30
REMARK    5  A    between atoms: O_8  and  C_27
REMARK    6  A    between atoms: O_8  and  C_29
REMARK    7  A    between atoms: O_12  and  C_31
REMARK    8  A    between atoms: O_16  and  C_46
REMARK    9  A    between atoms: C_17  and  C_26
REMARK   10  A    between atoms: C_38  and  C_41
REMARK                            x       y       z     vdW  Elec       q    Type
REMARK                         _______ _______ _______ _____ _____    ______ ____
ROOT
ATOM      1  O   UNL     1     113.053 127.944 139.815  0.00  0.00    +0.000 OA
ATOM      2  O   UNL     1     112.019 126.194 140.610  0.00  0.00    +0.000 OA
ATOM      3  O   UNL     1     111.653 127.321 141.758  0.00  0.00    +0.000 OA
ATOM      4  O   UNL     1     112.220 128.863 141.611  0.00  0.00    +0.000 OA
ATOM      5  C   UNL     1     112.769 127.172 139.889  0.00  0.00    +0.000 C 
ATOM      6  C   UNL     1     112.302 126.964 140.536  0.00  0.00    +0.000 C 
ATOM      7  C   UNL     1     112.119 127.528 141.110  0.00  0.00    +0.000 C 
ATOM      8  C   UNL     1     112.403 128.299 141.037  0.00  0.00    +0.000 C 
ATOM      9  C   UNL     1     112.869 128.507 140.389  0.00  0.00    +0.000 C 
ENDROOT
BRANCH   9  10
ATOM     10  O   UNL     1     113.153 129.279 140.315  0.00  0.00    +0.000 OA
BRANCH  10  14
ATOM     11  O   UNL     1     111.236 130.306 138.424  0.00  0.00    +0.000 OA
ATOM     12  O   UNL     1     114.062 130.857 138.112  0.00  0.00    +0.000 OA
ATOM     13  O   UNL     1     113.134 131.390 137.144  0.00  0.00    +0.000 OA
ATOM     14  C   UNL     1     112.991 129.713 139.633  0.00  0.00    +0.000 A 
ATOM     15  C   UNL     1     113.607 130.068 139.213  0.00  0.00    +0.000 A 
ATOM     16  C   UNL     1     112.213 129.794 139.370  0.00  0.00    +0.000 A 
ATOM     17  C   UNL     1     112.052 130.229 138.688  0.00  0.00    +0.000 A 
ATOM     18  C   UNL     1     113.445 130.502 138.532  0.00  0.00    +0.000 A 
ATOM     19  C   UNL     1     112.667 130.583 138.269  0.00  0.00    +0.000 A 
ATOM     20  C   UNL     1     112.512 131.039 137.557  0.00  0.00    +0.000 A 
ATOM     21  C   UNL     1     111.062 130.758 137.715  0.00  0.00    +0.000 A 
ATOM     22  C   UNL     1     111.704 131.127 137.278  0.00  0.00    +0.000 A 
BRANCH  21  23
ATOM     23  C   UNL     1     110.283 130.837 137.454  0.00  0.00    +0.000 A 
ATOM     24  C   UNL     1     109.956 130.268 136.954  0.00  0.00    +0.000 A 
ATOM     25  C   UNL     1     109.832 131.485 137.693  0.00  0.00    +0.000 A 
ATOM     26  C   UNL     1     109.177 130.347 136.694  0.00  0.00    +0.000 A 
ATOM     27  C   UNL     1     109.053 131.564 137.432  0.00  0.00    +0.000 A 
ATOM     28  C   UNL     1     108.726 130.995 136.933  0.00  0.00    +0.000 A 
BRANCH  28  29
ATOM     29  O   UNL     1     107.947 131.074 136.672  0.00  0.00    +0.000 OA
ATOM     30  C   UNL     1     107.765 131.610 136.073  0.00  0.00    +0.000 C 
ENDBRANCH  28  29
ENDBRANCH  21  23
BRANCH  15  31
ATOM     31  O   UNL     1     114.385 129.987 139.476  0.00  0.00    +0.000 OA
ATOM     32  C   UNL     1     114.761 130.618 139.850  0.00  0.00    +0.000 C 
ENDBRANCH  15  31
ENDBRANCH  10  14
ENDBRANCH   9  10
BRANCH   5  33
ATOM     33  C   UNL     1     112.952 126.609 139.314  0.00  0.00    +0.000 C 
BRANCH  33  34
ATOM     34  O   UNL     1     112.888 126.799 138.514  0.00  0.00    +0.000 OA
BRANCH  34  40
ATOM     35  O   UNL     1     113.801 125.792 138.074  0.00  0.00    +0.000 OA
ATOM     36  O   UNL     1     112.541 125.574 135.955  0.00  0.00    +0.000 OA
ATOM     37  O   UNL     1     113.875 124.640 136.221  0.00  0.00    +0.000 OA
ATOM     38  C   UNL     1     112.715 126.186 137.235  0.00  0.00    +0.000 C 
ATOM     39  C   UNL     1     112.961 125.647 136.661  0.00  0.00    +0.000 C 
ATOM     40  C   UNL     1     113.135 126.259 137.941  0.00  0.00    +0.000 C 
ATOM     41  C   UNL     1     113.628 125.180 136.795  0.00  0.00    +0.000 C 
ATOM     42  C   UNL     1     114.048 125.253 137.501  0.00  0.00    +0.000 C 
ATOM     43  C   UNL     1     114.715 124.786 137.634  0.00  0.00    +0.000 C 
BRANCH  38  44
ATOM     44  O   UNL     1     112.047 126.654 137.102  0.00  0.00    +0.000 OA
BRANCH  44  46
ATOM     45  O   UNL     1     112.704 127.722 136.418  0.00  0.00    +0.000 OA
ATOM     46  C   UNL     1     112.054 127.222 136.503  0.00  0.00    +0.000 C 
ATOM     47  C   UNL     1     111.411 127.288 135.991  0.00  0.00    +0.000 C 
ENDBRANCH  44  46
ENDBRANCH  38  44
ENDBRANCH  34  40
ENDBRANCH  33  34
ENDBRANCH   5  33
TORSDOF 10
ENDMDL
MODEL 4
REMARK VINA RESULT:      -9.0      2.290      5.085
REMARK  Name = 44258452
REMARK  10 active torsions:
REMARK  status: ('A' for Active; 'I' for Inactive)
REMARK    1  A    between atoms: O_3  and  C_22
REMARK    2  A    between atoms: O_3  and  C_26
REMARK    3  A    between atoms: O_4  and  C_19
REMARK    4  A    between atoms: O_4  and  C_30
REMARK    5  A    between atoms: O_8  and  C_27
REMARK    6  A    between atoms: O_8  and  C_29
REMARK    7  A    between atoms: O_12  and  C_31
REMARK    8  A    between atoms: O_16  and  C_46
REMARK    9  A    between atoms: C_17  and  C_26
REMARK   10  A    between atoms: C_38  and  C_41
REMARK                            x       y       z     vdW  Elec       q    Type
REMARK                         _______ _______ _______ _____ _____    ______ ____
ROOT
ATOM      1  O   UNL     1     110.320 125.971 137.310  0.00  0.00    +0.000 OA
ATOM      2  O   UNL     1     108.554 127.254 137.298  0.00  0.00    +0.000 OA
ATOM      3  O   UNL     1     108.661 126.856 135.700  0.00  0.00    +0.000 OA
ATOM      4  O   UNL     1     109.874 125.868 135.176  0.00  0.00    +0.000 OA
ATOM      5  C   UNL     1     109.713 126.465 137.572  0.00  0.00    +0.000 C 
ATOM      6  C   UNL     1     109.160 126.760 137.036  0.00  0.00    +0.000 C 
ATOM      7  C   UNL     1     109.214 126.561 136.237  0.00  0.00    +0.000 C 
ATOM      8  C   UNL     1     109.820 126.068 135.975  0.00  0.00    +0.000 C 
ATOM      9  C   UNL     1     110.373 125.773 136.511  0.00  0.00    +0.000 C 
ENDROOT
BRANCH   9  10
ATOM     10  O   UNL     1     110.980 125.278 136.249  0.00  0.00    +0.000 OA
BRANCH  10  14
ATOM     11  O   UNL     1     113.004 127.318 136.043  0.00  0.00    +0.000 OA
ATOM     12  O   UNL     1     113.674 124.660 136.975  0.00  0.00    +0.000 OA
ATOM     13  O   UNL     1     114.717 125.654 136.886  0.00  0.00    +0.000 OA
ATOM     14  C   UNL     1     111.767 125.510 136.337  0.00  0.00    +0.000 A 
ATOM     15  C   UNL     1     112.327 124.969 136.612  0.00  0.00    +0.000 A 
ATOM     16  C   UNL     1     111.994 126.281 136.151  0.00  0.00    +0.000 A 
ATOM     17  C   UNL     1     112.781 126.512 136.240  0.00  0.00    +0.000 A 
ATOM     18  C   UNL     1     113.114 125.201 136.700  0.00  0.00    +0.000 A 
ATOM     19  C   UNL     1     113.341 125.972 136.514  0.00  0.00    +0.000 A 
ATOM     20  C   UNL     1     114.164 126.201 136.611  0.00  0.00    +0.000 A 
ATOM     21  C   UNL     1     113.822 127.565 136.133  0.00  0.00    +0.000 A 
ATOM     22  C   UNL     1     114.407 127.002 136.419  0.00  0.00    +0.000 A 
BRANCH  21  23
ATOM     23  C   UNL     1     114.047 128.337 135.947  0.00  0.00    +0.000 A 
ATOM     24  C   UNL     1     113.840 128.959 136.448  0.00  0.00    +0.000 A 
ATOM     25  C   UNL     1     114.477 128.486 135.259  0.00  0.00    +0.000 A 
ATOM     26  C   UNL     1     114.064 129.730 136.261  0.00  0.00    +0.000 A 
ATOM     27  C   UNL     1     114.702 129.258 135.073  0.00  0.00    +0.000 A 
ATOM     28  C   UNL     1     114.495 129.880 135.573  0.00  0.00    +0.000 A 
BRANCH  28  29
ATOM     29  O   UNL     1     114.719 130.652 135.387  0.00  0.00    +0.000 OA
ATOM     30  C   UNL     1     115.505 130.820 135.204  0.00  0.00    +0.000 C 
ENDBRANCH  28  29
ENDBRANCH  21  23
BRANCH  15  31
ATOM     31  O   UNL     1     112.100 124.198 136.798  0.00  0.00    +0.000 OA
ATOM     32  C   UNL     1     112.342 123.571 136.321  0.00  0.00    +0.000 C 
ENDBRANCH  15  31
ENDBRANCH  10  14
ENDBRANCH   9  10
BRANCH   5  33
ATOM     33  C   UNL     1     109.659 126.664 138.371  0.00  0.00    +0.000 C 
BRANCH  33  34
ATOM     34  O   UNL     1     110.333 126.642 138.848  0.00  0.00    +0.000 OA
BRANCH  34  40
ATOM     35  O   UNL     1     109.577 126.590 140.059  0.00  0.00    +0.000 OA
ATOM     36  O   UNL     1     111.466 127.620 141.282  0.00  0.00    +0.000 OA
ATOM     37  O   UNL     1     110.080 127.225 142.086  0.00  0.00    +0.000 OA
ATOM     38  C   UNL     1     110.898 127.131 140.065  0.00  0.00    +0.000 C 
ATOM     39  C   UNL     1     110.836 127.277 140.875  0.00  0.00    +0.000 C 
ATOM     40  C   UNL     1     110.269 126.788 139.658  0.00  0.00    +0.000 C 
ATOM     41  C   UNL     1     110.143 127.079 141.276  0.00  0.00    +0.000 C 
ATOM     42  C   UNL     1     109.513 126.736 140.868  0.00  0.00    +0.000 C 
ATOM     43  C   UNL     1     108.821 126.538 141.271  0.00  0.00    +0.000 C 
BRANCH  38  44
ATOM     44  O   UNL     1     111.592 127.329 139.663  0.00  0.00    +0.000 OA
BRANCH  44  46
ATOM     45  O   UNL     1     112.300 126.118 139.933  0.00  0.00    +0.000 OA
ATOM     46  C   UNL     1     112.297 126.938 139.838  0.00  0.00    +0.000 C 
ATOM     47  C   UNL     1     112.997 127.366 139.919  0.00  0.00    +0.000 C 
ENDBRANCH  44  46
ENDBRANCH  38  44
ENDBRANCH  34  40
ENDBRANCH  33  34
ENDBRANCH   5  33
TORSDOF 10
ENDMDL
MODEL 5
REMARK VINA RESULT:      -9.0      1.778      5.164
REMARK  Name = 44258452
REMARK  10 active torsions:
REMARK  status: ('A' for Active; 'I' for Inactive)
REMARK    1  A    between atoms: O_3  and  C_22
REMARK    2  A    between atoms: O_3  and  C_26
REMARK    3  A    between atoms: O_4  and  C_19
REMARK    4  A    between atoms: O_4  and  C_30
REMARK    5  A    between atoms: O_8  and  C_27
REMARK    6  A    between atoms: O_8  and  C_29
REMARK    7  A    between atoms: O_12  and  C_31
REMARK    8  A    between atoms: O_16  and  C_46
REMARK    9  A    between atoms: C_17  and  C_26
REMARK   10  A    between atoms: C_38  and  C_41
REMARK                            x       y       z     vdW  Elec       q    Type
REMARK                         _______ _______ _______ _____ _____    ______ ____
ROOT
ATOM      1  O   UNL     1     114.014 129.216 136.661  0.00  0.00    +0.000 OA
ATOM      2  O   UNL     1     114.532 128.646 134.619  0.00  0.00    +0.000 OA
ATOM      3  O   UNL     1     115.005 130.226 134.631  0.00  0.00    +0.000 OA
ATOM      4  O   UNL     1     114.819 131.133 135.997  0.00  0.00    +0.000 OA
ATOM      5  C   UNL     1     114.108 128.762 135.978  0.00  0.00    +0.000 C 
ATOM      6  C   UNL     1     114.438 129.099 135.301  0.00  0.00    +0.000 C 
ATOM      7  C   UNL     1     114.675 129.890 135.308  0.00  0.00    +0.000 C 
ATOM      8  C   UNL     1     114.582 130.343 135.990  0.00  0.00    +0.000 C 
ATOM      9  C   UNL     1     114.251 130.006 136.667  0.00  0.00    +0.000 C 
ENDROOT
BRANCH   9  10
ATOM     10  O   UNL     1     114.158 130.459 137.350  0.00  0.00    +0.000 OA
BRANCH  10  14
ATOM     11  O   UNL     1     111.384 131.163 137.016  0.00  0.00    +0.000 OA
ATOM     12  O   UNL     1     112.410 130.390 139.611  0.00  0.00    +0.000 OA
ATOM     13  O   UNL     1     111.015 130.735 139.485  0.00  0.00    +0.000 OA
ATOM     14  C   UNL     1     113.407 130.564 137.676  0.00  0.00    +0.000 A 
ATOM     15  C   UNL     1     113.284 130.425 138.480  0.00  0.00    +0.000 A 
ATOM     16  C   UNL     1     112.780 130.806 137.198  0.00  0.00    +0.000 A 
ATOM     17  C   UNL     1     112.029 130.910 137.525  0.00  0.00    +0.000 A 
ATOM     18  C   UNL     1     112.533 130.529 138.806  0.00  0.00    +0.000 A 
ATOM     19  C   UNL     1     111.906 130.771 138.328  0.00  0.00    +0.000 A 
ATOM     20  C   UNL     1     111.129 130.876 138.680  0.00  0.00    +0.000 A 
ATOM     21  C   UNL     1     110.600 131.273 137.350  0.00  0.00    +0.000 A 
ATOM     22  C   UNL     1     110.471 131.128 138.188  0.00  0.00    +0.000 A 
BRANCH  21  23
ATOM     23  C   UNL     1     109.974 131.515 136.870  0.00  0.00    +0.000 A 
ATOM     24  C   UNL     1     109.946 132.290 136.589  0.00  0.00    +0.000 A 
ATOM     25  C   UNL     1     109.377 130.982 136.671  0.00  0.00    +0.000 A 
ATOM     26  C   UNL     1     109.321 132.533 136.109  0.00  0.00    +0.000 A 
ATOM     27  C   UNL     1     108.751 131.225 136.190  0.00  0.00    +0.000 A 
ATOM     28  C   UNL     1     108.723 132.000 135.909  0.00  0.00    +0.000 A 
BRANCH  28  29
ATOM     29  O   UNL     1     108.098 132.242 135.429  0.00  0.00    +0.000 OA
ATOM     30  C   UNL     1     108.142 132.143 134.612  0.00  0.00    +0.000 C 
ENDBRANCH  28  29
ENDBRANCH  21  23
BRANCH  15  31
ATOM     31  O   UNL     1     113.911 130.183 138.958  0.00  0.00    +0.000 OA
ATOM     32  C   UNL     1     114.253 130.712 139.490  0.00  0.00    +0.000 C 
ENDBRANCH  15  31
ENDBRANCH  10  14
ENDBRANCH   9  10
BRANCH   5  33
ATOM     33  C   UNL     1     113.871 127.972 135.972  0.00  0.00    +0.000 C 
BRANCH  33  34
ATOM     34  O   UNL     1     113.231 127.730 136.433  0.00  0.00    +0.000 OA
BRANCH  34  40
ATOM     35  O   UNL     1     113.656 126.368 136.514  0.00  0.00    +0.000 OA
ATOM     36  O   UNL     1     111.295 125.640 136.661  0.00  0.00    +0.000 OA
ATOM     37  O   UNL     1     112.507 124.520 136.692  0.00  0.00    +0.000 OA
ATOM     38  C   UNL     1     112.264 126.684 136.547  0.00  0.00    +0.000 C 
ATOM     39  C   UNL     1     112.082 125.882 136.612  0.00  0.00    +0.000 C 
ATOM     40  C   UNL     1     113.051 126.927 136.498  0.00  0.00    +0.000 C 
ATOM     41  C   UNL     1     112.688 125.323 136.627  0.00  0.00    +0.000 C 
ATOM     42  C   UNL     1     113.475 125.566 136.578  0.00  0.00    +0.000 C 
ATOM     43  C   UNL     1     114.081 125.006 136.594  0.00  0.00    +0.000 C 
BRANCH  38  44
ATOM     44  O   UNL     1     111.657 127.244 136.531  0.00  0.00    +0.000 OA
BRANCH  44  46
ATOM     45  O   UNL     1     111.541 127.374 137.949  0.00  0.00    +0.000 OA
ATOM     46  C   UNL     1     111.192 127.368 137.202  0.00  0.00    +0.000 C 
ATOM     47  C   UNL     1     110.380 127.486 137.124  0.00  0.00    +0.000 C 
ENDBRANCH  44  46
ENDBRANCH  38  44
ENDBRANCH  34  40
ENDBRANCH  33  34
ENDBRANCH   5  33
TORSDOF 10
ENDMDL
MODEL 6
REMARK VINA RESULT:      -9.0      2.326      5.457
REMARK  Name = 44258452
REMARK  10 active torsions:
REMARK  status: ('A' for Active; 'I' for Inactive)
REMARK    1  A    between atoms: O_3  and  C_22
REMARK    2  A    between atoms: O_3  and  C_26
REMARK    3  A    between atoms: O_4  and  C_19
REMARK    4  A    between atoms: O_4  and  C_30
REMARK    5  A    between atoms: O_8  and  C_27
REMARK    6  A    between atoms: O_8  and  C_29
REMARK    7  A    between atoms: O_12  and  C_31
REMARK    8  A    between atoms: O_16  and  C_46
REMARK    9  A    between atoms: C_17  and  C_26
REMARK   10  A    between atoms: C_38  and  C_41
REMARK                            x       y       z     vdW  Elec       q    Type
REMARK                         _______ _______ _______ _____ _____    ______ ____
ROOT
ATOM      1  O   UNL     1     110.823 125.864 137.306  0.00  0.00    +0.000 OA
ATOM      2  O   UNL     1     112.037 124.154 137.913  0.00  0.00    +0.000 OA
ATOM      3  O   UNL     1     111.813 123.825 136.312  0.00  0.00    +0.000 OA
ATOM      4  O   UNL     1     110.929 124.855 135.373  0.00  0.00    +0.000 OA
ATOM      5  C   UNL     1     111.266 125.349 137.776  0.00  0.00    +0.000 C 
ATOM      6  C   UNL     1     111.595 124.669 137.444  0.00  0.00    +0.000 C 
ATOM      7  C   UNL     1     111.483 124.505 136.643  0.00  0.00    +0.000 C 
ATOM      8  C   UNL     1     111.042 125.019 136.174  0.00  0.00    +0.000 C 
ATOM      9  C   UNL     1     110.712 125.699 136.506  0.00  0.00    +0.000 C 
ENDROOT
BRANCH   9  10
ATOM     10  O   UNL     1     110.270 126.215 136.036  0.00  0.00    +0.000 OA
BRANCH  10  14
ATOM     11  O   UNL     1     112.219 128.309 135.699  0.00  0.00    +0.000 OA
ATOM     12  O   UNL     1     109.455 128.943 136.282  0.00  0.00    +0.000 OA
ATOM     13  O   UNL     1     110.400 130.021 136.121  0.00  0.00    +0.000 OA
ATOM     14  C   UNL     1     110.453 127.019 136.022  0.00  0.00    +0.000 A 
ATOM     15  C   UNL     1     109.862 127.579 136.159  0.00  0.00    +0.000 A 
ATOM     16  C   UNL     1     111.227 127.263 135.871  0.00  0.00    +0.000 A 
ATOM     17  C   UNL     1     111.409 128.068 135.858  0.00  0.00    +0.000 A 
ATOM     18  C   UNL     1     110.046 128.383 136.145  0.00  0.00    +0.000 A 
ATOM     19  C   UNL     1     110.819 128.627 135.995  0.00  0.00    +0.000 A 
ATOM     20  C   UNL     1     110.997 129.468 135.983  0.00  0.00    +0.000 A 
ATOM     21  C   UNL     1     112.416 129.146 135.684  0.00  0.00    +0.000 A 
ATOM     22  C   UNL     1     111.800 129.730 135.826  0.00  0.00    +0.000 A 
BRANCH  21  23
ATOM     23  C   UNL     1     113.190 129.387 135.533  0.00  0.00    +0.000 A 
ATOM     24  C   UNL     1     113.487 129.363 134.764  0.00  0.00    +0.000 A 
ATOM     25  C   UNL     1     113.667 129.654 136.151  0.00  0.00    +0.000 A 
ATOM     26  C   UNL     1     114.262 129.604 134.613  0.00  0.00    +0.000 A 
ATOM     27  C   UNL     1     114.441 129.896 136.000  0.00  0.00    +0.000 A 
ATOM     28  C   UNL     1     114.739 129.871 135.231  0.00  0.00    +0.000 A 
BRANCH  28  29
ATOM     29  O   UNL     1     115.513 130.112 135.080  0.00  0.00    +0.000 OA
ATOM     30  C   UNL     1     115.692 130.915 135.030  0.00  0.00    +0.000 C 
ENDBRANCH  28  29
ENDBRANCH  21  23
BRANCH  15  31
ATOM     31  O   UNL     1     109.089 127.334 136.310  0.00  0.00    +0.000 OA
ATOM     32  C   UNL     1     108.498 127.468 135.751  0.00  0.00    +0.000 C 
ENDBRANCH  15  31
ENDBRANCH  10  14
ENDBRANCH   9  10
BRANCH   5  33
ATOM     33  C   UNL     1     111.377 125.514 138.576  0.00  0.00    +0.000 C 
BRANCH  33  34
ATOM     34  O   UNL     1     110.732 125.715 139.050  0.00  0.00    +0.000 OA
BRANCH  34  40
ATOM     35  O   UNL     1     111.548 126.467 139.951  0.00  0.00    +0.000 OA
ATOM     36  O   UNL     1     109.844 126.190 141.724  0.00  0.00    +0.000 OA
ATOM     37  O   UNL     1     111.227 127.035 142.034  0.00  0.00    +0.000 OA
ATOM     38  C   UNL     1     110.289 125.953 140.387  0.00  0.00    +0.000 C 
ATOM     39  C   UNL     1     110.412 126.283 141.133  0.00  0.00    +0.000 C 
ATOM     40  C   UNL     1     110.857 126.045 139.796  0.00  0.00    +0.000 C 
ATOM     41  C   UNL     1     111.103 126.705 141.287  0.00  0.00    +0.000 C 
ATOM     42  C   UNL     1     111.671 126.797 140.696  0.00  0.00    +0.000 C 
ATOM     43  C   UNL     1     112.363 127.220 140.851  0.00  0.00    +0.000 C 
BRANCH  38  44
ATOM     44  O   UNL     1     109.597 125.530 140.233  0.00  0.00    +0.000 OA
BRANCH  44  46
ATOM     45  O   UNL     1     108.794 126.623 139.782  0.00  0.00    +0.000 OA
ATOM     46  C   UNL     1     108.871 125.921 140.209  0.00  0.00    +0.000 C 
ATOM     47  C   UNL     1     108.222 125.610 140.612  0.00  0.00    +0.000 C 
ENDBRANCH  44  46
ENDBRANCH  38  44
ENDBRANCH  34  40
ENDBRANCH  33  34
ENDBRANCH   5  33
TORSDOF 10
ENDMDL
MODEL 7
REMARK VINA RESULT:      -9.0      1.667      5.575
REMARK  Name = 44258452
REMARK  10 active torsions:
REMARK  status: ('A' for Active; 'I' for Inactive)
REMARK    1  A    between atoms: O_3  and  C_22
REMARK    2  A    between atoms: O_3  and  C_26
REMARK    3  A    between atoms: O_4  and  C_19
REMARK    4  A    between atoms: O_4  and  C_30
REMARK    5  A    between atoms: O_8  and  C_27
REMARK    6  A    between atoms: O_8  and  C_29
REMARK    7  A    between atoms: O_12  and  C_31
REMARK    8  A    between atoms: O_16  and  C_46
REMARK    9  A    between atoms: C_17  and  C_26
REMARK   10  A    between atoms: C_38  and  C_41
REMARK                            x       y       z     vdW  Elec       q    Type
REMARK                         _______ _______ _______ _____ _____    ______ ____
ROOT
ATOM      1  O   UNL     1     112.399 127.013 138.940  0.00  0.00    +0.000 OA
ATOM      2  O   UNL     1     110.905 126.817 140.520  0.00  0.00    +0.000 OA
ATOM      3  O   UNL     1     110.444 125.603 139.502  0.00  0.00    +0.000 OA
ATOM      4  O   UNL     1     111.286 125.329 138.109  0.00  0.00    +0.000 OA
ATOM      5  C   UNL     1     111.977 127.150 139.637  0.00  0.00    +0.000 C 
ATOM      6  C   UNL     1     111.326 126.680 139.824  0.00  0.00    +0.000 C 
ATOM      7  C   UNL     1     111.095 126.073 139.315  0.00  0.00    +0.000 C 
ATOM      8  C   UNL     1     111.516 125.936 138.619  0.00  0.00    +0.000 C 
ATOM      9  C   UNL     1     112.168 126.406 138.432  0.00  0.00    +0.000 C 
ENDROOT
BRANCH   9  10
ATOM     10  O   UNL     1     112.589 126.269 137.735  0.00  0.00    +0.000 OA
BRANCH  10  14
ATOM     11  O   UNL     1     111.371 128.380 136.198  0.00  0.00    +0.000 OA
ATOM     12  O   UNL     1     114.181 127.755 135.884  0.00  0.00    +0.000 OA
ATOM     13  O   UNL     1     113.610 128.820 135.096  0.00  0.00    +0.000 OA
ATOM     14  C   UNL     1     112.657 126.867 137.171  0.00  0.00    +0.000 A 
ATOM     15  C   UNL     1     113.385 127.012 136.810  0.00  0.00    +0.000 A 
ATOM     16  C   UNL     1     111.997 127.319 136.967  0.00  0.00    +0.000 A 
ATOM     17  C   UNL     1     112.066 127.916 136.402  0.00  0.00    +0.000 A 
ATOM     18  C   UNL     1     113.453 127.610 136.245  0.00  0.00    +0.000 A 
ATOM     19  C   UNL     1     112.793 128.062 136.041  0.00  0.00    +0.000 A 
ATOM     20  C   UNL     1     112.878 128.682 135.452  0.00  0.00    +0.000 A 
ATOM     21  C   UNL     1     111.437 129.004 135.611  0.00  0.00    +0.000 A 
ATOM     22  C   UNL     1     112.195 129.156 135.235  0.00  0.00    +0.000 A 
BRANCH  21  23
ATOM     23  C   UNL     1     110.776 129.455 135.409  0.00  0.00    +0.000 A 
ATOM     24  C   UNL     1     110.624 130.164 135.802  0.00  0.00    +0.000 A 
ATOM     25  C   UNL     1     110.266 129.196 134.814  0.00  0.00    +0.000 A 
ATOM     26  C   UNL     1     109.963 130.615 135.600  0.00  0.00    +0.000 A 
ATOM     27  C   UNL     1     109.605 129.646 134.612  0.00  0.00    +0.000 A 
ATOM     28  C   UNL     1     109.454 130.356 135.005  0.00  0.00    +0.000 A 
BRANCH  28  29
ATOM     29  O   UNL     1     108.793 130.806 134.803  0.00  0.00    +0.000 OA
ATOM     30  C   UNL     1     108.802 131.623 134.910  0.00  0.00    +0.000 C 
ENDBRANCH  28  29
ENDBRANCH  21  23
BRANCH  15  31
ATOM     31  O   UNL     1     114.044 126.560 137.014  0.00  0.00    +0.000 OA
ATOM     32  C   UNL     1     114.328 125.987 136.493  0.00  0.00    +0.000 C 
ENDBRANCH  15  31
ENDBRANCH  10  14
ENDBRANCH   9  10
BRANCH   5  33
ATOM     33  C   UNL     1     112.209 127.757 140.146  0.00  0.00    +0.000 C 
BRANCH  33  34
ATOM     34  O   UNL     1     112.573 128.432 139.844  0.00  0.00    +0.000 OA
BRANCH  34  40
ATOM     35  O   UNL     1     112.458 129.081 141.112  0.00  0.00    +0.000 OA
ATOM     36  O   UNL     1     113.974 130.875 140.330  0.00  0.00    +0.000 OA
ATOM     37  O   UNL     1     113.354 130.926 141.859  0.00  0.00    +0.000 OA
ATOM     38  C   UNL     1     113.273 129.654 140.088  0.00  0.00    +0.000 C 
ATOM     39  C   UNL     1     113.469 130.277 140.591  0.00  0.00    +0.000 C 
ATOM     40  C   UNL     1     112.768 129.056 140.348  0.00  0.00    +0.000 C 
ATOM     41  C   UNL     1     113.159 130.302 141.355  0.00  0.00    +0.000 C 
ATOM     42  C   UNL     1     112.653 129.704 141.615  0.00  0.00    +0.000 C 
ATOM     43  C   UNL     1     112.344 129.730 142.380  0.00  0.00    +0.000 C 
BRANCH  38  44
ATOM     44  O   UNL     1     113.583 129.628 139.323  0.00  0.00    +0.000 OA
BRANCH  44  46
ATOM     45  O   UNL     1     112.644 130.478 138.662  0.00  0.00    +0.000 OA
ATOM     46  C   UNL     1     113.423 130.239 138.792  0.00  0.00    +0.000 C 
ATOM     47  C   UNL     1     114.041 130.610 138.392  0.00  0.00    +0.000 C 
ENDBRANCH  44  46
ENDBRANCH  38  44
ENDBRANCH  34  40
ENDBRANCH  33  34
ENDBRANCH   5  33
TORSDOF 10
ENDMDL
MODEL 8
REMARK VINA RESULT:      -9.0      1.469      4.832
REMARK  Name = 44258452
REMARK  10 active torsions:
REMARK  status: ('A' for Active; 'I' for Inactive)
REMARK    1  A    between atoms: O_3  and  C_22
REMARK    2  A    between atoms: O_3  and  C_26
REMARK    3  A    between atoms: O_4  and  C_19
REMARK    4  A    between atoms: O_4  and  C_30
REMARK    5  A    between atoms: O_8  and  C_27
REMARK    6  A    between atoms: O_8  and  C_29
REMARK    7  A    between atoms: O_12  and  C_31
REMARK    8  A    between atoms: O_16  and  C_46
REMARK    9  A    between atoms: C_17  and  C_26
REMARK   10  A    between atoms: C_38  and  C_41
REMARK                            x       y       z     vdW  Elec       q    Type
REMARK                         _______ _______ _______ _____ _____    ______ ____
ROOT
ATOM      1  O   UNL     1     110.952 129.232 137.232  0.00  0.00    +0.000 OA
ATOM      2  O   UNL     1     108.893 128.518 137.108  0.00  0.00    +0.000 OA
ATOM      3  O   UNL     1     108.651 130.106 137.487  0.00  0.00    +0.000 OA
ATOM      4  O   UNL     1     109.943 131.111 137.695  0.00  0.00    +0.000 OA
ATOM      5  C   UNL     1     110.305 128.729 137.128  0.00  0.00    +0.000 C 
ATOM      6  C   UNL     1     109.538 129.020 137.213  0.00  0.00    +0.000 C 
ATOM      7  C   UNL     1     109.418 129.814 137.402  0.00  0.00    +0.000 C 
ATOM      8  C   UNL     1     110.063 130.317 137.506  0.00  0.00    +0.000 C 
ATOM      9  C   UNL     1     110.830 130.025 137.421  0.00  0.00    +0.000 C 
ENDROOT
BRANCH   9  10
ATOM     10  O   UNL     1     111.477 130.528 137.525  0.00  0.00    +0.000 OA
BRANCH  10  14
ATOM     11  O   UNL     1     112.029 129.772 140.250  0.00  0.00    +0.000 OA
ATOM     12  O   UNL     1     114.188 130.365 138.415  0.00  0.00    +0.000 OA
ATOM     13  O   UNL     1     114.507 129.990 139.771  0.00  0.00    +0.000 OA
ATOM     14  C   UNL     1     112.024 130.376 138.124  0.00  0.00    +0.000 A 
ATOM     15  C   UNL     1     112.832 130.446 137.970  0.00  0.00    +0.000 A 
ATOM     16  C   UNL     1     111.764 130.154 138.875  0.00  0.00    +0.000 A 
ATOM     17  C   UNL     1     112.313 130.002 139.472  0.00  0.00    +0.000 A 
ATOM     18  C   UNL     1     113.380 130.295 138.568  0.00  0.00    +0.000 A 
ATOM     19  C   UNL     1     113.120 130.072 139.319  0.00  0.00    +0.000 A 
ATOM     20  C   UNL     1     113.701 129.917 139.934  0.00  0.00    +0.000 A 
ATOM     21  C   UNL     1     112.595 129.612 140.877  0.00  0.00    +0.000 A 
ATOM     22  C   UNL     1     113.437 129.685 140.718  0.00  0.00    +0.000 A 
BRANCH  21  23
ATOM     23  C   UNL     1     112.332 129.390 141.627  0.00  0.00    +0.000 A 
ATOM     24  C   UNL     1     112.257 129.957 142.222  0.00  0.00    +0.000 A 
ATOM     25  C   UNL     1     112.144 128.602 141.782  0.00  0.00    +0.000 A 
ATOM     26  C   UNL     1     111.995 129.735 142.972  0.00  0.00    +0.000 A 
ATOM     27  C   UNL     1     111.882 128.380 142.532  0.00  0.00    +0.000 A 
ATOM     28  C   UNL     1     111.807 128.946 143.127  0.00  0.00    +0.000 A 
BRANCH  28  29
ATOM     29  O   UNL     1     111.544 128.725 143.877  0.00  0.00    +0.000 OA
ATOM     30  C   UNL     1     111.611 129.249 144.509  0.00  0.00    +0.000 C 
ENDBRANCH  28  29
ENDBRANCH  21  23
BRANCH  15  31
ATOM     31  O   UNL     1     113.092 130.669 137.219  0.00  0.00    +0.000 OA
ATOM     32  C   UNL     1     113.426 131.413 137.102  0.00  0.00    +0.000 C 
ENDBRANCH  15  31
ENDBRANCH  10  14
ENDBRANCH   9  10
BRANCH   5  33
ATOM     33  C   UNL     1     110.427 127.935 136.938  0.00  0.00    +0.000 C 
BRANCH  33  34
ATOM     34  O   UNL     1     111.095 127.541 137.220  0.00  0.00    +0.000 OA
BRANCH  34  40
ATOM     35  O   UNL     1     110.888 126.435 136.339  0.00  0.00    +0.000 OA
ATOM     36  O   UNL     1     112.249 124.998 137.824  0.00  0.00    +0.000 OA
ATOM     37  O   UNL     1     111.588 124.371 136.448  0.00  0.00    +0.000 OA
ATOM     38  C   UNL     1     111.672 126.269 137.521  0.00  0.00    +0.000 C 
ATOM     39  C   UNL     1     111.795 125.477 137.329  0.00  0.00    +0.000 C 
ATOM     40  C   UNL     1     111.218 126.749 137.027  0.00  0.00    +0.000 C 
ATOM     41  C   UNL     1     111.465 125.164 136.641  0.00  0.00    +0.000 C 
ATOM     42  C   UNL     1     111.011 125.644 136.146  0.00  0.00    +0.000 C 
ATOM     43  C   UNL     1     110.681 125.330 135.458  0.00  0.00    +0.000 C 
BRANCH  38  44
ATOM     44  O   UNL     1     112.003 126.583 138.210  0.00  0.00    +0.000 OA
BRANCH  44  46
ATOM     45  O   UNL     1     113.282 126.943 137.686  0.00  0.00    +0.000 OA
ATOM     46  C   UNL     1     112.822 126.624 138.292  0.00  0.00    +0.000 C 
ATOM     47  C   UNL     1     113.182 126.346 138.980  0.00  0.00    +0.000 C 
ENDBRANCH  44  46
ENDBRANCH  38  44
ENDBRANCH  34  40
ENDBRANCH  33  34
ENDBRANCH   5  33
TORSDOF 10
ENDMDL
MODEL 9
REMARK VINA RESULT:      -8.9      1.353      2.148
REMARK  Name = 44258452
REMARK  10 active torsions:
REMARK  status: ('A' for Active; 'I' for Inactive)
REMARK    1  A    between atoms: O_3  and  C_22
REMARK    2  A    between atoms: O_3  and  C_26
REMARK    3  A    between atoms: O_4  and  C_19
REMARK    4  A    between atoms: O_4  and  C_30
REMARK    5  A    between atoms: O_8  and  C_27
REMARK    6  A    between atoms: O_8  and  C_29
REMARK    7  A    between atoms: O_12  and  C_31
REMARK    8  A    between atoms: O_16  and  C_46
REMARK    9  A    between atoms: C_17  and  C_26
REMARK   10  A    between atoms: C_38  and  C_41
REMARK                            x       y       z     vdW  Elec       q    Type
REMARK                         _______ _______ _______ _____ _____    ______ ____
ROOT
ATOM      1  O   UNL     1     112.200 129.280 139.920  0.00  0.00    +0.000 OA
ATOM      2  O   UNL     1     113.654 130.895 139.719  0.00  0.00    +0.000 OA
ATOM      3  O   UNL     1     114.380 129.963 140.870  0.00  0.00    +0.000 OA
ATOM      4  O   UNL     1     113.653 128.576 141.389  0.00  0.00    +0.000 OA
ATOM      5  C   UNL     1     112.564 129.975 139.661  0.00  0.00    +0.000 C 
ATOM      6  C   UNL     1     113.291 130.202 139.978  0.00  0.00    +0.000 C 
ATOM      7  C   UNL     1     113.653 129.736 140.554  0.00  0.00    +0.000 C 
ATOM      8  C   UNL     1     113.290 129.042 140.813  0.00  0.00    +0.000 C 
ATOM      9  C   UNL     1     112.563 128.815 140.496  0.00  0.00    +0.000 C 
ENDROOT
BRANCH   9  10
ATOM     10  O   UNL     1     112.199 128.120 140.755  0.00  0.00    +0.000 OA
BRANCH  10  14
ATOM     11  O   UNL     1     113.099 126.436 138.598  0.00  0.00    +0.000 OA
ATOM     12  O   UNL     1     110.436 126.138 139.693  0.00  0.00    +0.000 OA
ATOM     13  O   UNL     1     110.848 125.275 138.612  0.00  0.00    +0.000 OA
ATOM     14  C   UNL     1     112.050 127.510 140.221  0.00  0.00    +0.000 A 
ATOM     15  C   UNL     1     111.317 127.129 140.224  0.00  0.00    +0.000 A 
ATOM     16  C   UNL     1     112.633 127.279 139.685  0.00  0.00    +0.000 A 
ATOM     17  C   UNL     1     112.483 126.667 139.151  0.00  0.00    +0.000 A 
ATOM     18  C   UNL     1     111.169 126.518 139.690  0.00  0.00    +0.000 A 
ATOM     19  C   UNL     1     111.751 126.287 139.154  0.00  0.00    +0.000 A 
ATOM     20  C   UNL     1     111.583 125.649 138.603  0.00  0.00    +0.000 A 
ATOM     21  C   UNL     1     112.949 125.800 138.039  0.00  0.00    +0.000 A 
ATOM     22  C   UNL     1     112.186 125.404 138.042  0.00  0.00    +0.000 A 
BRANCH  21  23
ATOM     23  C   UNL     1     113.534 125.571 137.504  0.00  0.00    +0.000 A 
ATOM     24  C   UNL     1     114.193 125.151 137.768  0.00  0.00    +0.000 A 
ATOM     25  C   UNL     1     113.460 125.763 136.705  0.00  0.00    +0.000 A 
ATOM     26  C   UNL     1     114.778 124.922 137.233  0.00  0.00    +0.000 A 
ATOM     27  C   UNL     1     114.045 125.534 136.170  0.00  0.00    +0.000 A 
ATOM     28  C   UNL     1     114.703 125.113 136.434  0.00  0.00    +0.000 A 
BRANCH  28  29
ATOM     29  O   UNL     1     115.288 124.885 135.899  0.00  0.00    +0.000 OA
ATOM     30  C   UNL     1     115.647 125.447 135.415  0.00  0.00    +0.000 C 
ENDBRANCH  28  29
ENDBRANCH  21  23
BRANCH  15  31
ATOM     31  O   UNL     1     110.734 127.360 140.760  0.00  0.00    +0.000 OA
ATOM     32  C   UNL     1     110.571 126.892 141.418  0.00  0.00    +0.000 C 
ENDBRANCH  15  31
ENDBRANCH  10  14
ENDBRANCH   9  10
BRANCH   5  33
ATOM     33  C   UNL     1     112.200 130.440 139.085  0.00  0.00    +0.000 C 
BRANCH  33  34
ATOM     34  O   UNL     1     111.775 130.084 138.475  0.00  0.00    +0.000 OA
BRANCH  34  40
ATOM     35  O   UNL     1     111.098 131.298 138.141  0.00  0.00    +0.000 OA
ATOM     36  O   UNL     1     110.727 130.458 135.842  0.00  0.00    +0.000 OA
ATOM     37  O   UNL     1     110.174 131.951 136.274  0.00  0.00    +0.000 OA
ATOM     38  C   UNL     1     111.251 130.272 137.159  0.00  0.00    +0.000 C 
ATOM     39  C   UNL     1     110.851 130.738 136.608  0.00  0.00    +0.000 C 
ATOM     40  C   UNL     1     111.374 130.552 137.925  0.00  0.00    +0.000 C 
ATOM     41  C   UNL     1     110.574 131.484 136.825  0.00  0.00    +0.000 C 
ATOM     42  C   UNL     1     110.698 131.764 137.591  0.00  0.00    +0.000 C 
ATOM     43  C   UNL     1     110.421 132.511 137.807  0.00  0.00    +0.000 C 
BRANCH  38  44
ATOM     44  O   UNL     1     111.528 129.525 136.942  0.00  0.00    +0.000 OA
BRANCH  44  46
ATOM     45  O   UNL     1     110.330 128.799 137.226  0.00  0.00    +0.000 OA
ATOM     46  C   UNL     1     110.993 128.926 136.751  0.00  0.00    +0.000 C 
ATOM     47  C   UNL     1     111.122 128.454 136.088  0.00  0.00    +0.000 C 
ENDBRANCH  44  46
ENDBRANCH  38  44
ENDBRANCH  34  40
ENDBRANCH  33  34
ENDBRANCH   5  33
TORSDOF 10
ENDMDL
MODEL 10
REMARK VINA RESULT:      -8.9      2.151      4.318
REMARK  Name = 44258452
REMARK  10 active torsions:
REMARK  status: ('A' for Active; 'I' for Inactive)
REMARK    1  A    between atoms: O_3  and  C_22
REMARK    2  A    between atoms: O_3  and  C_26
REMARK    3  A    between atoms: O_4  and  C_19
REMARK    4  A    between atoms: O_4  and  C_30
REMARK    5  A    between atoms: O_8  and  C_27
REMARK    6  A    between atoms: O_8  and  C_29
REMARK    7  A    between atoms: O_12  and  C_31
REMARK    8  A    between atoms: O_16  and  C_46
REMARK    9  A    between atoms: C_17  and  C_26
REMARK   10  A    between atoms: C_38  and  C_41
REMARK                            x       y       z     vdW  Elec       q    Type
REMARK                         _______ _______ _______ _____ _____    ______ ____
ROOT
ATOM      1  O   UNL     1     109.638 129.023 137.161  0.00  0.00    +0.000 OA
ATOM      2  O   UNL     1     108.623 130.917 136.775  0.00  0.00    +0.000 OA
ATOM      3  O   UNL     1     108.512 130.196 135.295  0.00  0.00    +0.000 OA
ATOM      4  O   UNL     1     109.152 128.694 135.058  0.00  0.00    +0.000 OA
ATOM      5  C   UNL     1     109.318 129.775 137.279  0.00  0.00    +0.000 C 
ATOM      6  C   UNL     1     108.943 130.166 136.657  0.00  0.00    +0.000 C 
ATOM      7  C   UNL     1     108.888 129.805 135.917  0.00  0.00    +0.000 C 
ATOM      8  C   UNL     1     109.207 129.055 135.798  0.00  0.00    +0.000 C 
ATOM      9  C   UNL     1     109.582 128.664 136.420  0.00  0.00    +0.000 C 
ENDROOT
BRANCH   9  10
ATOM     10  O   UNL     1     109.903 127.912 136.302  0.00  0.00    +0.000 OA
BRANCH  10  14
ATOM     11  O   UNL     1     112.642 128.727 135.939  0.00  0.00    +0.000 OA
ATOM     12  O   UNL     1     111.998 126.339 137.444  0.00  0.00    +0.000 OA
ATOM     13  O   UNL     1     113.383 126.713 137.285  0.00  0.00    +0.000 OA
ATOM     14  C   UNL     1     110.706 127.781 136.435  0.00  0.00    +0.000 A 
ATOM     15  C   UNL     1     110.951 127.125 136.873  0.00  0.00    +0.000 A 
ATOM     16  C   UNL     1     111.266 128.305 136.130  0.00  0.00    +0.000 A 
ATOM     17  C   UNL     1     112.070 128.173 136.263  0.00  0.00    +0.000 A 
ATOM     18  C   UNL     1     111.754 126.995 137.006  0.00  0.00    +0.000 A 
ATOM     19  C   UNL     1     112.314 127.519 136.701  0.00  0.00    +0.000 A 
ATOM     20  C   UNL     1     113.148 127.371 136.846  0.00  0.00    +0.000 A 
ATOM     21  C   UNL     1     113.481 128.596 136.075  0.00  0.00    +0.000 A 
ATOM     22  C   UNL     1     113.735 127.913 136.531  0.00  0.00    +0.000 A 
BRANCH  21  23
ATOM     23  C   UNL     1     114.038 129.122 135.768  0.00  0.00    +0.000 A 
ATOM     24  C   UNL     1     114.426 128.946 135.062  0.00  0.00    +0.000 A 
ATOM     25  C   UNL     1     114.208 129.823 136.169  0.00  0.00    +0.000 A 
ATOM     26  C   UNL     1     114.983 129.472 134.755  0.00  0.00    +0.000 A 
ATOM     27  C   UNL     1     114.765 130.348 135.863  0.00  0.00    +0.000 A 
ATOM     28  C   UNL     1     115.153 130.173 135.156  0.00  0.00    +0.000 A 
BRANCH  28  29
ATOM     29  O   UNL     1     115.710 130.698 134.850  0.00  0.00    +0.000 OA
ATOM     30  C   UNL     1     115.478 131.453 134.612  0.00  0.00    +0.000 C 
ENDBRANCH  28  29
ENDBRANCH  21  23
BRANCH  15  31
ATOM     31  O   UNL     1     110.391 126.601 137.178  0.00  0.00    +0.000 OA
ATOM     32  C   UNL     1     110.320 125.844 136.860  0.00  0.00    +0.000 C 
ENDBRANCH  15  31
ENDBRANCH  10  14
ENDBRANCH   9  10
BRANCH   5  33
ATOM     33  C   UNL     1     109.373 130.134 138.019  0.00  0.00    +0.000 C 
BRANCH  33  34
ATOM     34  O   UNL     1     110.016 129.972 138.510  0.00  0.00    +0.000 OA
BRANCH  34  40
ATOM     35  O   UNL     1     109.333 130.343 139.709  0.00  0.00    +0.000 OA
ATOM     36  O   UNL     1     111.486 131.017 140.727  0.00  0.00    +0.000 OA
ATOM     37  O   UNL     1     110.085 131.164 141.587  0.00  0.00    +0.000 OA
ATOM     38  C   UNL     1     110.750 130.494 139.619  0.00  0.00    +0.000 C 
ATOM     39  C   UNL     1     110.768 130.792 140.388  0.00  0.00    +0.000 C 
ATOM     40  C   UNL     1     110.033 130.270 139.280  0.00  0.00    +0.000 C 
ATOM     41  C   UNL     1     110.067 130.865 140.817  0.00  0.00    +0.000 C 
ATOM     42  C   UNL     1     109.350 130.641 140.478  0.00  0.00    +0.000 C 
ATOM     43  C   UNL     1     108.650 130.714 140.908  0.00  0.00    +0.000 C 
BRANCH  38  44
ATOM     44  O   UNL     1     111.451 130.421 139.189  0.00  0.00    +0.000 OA
BRANCH  44  46
ATOM     45  O   UNL     1     111.843 129.138 139.681  0.00  0.00    +0.000 OA
ATOM     46  C   UNL     1     112.041 129.904 139.446  0.00  0.00    +0.000 C 
ATOM     47  C   UNL     1     112.826 130.153 139.467  0.00  0.00    +0.000 C 
ENDBRANCH  44  46
ENDBRANCH  38  44
ENDBRANCH  34  40
ENDBRANCH  33  34
ENDBRANCH   5  33
TORSDOF 10
ENDMDL
