MODEL 1
REMARK VINA RESULT:      -9.5      0.000      0.000
REMARK  Name = 77170750
REMARK  4 active torsions:
REMARK  status: ('A' for Active; 'I' for Inactive)
REMARK    1  A    between atoms: O_2  and  C_13
REMARK    2  A    between atoms: O_2  and  C_16
REMARK    3  A    between atoms: C_14  and  C_15
REMARK    4  A    between atoms: C_17  and  C_21
REMARK                            x       y       z     vdW  Elec       q    Type
REMARK                         _______ _______ _______ _____ _____    ______ ____
ROOT
ATOM      1  O   UNL     1     112.091 125.505 136.018  0.00  0.00    +0.000 OA
ATOM      2  O   UNL     1     111.375 127.741 136.800  0.00  0.00    +0.000 OA
ATOM      3  C   UNL     1     112.335 126.683 136.788  0.00  0.00    +0.000 A 
ATOM      4  C   UNL     1     112.575 125.938 136.527  0.00  0.00    +0.000 A 
ATOM      5  C   UNL     1     111.614 126.996 136.540  0.00  0.00    +0.000 A 
ATOM      6  C   UNL     1     111.131 126.563 136.030  0.00  0.00    +0.000 A 
ATOM      7  C   UNL     1     111.369 125.818 135.769  0.00  0.00    +0.000 A 
ATOM      8  C   UNL     1     110.381 126.900 135.778  0.00  0.00    +0.000 A 
ATOM      9  C   UNL     1     110.875 125.357 135.238  0.00  0.00    +0.000 A 
ATOM     10  C   UNL     1     109.873 126.453 135.247  0.00  0.00    +0.000 A 
ATOM     11  C   UNL     1     110.122 125.677 134.976  0.00  0.00    +0.000 A 
ENDROOT
BRANCH   4  12
ATOM     12  C   UNL     1     113.296 125.625 136.775  0.00  0.00    +0.000 A 
ATOM     13  C   UNL     1     113.385 125.360 137.552  0.00  0.00    +0.000 A 
ATOM     14  C   UNL     1     113.929 125.577 136.248  0.00  0.00    +0.000 A 
ATOM     15  C   UNL     1     114.107 125.046 137.801  0.00  0.00    +0.000 A 
ATOM     16  C   UNL     1     114.650 125.264 136.497  0.00  0.00    +0.000 A 
ATOM     17  C   UNL     1     114.739 124.999 137.273  0.00  0.00    +0.000 A 
ENDBRANCH   4  12
BRANCH   3  18
ATOM     18  O   UNL     1     112.819 127.116 137.297  0.00  0.00    +0.000 OA
BRANCH  18  26
ATOM     19  O   UNL     1     113.296 128.023 136.302  0.00  0.00    +0.000 OA
ATOM     20  O   UNL     1     113.400 129.825 137.996  0.00  0.00    +0.000 OA
ATOM     21  O   UNL     1     112.888 128.317 138.426  0.00  0.00    +0.000 OA
ATOM     22  O   UNL     1     113.843 130.132 136.437  0.00  0.00    +0.000 OA
ATOM     23  C   UNL     1     113.366 129.225 137.431  0.00  0.00    +0.000 C 
ATOM     24  C   UNL     1     113.110 128.471 137.647  0.00  0.00    +0.000 C 
ATOM     25  C   UNL     1     113.587 129.378 136.652  0.00  0.00    +0.000 C 
ATOM     26  C   UNL     1     113.075 127.870 137.083  0.00  0.00    +0.000 C 
ATOM     27  C   UNL     1     113.552 128.778 136.088  0.00  0.00    +0.000 C 
BRANCH  27  30
ATOM     28  O   UNL     1     114.544 128.768 135.059  0.00  0.00    +0.000 OA
ATOM     29  O   UNL     1     113.226 129.245 134.777  0.00  0.00    +0.000 OA
ATOM     30  C   UNL     1     113.774 128.930 135.308  0.00  0.00    +0.000 C 
ENDBRANCH  27  30
ENDBRANCH  18  26
ENDBRANCH   3  18
TORSDOF 4
ENDMDL
MODEL 2
REMARK VINA RESULT:      -9.4      1.957      3.506
REMARK  Name = 77170750
REMARK  4 active torsions:
REMARK  status: ('A' for Active; 'I' for Inactive)
REMARK    1  A    between atoms: O_2  and  C_13
REMARK    2  A    between atoms: O_2  and  C_16
REMARK    3  A    between atoms: C_14  and  C_15
REMARK    4  A    between atoms: C_17  and  C_21
REMARK                            x       y       z     vdW  Elec       q    Type
REMARK                         _______ _______ _______ _____ _____    ______ ____
ROOT
ATOM      1  O   UNL     1     113.738 127.090 136.587  0.00  0.00    +0.000 OA
ATOM      2  O   UNL     1     112.129 127.933 138.269  0.00  0.00    +0.000 OA
ATOM      3  C   UNL     1     112.897 126.860 137.719  0.00  0.00    +0.000 A 
ATOM      4  C   UNL     1     113.433 126.579 137.158  0.00  0.00    +0.000 A 
ATOM      5  C   UNL     1     112.665 127.652 137.708  0.00  0.00    +0.000 A 
ATOM      6  C   UNL     1     112.970 128.163 137.137  0.00  0.00    +0.000 A 
ATOM      7  C   UNL     1     113.506 127.883 136.576  0.00  0.00    +0.000 A 
ATOM      8  C   UNL     1     112.721 128.985 137.136  0.00  0.00    +0.000 A 
ATOM      9  C   UNL     1     113.831 128.405 135.976  0.00  0.00    +0.000 A 
ATOM     10  C   UNL     1     113.035 129.523 136.543  0.00  0.00    +0.000 A 
ATOM     11  C   UNL     1     113.594 129.230 135.960  0.00  0.00    +0.000 A 
ENDROOT
BRANCH   4  12
ATOM     12  C   UNL     1     113.665 125.788 137.169  0.00  0.00    +0.000 A 
ATOM     13  C   UNL     1     113.146 125.203 136.904  0.00  0.00    +0.000 A 
ATOM     14  C   UNL     1     114.414 125.580 137.444  0.00  0.00    +0.000 A 
ATOM     15  C   UNL     1     113.378 124.411 136.915  0.00  0.00    +0.000 A 
ATOM     16  C   UNL     1     114.646 124.789 137.454  0.00  0.00    +0.000 A 
ATOM     17  C   UNL     1     114.128 124.204 137.190  0.00  0.00    +0.000 A 
ENDBRANCH   4  12
BRANCH   3  18
ATOM     18  O   UNL     1     112.592 126.349 138.290  0.00  0.00    +0.000 OA
BRANCH  18  26
ATOM     19  O   UNL     1     113.386 126.869 139.358  0.00  0.00    +0.000 OA
ATOM     20  O   UNL     1     111.573 126.347 140.960  0.00  0.00    +0.000 OA
ATOM     21  O   UNL     1     111.383 126.001 139.358  0.00  0.00    +0.000 OA
ATOM     22  O   UNL     1     112.971 127.040 141.494  0.00  0.00    +0.000 OA
ATOM     23  C   UNL     1     112.178 126.521 140.426  0.00  0.00    +0.000 C 
ATOM     24  C   UNL     1     112.082 126.348 139.625  0.00  0.00    +0.000 C 
ATOM     25  C   UNL     1     112.876 126.868 140.693  0.00  0.00    +0.000 C 
ATOM     26  C   UNL     1     112.686 126.522 139.091  0.00  0.00    +0.000 C 
ATOM     27  C   UNL     1     113.481 127.042 140.159  0.00  0.00    +0.000 C 
BRANCH  27  30
ATOM     28  O   UNL     1     114.833 126.916 140.602  0.00  0.00    +0.000 OA
ATOM     29  O   UNL     1     114.227 128.207 140.516  0.00  0.00    +0.000 OA
ATOM     30  C   UNL     1     114.180 127.389 140.426  0.00  0.00    +0.000 C 
ENDBRANCH  27  30
ENDBRANCH  18  26
ENDBRANCH   3  18
TORSDOF 4
ENDMDL
MODEL 3
REMARK VINA RESULT:      -9.3     11.708     13.016
REMARK  Name = 77170750
REMARK  4 active torsions:
REMARK  status: ('A' for Active; 'I' for Inactive)
REMARK    1  A    between atoms: O_2  and  C_13
REMARK    2  A    between atoms: O_2  and  C_16
REMARK    3  A    between atoms: C_14  and  C_15
REMARK    4  A    between atoms: C_17  and  C_21
REMARK                            x       y       z     vdW  Elec       q    Type
REMARK                         _______ _______ _______ _____ _____    ______ ____
ROOT
ATOM      1  O   UNL     1     106.185 126.168 148.570  0.00  0.00    +0.000 OA
ATOM      2  O   UNL     1     107.442 125.246 146.648  0.00  0.00    +0.000 OA
ATOM      3  C   UNL     1     106.476 126.160 147.171  0.00  0.00    +0.000 A 
ATOM      4  C   UNL     1     106.057 126.468 147.812  0.00  0.00    +0.000 A 
ATOM      5  C   UNL     1     107.023 125.554 147.288  0.00  0.00    +0.000 A 
ATOM      6  C   UNL     1     107.151 125.255 148.046  0.00  0.00    +0.000 A 
ATOM      7  C   UNL     1     106.732 125.561 148.688  0.00  0.00    +0.000 A 
ATOM      8  C   UNL     1     107.723 124.623 148.155  0.00  0.00    +0.000 A 
ATOM      9  C   UNL     1     106.856 125.259 149.482  0.00  0.00    +0.000 A 
ATOM     10  C   UNL     1     107.860 124.307 148.943  0.00  0.00    +0.000 A 
ATOM     11  C   UNL     1     107.424 124.627 149.610  0.00  0.00    +0.000 A 
ENDROOT
BRANCH   4  12
ATOM     12  C   UNL     1     105.511 127.074 147.695  0.00  0.00    +0.000 A 
ATOM     13  C   UNL     1     105.772 127.834 147.510  0.00  0.00    +0.000 A 
ATOM     14  C   UNL     1     104.703 126.921 147.764  0.00  0.00    +0.000 A 
ATOM     15  C   UNL     1     105.225 128.442 147.392  0.00  0.00    +0.000 A 
ATOM     16  C   UNL     1     104.156 127.527 147.647  0.00  0.00    +0.000 A 
ATOM     17  C   UNL     1     104.417 128.287 147.461  0.00  0.00    +0.000 A 
ENDBRANCH   4  12
BRANCH   3  18
ATOM     18  O   UNL     1     106.348 126.459 146.413  0.00  0.00    +0.000 OA
BRANCH  18  26
ATOM     19  O   UNL     1     105.549 125.361 145.968  0.00  0.00    +0.000 OA
ATOM     20  O   UNL     1     106.436 125.646 143.675  0.00  0.00    +0.000 OA
ATOM     21  O   UNL     1     106.939 126.649 144.885  0.00  0.00    +0.000 OA
ATOM     22  O   UNL     1     105.342 124.454 143.995  0.00  0.00    +0.000 OA
ATOM     23  C   UNL     1     106.140 125.551 144.440  0.00  0.00    +0.000 C 
ATOM     24  C   UNL     1     106.393 126.053 145.044  0.00  0.00    +0.000 C 
ATOM     25  C   UNL     1     105.594 124.955 144.599  0.00  0.00    +0.000 C 
ATOM     26  C   UNL     1     106.097 125.958 145.808  0.00  0.00    +0.000 C 
ATOM     27  C   UNL     1     105.298 124.860 145.363  0.00  0.00    +0.000 C 
BRANCH  27  30
ATOM     28  O   UNL     1     103.950 124.449 145.597  0.00  0.00    +0.000 OA
ATOM     29  O   UNL     1     105.004 123.484 145.611  0.00  0.00    +0.000 OA
ATOM     30  C   UNL     1     104.751 124.264 145.524  0.00  0.00    +0.000 C 
ENDBRANCH  27  30
ENDBRANCH  18  26
ENDBRANCH   3  18
TORSDOF 4
ENDMDL
MODEL 4
REMARK VINA RESULT:      -9.3     11.696     12.848
REMARK  Name = 77170750
REMARK  4 active torsions:
REMARK  status: ('A' for Active; 'I' for Inactive)
REMARK    1  A    between atoms: O_2  and  C_13
REMARK    2  A    between atoms: O_2  and  C_16
REMARK    3  A    between atoms: C_14  and  C_15
REMARK    4  A    between atoms: C_17  and  C_21
REMARK                            x       y       z     vdW  Elec       q    Type
REMARK                         _______ _______ _______ _____ _____    ______ ____
ROOT
ATOM      1  O   UNL     1     105.678 124.512 148.278  0.00  0.00    +0.000 OA
ATOM      2  O   UNL     1     107.442 125.156 146.665  0.00  0.00    +0.000 OA
ATOM      3  C   UNL     1     106.068 124.889 146.957  0.00  0.00    +0.000 A 
ATOM      4  C   UNL     1     105.480 124.674 147.494  0.00  0.00    +0.000 A 
ATOM      5  C   UNL     1     106.853 124.942 147.203  0.00  0.00    +0.000 A 
ATOM      6  C   UNL     1     107.051 124.780 147.987  0.00  0.00    +0.000 A 
ATOM      7  C   UNL     1     106.464 124.565 148.525  0.00  0.00    +0.000 A 
ATOM      8  C   UNL     1     107.873 124.838 148.231  0.00  0.00    +0.000 A 
ATOM      9  C   UNL     1     106.657 124.394 149.345  0.00  0.00    +0.000 A 
ATOM     10  C   UNL     1     108.085 124.671 149.048  0.00  0.00    +0.000 A 
ATOM     11  C   UNL     1     107.473 124.447 149.607  0.00  0.00    +0.000 A 
ENDROOT
BRANCH   4  12
ATOM     12  C   UNL     1     104.695 124.622 147.248  0.00  0.00    +0.000 A 
ATOM     13  C   UNL     1     104.148 125.190 147.490  0.00  0.00    +0.000 A 
ATOM     14  C   UNL     1     104.456 124.001 146.760  0.00  0.00    +0.000 A 
ATOM     15  C   UNL     1     103.362 125.137 147.243  0.00  0.00    +0.000 A 
ATOM     16  C   UNL     1     103.671 123.948 146.514  0.00  0.00    +0.000 A 
ATOM     17  C   UNL     1     103.124 124.516 146.756  0.00  0.00    +0.000 A 
ENDBRANCH   4  12
BRANCH   3  18
ATOM     18  O   UNL     1     105.870 125.051 146.172  0.00  0.00    +0.000 OA
BRANCH  18  26
ATOM     19  O   UNL     1     105.987 126.471 146.281  0.00  0.00    +0.000 OA
ATOM     20  O   UNL     1     106.821 126.581 143.954  0.00  0.00    +0.000 OA
ATOM     21  O   UNL     1     106.427 125.124 144.621  0.00  0.00    +0.000 OA
ATOM     22  O   UNL     1     106.659 127.963 144.838  0.00  0.00    +0.000 OA
ATOM     23  C   UNL     1     106.543 126.544 144.730  0.00  0.00    +0.000 C 
ATOM     24  C   UNL     1     106.346 125.815 145.062  0.00  0.00    +0.000 C 
ATOM     25  C   UNL     1     106.462 127.235 145.171  0.00  0.00    +0.000 C 
ATOM     26  C   UNL     1     106.068 125.779 145.838  0.00  0.00    +0.000 C 
ATOM     27  C   UNL     1     106.184 127.199 145.947  0.00  0.00    +0.000 C 
BRANCH  27  30
ATOM     28  O   UNL     1     105.363 128.250 146.460  0.00  0.00    +0.000 OA
ATOM     29  O   UNL     1     106.760 128.222 146.762  0.00  0.00    +0.000 OA
ATOM     30  C   UNL     1     106.103 127.890 146.390  0.00  0.00    +0.000 C 
ENDBRANCH  27  30
ENDBRANCH  18  26
ENDBRANCH   3  18
TORSDOF 4
ENDMDL
MODEL 5
REMARK VINA RESULT:      -9.3      1.494      2.163
REMARK  Name = 77170750
REMARK  4 active torsions:
REMARK  status: ('A' for Active; 'I' for Inactive)
REMARK    1  A    between atoms: O_2  and  C_13
REMARK    2  A    between atoms: O_2  and  C_16
REMARK    3  A    between atoms: C_14  and  C_15
REMARK    4  A    between atoms: C_17  and  C_21
REMARK                            x       y       z     vdW  Elec       q    Type
REMARK                         _______ _______ _______ _____ _____    ______ ____
ROOT
ATOM      1  O   UNL     1     111.840 125.492 135.787  0.00  0.00    +0.000 OA
ATOM      2  O   UNL     1     110.388 126.227 137.653  0.00  0.00    +0.000 OA
ATOM      3  C   UNL     1     111.649 125.748 137.179  0.00  0.00    +0.000 A 
ATOM      4  C   UNL     1     112.133 125.503 136.558  0.00  0.00    +0.000 A 
ATOM      5  C   UNL     1     110.873 125.982 137.031  0.00  0.00    +0.000 A 
ATOM      6  C   UNL     1     110.579 125.971 136.260  0.00  0.00    +0.000 A 
ATOM      7  C   UNL     1     111.062 125.726 135.638  0.00  0.00    +0.000 A 
ATOM      8  C   UNL     1     109.768 126.217 136.118  0.00  0.00    +0.000 A 
ATOM      9  C   UNL     1     110.769 125.711 134.830  0.00  0.00    +0.000 A 
ATOM     10  C   UNL     1     109.457 126.208 135.316  0.00  0.00    +0.000 A 
ATOM     11  C   UNL     1     109.960 125.953 134.669  0.00  0.00    +0.000 A 
ENDROOT
BRANCH   4  12
ATOM     12  C   UNL     1     112.909 125.269 136.706  0.00  0.00    +0.000 A 
ATOM     13  C   UNL     1     113.060 124.535 137.052  0.00  0.00    +0.000 A 
ATOM     14  C   UNL     1     113.536 125.768 136.510  0.00  0.00    +0.000 A 
ATOM     15  C   UNL     1     113.837 124.301 137.201  0.00  0.00    +0.000 A 
ATOM     16  C   UNL     1     114.313 125.534 136.658  0.00  0.00    +0.000 A 
ATOM     17  C   UNL     1     114.463 124.801 137.004  0.00  0.00    +0.000 A 
ENDBRANCH   4  12
BRANCH   3  18
ATOM     18  O   UNL     1     111.942 125.759 137.950  0.00  0.00    +0.000 OA
BRANCH  18  26
ATOM     19  O   UNL     1     112.111 127.177 138.003  0.00  0.00    +0.000 OA
ATOM     20  O   UNL     1     111.624 127.145 140.429  0.00  0.00    +0.000 OA
ATOM     21  O   UNL     1     111.618 125.738 139.568  0.00  0.00    +0.000 OA
ATOM     22  O   UNL     1     111.954 128.573 139.672  0.00  0.00    +0.000 OA
ATOM     23  C   UNL     1     111.786 127.156 139.620  0.00  0.00    +0.000 C 
ATOM     24  C   UNL     1     111.783 126.452 139.190  0.00  0.00    +0.000 C 
ATOM     25  C   UNL     1     111.951 127.870 139.242  0.00  0.00    +0.000 C 
ATOM     26  C   UNL     1     111.945 126.462 138.381  0.00  0.00    +0.000 C 
ATOM     27  C   UNL     1     112.114 127.880 138.434  0.00  0.00    +0.000 C 
BRANCH  27  30
ATOM     28  O   UNL     1     113.063 128.822 137.930  0.00  0.00    +0.000 OA
ATOM     29  O   UNL     1     111.663 129.080 137.801  0.00  0.00    +0.000 OA
ATOM     30  C   UNL     1     112.279 128.594 138.055  0.00  0.00    +0.000 C 
ENDBRANCH  27  30
ENDBRANCH  18  26
ENDBRANCH   3  18
TORSDOF 4
ENDMDL
MODEL 6
REMARK VINA RESULT:      -9.2     12.409     13.544
REMARK  Name = 77170750
REMARK  4 active torsions:
REMARK  status: ('A' for Active; 'I' for Inactive)
REMARK    1  A    between atoms: O_2  and  C_13
REMARK    2  A    between atoms: O_2  and  C_16
REMARK    3  A    between atoms: C_14  and  C_15
REMARK    4  A    between atoms: C_17  and  C_21
REMARK                            x       y       z     vdW  Elec       q    Type
REMARK                         _______ _______ _______ _____ _____    ______ ____
ROOT
ATOM      1  O   UNL     1     105.798 126.577 148.908  0.00  0.00    +0.000 OA
ATOM      2  O   UNL     1     105.625 126.829 146.452  0.00  0.00    +0.000 OA
ATOM      3  C   UNL     1     106.074 126.094 147.592  0.00  0.00    +0.000 A 
ATOM      4  C   UNL     1     106.132 126.010 148.411  0.00  0.00    +0.000 A 
ATOM      5  C   UNL     1     105.682 126.745 147.270  0.00  0.00    +0.000 A 
ATOM      6  C   UNL     1     105.348 127.312 147.768  0.00  0.00    +0.000 A 
ATOM      7  C   UNL     1     105.405 127.228 148.586  0.00  0.00    +0.000 A 
ATOM      8  C   UNL     1     104.943 127.985 147.420  0.00  0.00    +0.000 A 
ATOM      9  C   UNL     1     105.062 127.812 149.115  0.00  0.00    +0.000 A 
ATOM     10  C   UNL     1     104.592 128.580 147.934  0.00  0.00    +0.000 A 
ATOM     11  C   UNL     1     104.653 128.492 148.786  0.00  0.00    +0.000 A 
ENDROOT
BRANCH   4  12
ATOM     12  C   UNL     1     106.523 125.359 148.732  0.00  0.00    +0.000 A 
ATOM     13  C   UNL     1     107.344 125.301 148.671  0.00  0.00    +0.000 A 
ATOM     14  C   UNL     1     106.095 124.767 149.115  0.00  0.00    +0.000 A 
ATOM     15  C   UNL     1     107.736 124.649 148.993  0.00  0.00    +0.000 A 
ATOM     16  C   UNL     1     106.487 124.116 149.436  0.00  0.00    +0.000 A 
ATOM     17  C   UNL     1     107.307 124.058 149.375  0.00  0.00    +0.000 A 
ENDBRANCH   4  12
BRANCH   3  18
ATOM     18  O   UNL     1     106.408 125.527 147.095  0.00  0.00    +0.000 OA
BRANCH  18  26
ATOM     19  O   UNL     1     105.171 124.899 146.751  0.00  0.00    +0.000 OA
ATOM     20  O   UNL     1     106.053 124.395 144.495  0.00  0.00    +0.000 OA
ATOM     21  O   UNL     1     106.996 125.191 145.590  0.00  0.00    +0.000 OA
ATOM     22  O   UNL     1     104.523 123.936 144.904  0.00  0.00    +0.000 OA
ATOM     23  C   UNL     1     105.759 124.563 145.247  0.00  0.00    +0.000 C 
ATOM     24  C   UNL     1     106.231 124.961 145.794  0.00  0.00    +0.000 C 
ATOM     25  C   UNL     1     104.994 124.333 145.451  0.00  0.00    +0.000 C 
ATOM     26  C   UNL     1     105.937 125.129 146.547  0.00  0.00    +0.000 C 
ATOM     27  C   UNL     1     104.700 124.502 146.203  0.00  0.00    +0.000 C 
BRANCH  27  30
ATOM     28  O   UNL     1     103.813 123.570 146.825  0.00  0.00    +0.000 OA
ATOM     29  O   UNL     1     103.292 124.744 146.198  0.00  0.00    +0.000 OA
ATOM     30  C   UNL     1     103.935 124.272 146.408  0.00  0.00    +0.000 C 
ENDBRANCH  27  30
ENDBRANCH  18  26
ENDBRANCH   3  18
TORSDOF 4
ENDMDL
MODEL 7
REMARK VINA RESULT:      -9.2      1.777      3.482
REMARK  Name = 77170750
REMARK  4 active torsions:
REMARK  status: ('A' for Active; 'I' for Inactive)
REMARK    1  A    between atoms: O_2  and  C_13
REMARK    2  A    between atoms: O_2  and  C_16
REMARK    3  A    between atoms: C_14  and  C_15
REMARK    4  A    between atoms: C_17  and  C_21
REMARK                            x       y       z     vdW  Elec       q    Type
REMARK                         _______ _______ _______ _____ _____    ______ ____
ROOT
ATOM      1  O   UNL     1     113.524 126.159 138.619  0.00  0.00    +0.000 OA
ATOM      2  O   UNL     1     111.132 125.731 138.150  0.00  0.00    +0.000 OA
ATOM      3  C   UNL     1     112.503 125.658 137.754  0.00  0.00    +0.000 A 
ATOM      4  C   UNL     1     113.301 125.801 137.911  0.00  0.00    +0.000 A 
ATOM      5  C   UNL     1     111.929 125.874 138.306  0.00  0.00    +0.000 A 
ATOM      6  C   UNL     1     112.153 126.232 139.015  0.00  0.00    +0.000 A 
ATOM      7  C   UNL     1     112.950 126.375 139.172  0.00  0.00    +0.000 A 
ATOM      8  C   UNL     1     111.545 126.451 139.582  0.00  0.00    +0.000 A 
ATOM      9  C   UNL     1     113.196 126.747 139.906  0.00  0.00    +0.000 A 
ATOM     10  C   UNL     1     111.772 126.825 140.322  0.00  0.00    +0.000 A 
ATOM     11  C   UNL     1     112.602 126.973 140.485  0.00  0.00    +0.000 A 
ENDROOT
BRANCH   4  12
ATOM     12  C   UNL     1     113.874 125.586 137.359  0.00  0.00    +0.000 A 
ATOM     13  C   UNL     1     114.108 124.797 137.294  0.00  0.00    +0.000 A 
ATOM     14  C   UNL     1     114.215 126.158 136.872  0.00  0.00    +0.000 A 
ATOM     15  C   UNL     1     114.683 124.581 136.741  0.00  0.00    +0.000 A 
ATOM     16  C   UNL     1     114.789 125.943 136.321  0.00  0.00    +0.000 A 
ATOM     17  C   UNL     1     115.022 125.155 136.255  0.00  0.00    +0.000 A 
ENDBRANCH   4  12
BRANCH   3  18
ATOM     18  O   UNL     1     112.280 125.300 137.046  0.00  0.00    +0.000 OA
BRANCH  18  26
ATOM     19  O   UNL     1     111.806 126.513 136.457  0.00  0.00    +0.000 OA
ATOM     20  O   UNL     1     110.172 125.225 135.117  0.00  0.00    +0.000 OA
ATOM     21  O   UNL     1     111.190 124.441 136.153  0.00  0.00    +0.000 OA
ATOM     22  O   UNL     1     110.243 126.866 134.975  0.00  0.00    +0.000 OA
ATOM     23  C   UNL     1     110.716 125.654 135.564  0.00  0.00    +0.000 C 
ATOM     24  C   UNL     1     111.225 125.262 136.081  0.00  0.00    +0.000 C 
ATOM     25  C   UNL     1     110.752 126.475 135.493  0.00  0.00    +0.000 C 
ATOM     26  C   UNL     1     111.770 125.691 136.528  0.00  0.00    +0.000 C 
ATOM     27  C   UNL     1     111.297 126.904 135.939  0.00  0.00    +0.000 C 
BRANCH  27  30
ATOM     28  O   UNL     1     110.813 128.199 136.301  0.00  0.00    +0.000 OA
ATOM     29  O   UNL     1     111.887 128.072 135.366  0.00  0.00    +0.000 OA
ATOM     30  C   UNL     1     111.333 127.725 135.868  0.00  0.00    +0.000 C 
ENDBRANCH  27  30
ENDBRANCH  18  26
ENDBRANCH   3  18
TORSDOF 4
ENDMDL
MODEL 8
REMARK VINA RESULT:      -9.2      1.767      3.835
REMARK  Name = 77170750
REMARK  4 active torsions:
REMARK  status: ('A' for Active; 'I' for Inactive)
REMARK    1  A    between atoms: O_2  and  C_13
REMARK    2  A    between atoms: O_2  and  C_16
REMARK    3  A    between atoms: C_14  and  C_15
REMARK    4  A    between atoms: C_17  and  C_21
REMARK                            x       y       z     vdW  Elec       q    Type
REMARK                         _______ _______ _______ _____ _____    ______ ____
ROOT
ATOM      1  O   UNL     1     112.478 125.335 136.112  0.00  0.00    +0.000 OA
ATOM      2  O   UNL     1     112.851 127.065 137.843  0.00  0.00    +0.000 OA
ATOM      3  C   UNL     1     112.072 126.538 136.766  0.00  0.00    +0.000 A 
ATOM      4  C   UNL     1     111.948 125.962 136.189  0.00  0.00    +0.000 A 
ATOM      5  C   UNL     1     112.726 126.488 137.266  0.00  0.00    +0.000 A 
ATOM      6  C   UNL     1     113.257 125.861 137.188  0.00  0.00    +0.000 A 
ATOM      7  C   UNL     1     113.134 125.284 136.612  0.00  0.00    +0.000 A 
ATOM      8  C   UNL     1     113.935 125.820 137.715  0.00  0.00    +0.000 A 
ATOM      9  C   UNL     1     113.679 124.626 136.521  0.00  0.00    +0.000 A 
ATOM     10  C   UNL     1     114.492 125.169 137.639  0.00  0.00    +0.000 A 
ATOM     11  C   UNL     1     114.362 124.569 137.038  0.00  0.00    +0.000 A 
ENDROOT
BRANCH   4  12
ATOM     12  C   UNL     1     111.294 126.012 135.690  0.00  0.00    +0.000 A 
ATOM     13  C   UNL     1     110.673 125.474 135.769  0.00  0.00    +0.000 A 
ATOM     14  C   UNL     1     111.259 126.599 135.111  0.00  0.00    +0.000 A 
ATOM     15  C   UNL     1     110.017 125.524 135.269  0.00  0.00    +0.000 A 
ATOM     16  C   UNL     1     110.605 126.649 134.612  0.00  0.00    +0.000 A 
ATOM     17  C   UNL     1     109.984 126.112 134.691  0.00  0.00    +0.000 A 
ENDBRANCH   4  12
BRANCH   3  18
ATOM     18  O   UNL     1     111.542 127.165 136.844  0.00  0.00    +0.000 OA
BRANCH  18  26
ATOM     19  O   UNL     1     110.902 126.649 138.012  0.00  0.00    +0.000 OA
ATOM     20  O   UNL     1     110.496 128.957 138.809  0.00  0.00    +0.000 OA
ATOM     21  O   UNL     1     111.271 128.704 137.375  0.00  0.00    +0.000 OA
ATOM     22  O   UNL     1     109.992 127.672 139.712  0.00  0.00    +0.000 OA
ATOM     23  C   UNL     1     110.631 128.188 138.544  0.00  0.00    +0.000 C 
ATOM     24  C   UNL     1     111.019 128.062 137.826  0.00  0.00    +0.000 C 
ATOM     25  C   UNL     1     110.379 127.546 138.995  0.00  0.00    +0.000 C 
ATOM     26  C   UNL     1     111.154 127.292 137.560  0.00  0.00    +0.000 C 
ATOM     27  C   UNL     1     110.514 126.776 138.729  0.00  0.00    +0.000 C 
BRANCH  27  30
ATOM     28  O   UNL     1     109.521 125.797 139.040  0.00  0.00    +0.000 OA
ATOM     29  O   UNL     1     110.749 125.827 139.771  0.00  0.00    +0.000 OA
ATOM     30  C   UNL     1     110.262 126.133 139.180  0.00  0.00    +0.000 C 
ENDBRANCH  27  30
ENDBRANCH  18  26
ENDBRANCH   3  18
TORSDOF 4
ENDMDL
MODEL 9
REMARK VINA RESULT:      -9.0      1.628      3.434
REMARK  Name = 77170750
REMARK  4 active torsions:
REMARK  status: ('A' for Active; 'I' for Inactive)
REMARK    1  A    between atoms: O_2  and  C_13
REMARK    2  A    between atoms: O_2  and  C_16
REMARK    3  A    between atoms: C_14  and  C_15
REMARK    4  A    between atoms: C_17  and  C_21
REMARK                            x       y       z     vdW  Elec       q    Type
REMARK                         _______ _______ _______ _____ _____    ______ ____
ROOT
ATOM      1  O   UNL     1     113.819 127.162 136.400  0.00  0.00    +0.000 OA
ATOM      2  O   UNL     1     112.414 128.054 138.232  0.00  0.00    +0.000 OA
ATOM      3  C   UNL     1     113.093 126.959 137.614  0.00  0.00    +0.000 A 
ATOM      4  C   UNL     1     113.562 126.661 137.004  0.00  0.00    +0.000 A 
ATOM      5  C   UNL     1     112.882 127.756 137.622  0.00  0.00    +0.000 A 
ATOM      6  C   UNL     1     113.139 128.256 137.018  0.00  0.00    +0.000 A 
ATOM      7  C   UNL     1     113.608 127.960 136.407  0.00  0.00    +0.000 A 
ATOM      8  C   UNL     1     112.912 129.085 137.037  0.00  0.00    +0.000 A 
ATOM      9  C   UNL     1     113.882 128.470 135.773  0.00  0.00    +0.000 A 
ATOM     10  C   UNL     1     113.178 129.611 136.411  0.00  0.00    +0.000 A 
ATOM     11  C   UNL     1     113.665 129.302 135.775  0.00  0.00    +0.000 A 
ENDROOT
BRANCH   4  12
ATOM     12  C   UNL     1     113.773 125.865 136.996  0.00  0.00    +0.000 A 
ATOM     13  C   UNL     1     114.355 125.588 137.510  0.00  0.00    +0.000 A 
ATOM     14  C   UNL     1     113.402 125.344 136.475  0.00  0.00    +0.000 A 
ATOM     15  C   UNL     1     114.567 124.790 137.503  0.00  0.00    +0.000 A 
ATOM     16  C   UNL     1     113.613 124.547 136.467  0.00  0.00    +0.000 A 
ATOM     17  C   UNL     1     114.196 124.270 136.982  0.00  0.00    +0.000 A 
ENDBRANCH   4  12
BRANCH   3  18
ATOM     18  O   UNL     1     112.836 126.459 138.218  0.00  0.00    +0.000 OA
BRANCH  18  26
ATOM     19  O   UNL     1     111.496 126.398 137.726  0.00  0.00    +0.000 OA
ATOM     20  O   UNL     1     110.672 125.978 140.021  0.00  0.00    +0.000 OA
ATOM     21  O   UNL     1     112.287 126.179 139.748  0.00  0.00    +0.000 OA
ATOM     22  O   UNL     1     109.608 126.057 138.764  0.00  0.00    +0.000 OA
ATOM     23  C   UNL     1     110.947 126.118 139.256  0.00  0.00    +0.000 C 
ATOM     24  C   UNL     1     111.754 126.218 139.120  0.00  0.00    +0.000 C 
ATOM     25  C   UNL     1     110.414 126.157 138.628  0.00  0.00    +0.000 C 
ATOM     26  C   UNL     1     112.029 126.358 138.355  0.00  0.00    +0.000 C 
ATOM     27  C   UNL     1     110.689 126.297 137.863  0.00  0.00    +0.000 C 
BRANCH  27  30
ATOM     28  O   UNL     1     110.097 125.706 136.704  0.00  0.00    +0.000 OA
ATOM     29  O   UNL     1     109.684 127.005 137.134  0.00  0.00    +0.000 OA
ATOM     30  C   UNL     1     110.157 126.337 137.234  0.00  0.00    +0.000 C 
ENDBRANCH  27  30
ENDBRANCH  18  26
ENDBRANCH   3  18
TORSDOF 4
ENDMDL
MODEL 10
REMARK VINA RESULT:      -9.0      1.455      2.932
REMARK  Name = 77170750
REMARK  4 active torsions:
REMARK  status: ('A' for Active; 'I' for Inactive)
REMARK    1  A    between atoms: O_2  and  C_13
REMARK    2  A    between atoms: O_2  and  C_16
REMARK    3  A    between atoms: C_14  and  C_15
REMARK    4  A    between atoms: C_17  and  C_21
REMARK                            x       y       z     vdW  Elec       q    Type
REMARK                         _______ _______ _______ _____ _____    ______ ____
ROOT
ATOM      1  O   UNL     1     113.774 126.220 138.817  0.00  0.00    +0.000 OA
ATOM      2  O   UNL     1     112.105 127.940 138.196  0.00  0.00    +0.000 OA
ATOM      3  C   UNL     1     112.833 126.751 137.881  0.00  0.00    +0.000 A 
ATOM      4  C   UNL     1     113.390 126.177 138.088  0.00  0.00    +0.000 A 
ATOM      5  C   UNL     1     112.661 127.366 138.403  0.00  0.00    +0.000 A 
ATOM      6  C   UNL     1     113.045 127.408 139.132  0.00  0.00    +0.000 A 
ATOM      7  C   UNL     1     113.602 126.835 139.339  0.00  0.00    +0.000 A 
ATOM      8  C   UNL     1     112.857 128.054 139.667  0.00  0.00    +0.000 A 
ATOM      9  C   UNL     1     114.009 126.868 140.095  0.00  0.00    +0.000 A 
ATOM     10  C   UNL     1     113.255 128.103 140.428  0.00  0.00    +0.000 A 
ATOM     11  C   UNL     1     113.833 127.506 140.643  0.00  0.00    +0.000 A 
ENDROOT
BRANCH   4  12
ATOM     12  C   UNL     1     113.562 125.563 137.566  0.00  0.00    +0.000 A 
ATOM     13  C   UNL     1     113.011 124.961 137.442  0.00  0.00    +0.000 A 
ATOM     14  C   UNL     1     114.284 125.548 137.168  0.00  0.00    +0.000 A 
ATOM     15  C   UNL     1     113.183 124.345 136.920  0.00  0.00    +0.000 A 
ATOM     16  C   UNL     1     114.456 124.934 136.647  0.00  0.00    +0.000 A 
ATOM     17  C   UNL     1     113.906 124.332 136.523  0.00  0.00    +0.000 A 
ENDBRANCH   4  12
BRANCH   3  18
ATOM     18  O   UNL     1     112.449 126.709 137.152  0.00  0.00    +0.000 OA
BRANCH  18  26
ATOM     19  O   UNL     1     113.216 127.752 136.547  0.00  0.00    +0.000 OA
ATOM     20  O   UNL     1     111.264 128.382 135.161  0.00  0.00    +0.000 OA
ATOM     21  O   UNL     1     111.148 127.129 136.229  0.00  0.00    +0.000 OA
ATOM     22  O   UNL     1     112.680 129.214 135.018  0.00  0.00    +0.000 OA
ATOM     23  C   UNL     1     111.915 128.172 135.623  0.00  0.00    +0.000 C 
ATOM     24  C   UNL     1     111.856 127.545 136.157  0.00  0.00    +0.000 C 
ATOM     25  C   UNL     1     112.622 128.588 135.551  0.00  0.00    +0.000 C 
ATOM     26  C   UNL     1     112.507 127.335 136.619  0.00  0.00    +0.000 C 
ATOM     27  C   UNL     1     113.273 128.378 136.013  0.00  0.00    +0.000 C 
BRANCH  27  30
ATOM     28  O   UNL     1     114.582 128.505 135.455  0.00  0.00    +0.000 OA
ATOM     29  O   UNL     1     114.090 129.499 136.357  0.00  0.00    +0.000 OA
ATOM     30  C   UNL     1     113.982 128.794 135.942  0.00  0.00    +0.000 C 
ENDBRANCH  27  30
ENDBRANCH  18  26
ENDBRANCH   3  18
TORSDOF 4
ENDMDL
