MODEL 1
REMARK VINA RESULT:     -10.1      0.000      0.000
REMARK  Name = 44259127
REMARK  13 active torsions:
REMARK  status: ('A' for Active; 'I' for Inactive)
REMARK    1  A    between atoms: O_1  and  C_22
REMARK    2  A    between atoms: O_1  and  C_24
REMARK    3  A    between atoms: O_5  and  C_28
REMARK    4  A    between atoms: O_5  and  C_34
REMARK    5  A    between atoms: O_10  and  C_33
REMARK    6  A    between atoms: O_10  and  C_37
REMARK    7  A    between atoms: O_19  and  C_55
REMARK    8  A    between atoms: O_20  and  C_56
REMARK    9  A    between atoms: C_29  and  C_32
REMARK   10  A    between atoms: C_31  and  C_33
REMARK   11  A    between atoms: C_35  and  C_39
REMARK   12  A    between atoms: C_37  and  C_42
REMARK   13  A    between atoms: C_50  and  C_52
REMARK                            x       y       z     vdW  Elec       q    Type
REMARK                         _______ _______ _______ _____ _____    ______ ____
ROOT
ATOM      1  O   UNL     1     110.081 129.126 138.272  0.00  0.00    +0.000 OA
ATOM      2  O   UNL     1     109.409 126.822 138.876  0.00  0.00    +0.000 OA
ATOM      3  O   UNL     1     109.261 128.041 139.979  0.00  0.00    +0.000 OA
ATOM      4  C   UNL     1     109.931 127.748 137.922  0.00  0.00    +0.000 C 
ATOM      5  C   UNL     1     109.633 127.590 138.675  0.00  0.00    +0.000 C 
ATOM      6  C   UNL     1     109.559 128.199 139.226  0.00  0.00    +0.000 C 
ATOM      7  C   UNL     1     110.155 128.516 137.721  0.00  0.00    +0.000 C 
ATOM      8  C   UNL     1     109.782 128.967 139.025  0.00  0.00    +0.000 C 
ENDROOT
BRANCH   8  10
ATOM      9  O   UNL     1     110.264 130.188 139.591  0.00  0.00    +0.000 OA
ATOM     10  C   UNL     1     109.708 129.577 139.576  0.00  0.00    +0.000 C 
ENDBRANCH   8  10
BRANCH   4  11
ATOM     11  O   UNL     1     110.005 127.139 137.371  0.00  0.00    +0.000 OA
BRANCH  11  16
ATOM     12  O   UNL     1     111.183 126.680 138.039  0.00  0.00    +0.000 OA
ATOM     13  O   UNL     1     110.126 125.891 136.298  0.00  0.00    +0.000 OA
ATOM     14  O   UNL     1     111.363 124.807 136.430  0.00  0.00    +0.000 OA
ATOM     15  O   UNL     1     112.480 124.972 137.633  0.00  0.00    +0.000 OA
ATOM     16  C   UNL     1     110.624 126.597 137.436  0.00  0.00    +0.000 C 
ATOM     17  C   UNL     1     110.685 125.973 136.901  0.00  0.00    +0.000 C 
ATOM     18  C   UNL     1     111.303 125.431 136.966  0.00  0.00    +0.000 C 
ATOM     19  C   UNL     1     111.861 125.514 137.568  0.00  0.00    +0.000 C 
ATOM     20  C   UNL     1     111.801 126.138 138.104  0.00  0.00    +0.000 C 
BRANCH  20  21
ATOM     21  C   UNL     1     112.359 126.220 138.706  0.00  0.00    +0.000 C 
BRANCH  21  22
ATOM     22  O   UNL     1     112.814 126.906 138.756  0.00  0.00    +0.000 OA
BRANCH  22  24
ATOM     23  O   UNL     1     113.714 126.539 139.803  0.00  0.00    +0.000 OA
ATOM     24  C   UNL     1     113.207 127.091 139.457  0.00  0.00    +0.000 C 
BRANCH  24  25
ATOM     25  C   UNL     1     113.094 127.827 139.813  0.00  0.00    +0.000 C 
ATOM     26  C   UNL     1     113.589 128.069 140.426  0.00  0.00    +0.000 C 
BRANCH  26  28
ATOM     27  O   UNL     1     113.139 131.013 141.847  0.00  0.00    +0.000 OA
ATOM     28  C   UNL     1     113.476 128.805 140.782  0.00  0.00    +0.000 A 
ATOM     29  C   UNL     1     113.909 129.458 140.524  0.00  0.00    +0.000 A 
ATOM     30  C   UNL     1     112.931 128.888 141.394  0.00  0.00    +0.000 A 
ATOM     31  C   UNL     1     112.818 129.624 141.750  0.00  0.00    +0.000 A 
ATOM     32  C   UNL     1     113.797 130.194 140.879  0.00  0.00    +0.000 A 
ATOM     33  C   UNL     1     113.252 130.277 141.492  0.00  0.00    +0.000 A 
BRANCH  31  34
ATOM     34  O   UNL     1     112.273 129.707 142.363  0.00  0.00    +0.000 OA
ATOM     35  C   UNL     1     111.937 129.038 142.710  0.00  0.00    +0.000 C 
ENDBRANCH  31  34
BRANCH  32  36
ATOM     36  O   UNL     1     114.230 130.847 140.621  0.00  0.00    +0.000 OA
ATOM     37  C   UNL     1     114.933 130.737 140.204  0.00  0.00    +0.000 C 
ENDBRANCH  32  36
ENDBRANCH  26  28
ENDBRANCH  24  25
ENDBRANCH  22  24
ENDBRANCH  21  22
ENDBRANCH  20  21
ENDBRANCH  11  16
ENDBRANCH   4  11
BRANCH   7  38
ATOM     38  O   UNL     1     110.453 128.675 136.968  0.00  0.00    +0.000 OA
BRANCH  38  43
ATOM     39  O   UNL     1     110.554 130.562 135.876  0.00  0.00    +0.000 OA
ATOM     40  O   UNL     1     108.849 128.995 136.748  0.00  0.00    +0.000 OA
ATOM     41  O   UNL     1     107.784 129.828 136.243  0.00  0.00    +0.000 OA
ATOM     42  O   UNL     1     108.458 132.292 134.829  0.00  0.00    +0.000 OA
ATOM     43  C   UNL     1     110.219 129.358 136.567  0.00  0.00    +0.000 A 
ATOM     44  C   UNL     1     110.788 129.880 136.276  0.00  0.00    +0.000 A 
ATOM     45  C   UNL     1     109.417 129.517 136.457  0.00  0.00    +0.000 A 
ATOM     46  C   UNL     1     109.184 130.200 136.057  0.00  0.00    +0.000 A 
ATOM     47  C   UNL     1     109.753 130.723 135.766  0.00  0.00    +0.000 A 
ATOM     48  C   UNL     1     108.345 130.356 135.948  0.00  0.00    +0.000 A 
ATOM     49  C   UNL     1     109.522 131.437 135.347  0.00  0.00    +0.000 A 
ATOM     50  C   UNL     1     108.096 131.065 135.532  0.00  0.00    +0.000 A 
ATOM     51  C   UNL     1     108.689 131.608 135.230  0.00  0.00    +0.000 A 
BRANCH  44  54
ATOM     52  O   UNL     1     113.159 128.476 135.519  0.00  0.00    +0.000 OA
ATOM     53  O   UNL     1     113.996 129.244 136.717  0.00  0.00    +0.000 OA
ATOM     54  C   UNL     1     111.590 129.720 136.386  0.00  0.00    +0.000 A 
ATOM     55  C   UNL     1     111.973 129.178 135.898  0.00  0.00    +0.000 A 
ATOM     56  C   UNL     1     112.008 130.104 136.985  0.00  0.00    +0.000 A 
ATOM     57  C   UNL     1     112.776 129.019 136.008  0.00  0.00    +0.000 A 
ATOM     58  C   UNL     1     112.810 129.946 137.095  0.00  0.00    +0.000 A 
ATOM     59  C   UNL     1     113.194 129.402 136.606  0.00  0.00    +0.000 A 
ENDBRANCH  44  54
ENDBRANCH  38  43
ENDBRANCH   7  38
TORSDOF 13
ENDMDL
MODEL 2
REMARK VINA RESULT:      -9.9      1.524      4.355
REMARK  Name = 44259127
REMARK  13 active torsions:
REMARK  status: ('A' for Active; 'I' for Inactive)
REMARK    1  A    between atoms: O_1  and  C_22
REMARK    2  A    between atoms: O_1  and  C_24
REMARK    3  A    between atoms: O_5  and  C_28
REMARK    4  A    between atoms: O_5  and  C_34
REMARK    5  A    between atoms: O_10  and  C_33
REMARK    6  A    between atoms: O_10  and  C_37
REMARK    7  A    between atoms: O_19  and  C_55
REMARK    8  A    between atoms: O_20  and  C_56
REMARK    9  A    between atoms: C_29  and  C_32
REMARK   10  A    between atoms: C_31  and  C_33
REMARK   11  A    between atoms: C_35  and  C_39
REMARK   12  A    between atoms: C_37  and  C_42
REMARK   13  A    between atoms: C_50  and  C_52
REMARK                            x       y       z     vdW  Elec       q    Type
REMARK                         _______ _______ _______ _____ _____    ______ ____
ROOT
ATOM      1  O   UNL     1     110.584 129.777 138.920  0.00  0.00    +0.000 OA
ATOM      2  O   UNL     1     111.193 129.524 141.306  0.00  0.00    +0.000 OA
ATOM      3  O   UNL     1     109.717 129.015 140.773  0.00  0.00    +0.000 OA
ATOM      4  C   UNL     1     111.525 129.947 139.982  0.00  0.00    +0.000 C 
ATOM      5  C   UNL     1     110.990 129.608 140.510  0.00  0.00    +0.000 C 
ATOM      6  C   UNL     1     110.252 129.353 140.245  0.00  0.00    +0.000 C 
ATOM      7  C   UNL     1     111.322 130.031 139.187  0.00  0.00    +0.000 C 
ATOM      8  C   UNL     1     110.048 129.438 139.449  0.00  0.00    +0.000 C 
ENDROOT
BRANCH   8  10
ATOM      9  O   UNL     1     109.261 128.654 138.551  0.00  0.00    +0.000 OA
ATOM     10  C   UNL     1     109.311 129.183 139.182  0.00  0.00    +0.000 C 
ENDBRANCH   8  10
BRANCH   4  11
ATOM     11  O   UNL     1     112.263 130.201 140.248  0.00  0.00    +0.000 OA
BRANCH  11  16
ATOM     12  O   UNL     1     112.732 128.851 140.238  0.00  0.00    +0.000 OA
ATOM     13  O   UNL     1     113.760 130.717 140.715  0.00  0.00    +0.000 OA
ATOM     14  O   UNL     1     114.976 129.625 140.938  0.00  0.00    +0.000 OA
ATOM     15  O   UNL     1     114.697 128.018 140.694  0.00  0.00    +0.000 OA
ATOM     16  C   UNL     1     112.872 129.655 140.360  0.00  0.00    +0.000 C 
ATOM     17  C   UNL     1     113.620 129.913 140.593  0.00  0.00    +0.000 C 
ATOM     18  C   UNL     1     114.228 129.367 140.705  0.00  0.00    +0.000 C 
ATOM     19  C   UNL     1     114.089 128.564 140.583  0.00  0.00    +0.000 C 
ATOM     20  C   UNL     1     113.341 128.305 140.349  0.00  0.00    +0.000 C 
BRANCH  20  21
ATOM     21  C   UNL     1     113.201 127.502 140.228  0.00  0.00    +0.000 C 
BRANCH  21  22
ATOM     22  O   UNL     1     112.842 127.246 139.530  0.00  0.00    +0.000 OA
BRANCH  22  24
ATOM     23  O   UNL     1     112.258 126.121 140.189  0.00  0.00    +0.000 OA
ATOM     24  C   UNL     1     112.493 126.499 139.495  0.00  0.00    +0.000 C 
BRANCH  24  25
ATOM     25  C   UNL     1     112.379 126.131 138.766  0.00  0.00    +0.000 C 
ATOM     26  C   UNL     1     111.644 125.808 138.577  0.00  0.00    +0.000 C 
BRANCH  26  28
ATOM     27  O   UNL     1     111.185 124.334 135.660  0.00  0.00    +0.000 OA
ATOM     28  C   UNL     1     111.530 125.439 137.848  0.00  0.00    +0.000 A 
ATOM     29  C   UNL     1     111.024 125.776 137.290  0.00  0.00    +0.000 A 
ATOM     30  C   UNL     1     111.920 124.733 137.676  0.00  0.00    +0.000 A 
ATOM     31  C   UNL     1     111.806 124.365 136.947  0.00  0.00    +0.000 A 
ATOM     32  C   UNL     1     110.909 125.409 136.560  0.00  0.00    +0.000 A 
ATOM     33  C   UNL     1     111.300 124.703 136.390  0.00  0.00    +0.000 A 
BRANCH  31  34
ATOM     34  O   UNL     1     112.196 123.659 136.775  0.00  0.00    +0.000 OA
ATOM     35  C   UNL     1     112.126 123.014 137.286  0.00  0.00    +0.000 C 
ENDBRANCH  31  34
BRANCH  32  36
ATOM     36  O   UNL     1     110.404 125.746 136.003  0.00  0.00    +0.000 OA
ATOM     37  C   UNL     1     109.834 126.293 136.240  0.00  0.00    +0.000 C 
ENDBRANCH  32  36
ENDBRANCH  26  28
ENDBRANCH  24  25
ENDBRANCH  22  24
ENDBRANCH  21  22
ENDBRANCH  20  21
ENDBRANCH  11  16
ENDBRANCH   4  11
BRANCH   7  38
ATOM     38  O   UNL     1     111.857 130.370 138.658  0.00  0.00    +0.000 OA
BRANCH  38  43
ATOM     39  O   UNL     1     111.528 131.325 136.724  0.00  0.00    +0.000 OA
ATOM     40  O   UNL     1     110.923 131.656 139.100  0.00  0.00    +0.000 OA
ATOM     41  O   UNL     1     110.177 132.847 138.775  0.00  0.00    +0.000 OA
ATOM     42  O   UNL     1     110.039 133.720 135.992  0.00  0.00    +0.000 OA
ATOM     43  C   UNL     1     111.592 130.903 138.087  0.00  0.00    +0.000 A 
ATOM     44  C   UNL     1     111.793 130.792 137.295  0.00  0.00    +0.000 A 
ATOM     45  C   UNL     1     111.125 131.546 138.309  0.00  0.00    +0.000 A 
ATOM     46  C   UNL     1     110.859 132.079 137.738  0.00  0.00    +0.000 A 
ATOM     47  C   UNL     1     111.061 131.969 136.945  0.00  0.00    +0.000 A 
ATOM     48  C   UNL     1     110.373 132.745 137.981  0.00  0.00    +0.000 A 
ATOM     49  C   UNL     1     110.790 132.517 136.341  0.00  0.00    +0.000 A 
ATOM     50  C   UNL     1     110.094 133.303 137.390  0.00  0.00    +0.000 A 
ATOM     51  C   UNL     1     110.304 133.188 136.565  0.00  0.00    +0.000 A 
BRANCH  44  54
ATOM     52  O   UNL     1     114.368 129.588 136.997  0.00  0.00    +0.000 OA
ATOM     53  O   UNL     1     113.659 128.220 136.406  0.00  0.00    +0.000 OA
ATOM     54  C   UNL     1     112.260 130.149 137.073  0.00  0.00    +0.000 A 
ATOM     55  C   UNL     1     113.080 130.190 137.146  0.00  0.00    +0.000 A 
ATOM     56  C   UNL     1     111.906 129.466 136.777  0.00  0.00    +0.000 A 
ATOM     57  C   UNL     1     113.547 129.547 136.924  0.00  0.00    +0.000 A 
ATOM     58  C   UNL     1     112.372 128.822 136.555  0.00  0.00    +0.000 A 
ATOM     59  C   UNL     1     113.193 128.863 136.628  0.00  0.00    +0.000 A 
ENDBRANCH  44  54
ENDBRANCH  38  43
ENDBRANCH   7  38
TORSDOF 13
ENDMDL
MODEL 3
REMARK VINA RESULT:      -9.7      1.499      4.615
REMARK  Name = 44259127
REMARK  13 active torsions:
REMARK  status: ('A' for Active; 'I' for Inactive)
REMARK    1  A    between atoms: O_1  and  C_22
REMARK    2  A    between atoms: O_1  and  C_24
REMARK    3  A    between atoms: O_5  and  C_28
REMARK    4  A    between atoms: O_5  and  C_34
REMARK    5  A    between atoms: O_10  and  C_33
REMARK    6  A    between atoms: O_10  and  C_37
REMARK    7  A    between atoms: O_19  and  C_55
REMARK    8  A    between atoms: O_20  and  C_56
REMARK    9  A    between atoms: C_29  and  C_32
REMARK   10  A    between atoms: C_31  and  C_33
REMARK   11  A    between atoms: C_35  and  C_39
REMARK   12  A    between atoms: C_37  and  C_42
REMARK   13  A    between atoms: C_50  and  C_52
REMARK                            x       y       z     vdW  Elec       q    Type
REMARK                         _______ _______ _______ _____ _____    ______ ____
ROOT
ATOM      1  O   UNL     1     112.448 130.185 137.448  0.00  0.00    +0.000 OA
ATOM      2  O   UNL     1     114.028 130.821 139.244  0.00  0.00    +0.000 OA
ATOM      3  O   UNL     1     114.591 130.492 137.728  0.00  0.00    +0.000 OA
ATOM      4  C   UNL     1     112.694 130.562 138.804  0.00  0.00    +0.000 C 
ATOM      5  C   UNL     1     113.501 130.609 138.645  0.00  0.00    +0.000 C 
ATOM      6  C   UNL     1     113.783 130.444 137.887  0.00  0.00    +0.000 C 
ATOM      7  C   UNL     1     112.167 130.349 138.206  0.00  0.00    +0.000 C 
ATOM      8  C   UNL     1     113.257 130.232 137.289  0.00  0.00    +0.000 C 
ENDROOT
BRANCH   8  10
ATOM      9  O   UNL     1     113.430 129.316 136.206  0.00  0.00    +0.000 OA
ATOM     10  C   UNL     1     113.538 130.067 136.531  0.00  0.00    +0.000 C 
ENDBRANCH   8  10
BRANCH   4  11
ATOM     11  O   UNL     1     112.411 130.726 139.562  0.00  0.00    +0.000 OA
BRANCH  11  16
ATOM     12  O   UNL     1     112.849 129.440 140.007  0.00  0.00    +0.000 OA
ATOM     13  O   UNL     1     111.708 130.995 141.030  0.00  0.00    +0.000 OA
ATOM     14  O   UNL     1     111.794 129.844 142.210  0.00  0.00    +0.000 OA
ATOM     15  O   UNL     1     112.583 128.424 141.920  0.00  0.00    +0.000 OA
ATOM     16  C   UNL     1     112.454 130.151 140.152  0.00  0.00    +0.000 C 
ATOM     17  C   UNL     1     112.103 130.285 140.886  0.00  0.00    +0.000 C 
ATOM     18  C   UNL     1     112.146 129.709 141.475  0.00  0.00    +0.000 C 
ATOM     19  C   UNL     1     112.540 129.000 141.331  0.00  0.00    +0.000 C 
ATOM     20  C   UNL     1     112.892 128.865 140.597  0.00  0.00    +0.000 C 
BRANCH  20  21
ATOM     21  C   UNL     1     113.286 128.155 140.452  0.00  0.00    +0.000 C 
BRANCH  21  22
ATOM     22  O   UNL     1     113.093 127.702 139.790  0.00  0.00    +0.000 OA
BRANCH  22  24
ATOM     23  O   UNL     1     114.218 126.857 140.033  0.00  0.00    +0.000 OA
ATOM     24  C   UNL     1     113.581 127.080 139.559  0.00  0.00    +0.000 C 
BRANCH  24  25
ATOM     25  C   UNL     1     113.433 126.679 138.853  0.00  0.00    +0.000 C 
ATOM     26  C   UNL     1     113.821 125.969 138.692  0.00  0.00    +0.000 C 
BRANCH  26  28
ATOM     27  O   UNL     1     113.232 124.367 135.867  0.00  0.00    +0.000 OA
ATOM     28  C   UNL     1     113.673 125.569 137.986  0.00  0.00    +0.000 A 
ATOM     29  C   UNL     1     114.286 125.441 137.448  0.00  0.00    +0.000 A 
ATOM     30  C   UNL     1     112.914 125.296 137.817  0.00  0.00    +0.000 A 
ATOM     31  C   UNL     1     112.766 124.896 137.111  0.00  0.00    +0.000 A 
ATOM     32  C   UNL     1     114.140 125.040 136.742  0.00  0.00    +0.000 A 
ATOM     33  C   UNL     1     113.379 124.768 136.574  0.00  0.00    +0.000 A 
BRANCH  31  34
ATOM     34  O   UNL     1     112.006 124.623 136.942  0.00  0.00    +0.000 OA
ATOM     35  C   UNL     1     111.625 124.114 137.467  0.00  0.00    +0.000 C 
ENDBRANCH  31  34
BRANCH  32  36
ATOM     36  O   UNL     1     114.753 124.912 136.205  0.00  0.00    +0.000 OA
ATOM     37  C   UNL     1     115.246 125.536 135.987  0.00  0.00    +0.000 C 
ENDBRANCH  32  36
ENDBRANCH  26  28
ENDBRANCH  24  25
ENDBRANCH  22  24
ENDBRANCH  21  22
ENDBRANCH  20  21
ENDBRANCH  11  16
ENDBRANCH   4  11
BRANCH   7  38
ATOM     38  O   UNL     1     111.358 130.302 138.365  0.00  0.00    +0.000 OA
BRANCH  38  43
ATOM     39  O   UNL     1     109.664 130.369 136.992  0.00  0.00    +0.000 OA
ATOM     40  O   UNL     1     111.471 131.850 137.806  0.00  0.00    +0.000 OA
ATOM     41  O   UNL     1     110.998 132.932 136.976  0.00  0.00    +0.000 OA
ATOM     42  O   UNL     1     108.651 132.506 135.292  0.00  0.00    +0.000 OA
ATOM     43  C   UNL     1     110.812 130.582 137.814  0.00  0.00    +0.000 A 
ATOM     44  C   UNL     1     110.210 130.089 137.543  0.00  0.00    +0.000 A 
ATOM     45  C   UNL     1     110.869 131.357 137.535  0.00  0.00    +0.000 A 
ATOM     46  C   UNL     1     110.323 131.637 136.983  0.00  0.00    +0.000 A 
ATOM     47  C   UNL     1     109.720 131.143 136.712  0.00  0.00    +0.000 A 
ATOM     48  C   UNL     1     110.392 132.446 136.699  0.00  0.00    +0.000 A 
ATOM     49  C   UNL     1     109.145 131.423 136.138  0.00  0.00    +0.000 A 
ATOM     50  C   UNL     1     109.826 132.743 136.125  0.00  0.00    +0.000 A 
ATOM     51  C   UNL     1     109.199 132.228 135.843  0.00  0.00    +0.000 A 
BRANCH  44  54
ATOM     52  O   UNL     1     109.369 128.236 139.550  0.00  0.00    +0.000 OA
ATOM     53  O   UNL     1     109.983 126.991 138.658  0.00  0.00    +0.000 OA
ATOM     54  C   UNL     1     110.153 129.314 137.822  0.00  0.00    +0.000 A 
ATOM     55  C   UNL     1     109.790 129.162 138.546  0.00  0.00    +0.000 A 
ATOM     56  C   UNL     1     110.460 128.692 137.376  0.00  0.00    +0.000 A 
ATOM     57  C   UNL     1     109.733 128.388 138.826  0.00  0.00    +0.000 A 
ATOM     58  C   UNL     1     110.404 127.917 137.654  0.00  0.00    +0.000 A 
ATOM     59  C   UNL     1     110.040 127.765 138.380  0.00  0.00    +0.000 A 
ENDBRANCH  44  54
ENDBRANCH  38  43
ENDBRANCH   7  38
TORSDOF 13
ENDMDL
MODEL 4
REMARK VINA RESULT:      -9.6      1.594      4.602
REMARK  Name = 44259127
REMARK  13 active torsions:
REMARK  status: ('A' for Active; 'I' for Inactive)
REMARK    1  A    between atoms: O_1  and  C_22
REMARK    2  A    between atoms: O_1  and  C_24
REMARK    3  A    between atoms: O_5  and  C_28
REMARK    4  A    between atoms: O_5  and  C_34
REMARK    5  A    between atoms: O_10  and  C_33
REMARK    6  A    between atoms: O_10  and  C_37
REMARK    7  A    between atoms: O_19  and  C_55
REMARK    8  A    between atoms: O_20  and  C_56
REMARK    9  A    between atoms: C_29  and  C_32
REMARK   10  A    between atoms: C_31  and  C_33
REMARK   11  A    between atoms: C_35  and  C_39
REMARK   12  A    between atoms: C_37  and  C_42
REMARK   13  A    between atoms: C_50  and  C_52
REMARK                            x       y       z     vdW  Elec       q    Type
REMARK                         _______ _______ _______ _____ _____    ______ ____
ROOT
ATOM      1  O   UNL     1     110.821 126.651 138.434  0.00  0.00    +0.000 OA
ATOM      2  O   UNL     1     108.664 126.852 137.237  0.00  0.00    +0.000 OA
ATOM      3  O   UNL     1     108.728 126.092 138.700  0.00  0.00    +0.000 OA
ATOM      4  C   UNL     1     110.069 127.098 137.304  0.00  0.00    +0.000 C 
ATOM      5  C   UNL     1     109.383 126.785 137.636  0.00  0.00    +0.000 C 
ATOM      6  C   UNL     1     109.414 126.405 138.368  0.00  0.00    +0.000 C 
ATOM      7  C   UNL     1     110.788 127.031 137.703  0.00  0.00    +0.000 C 
ATOM      8  C   UNL     1     110.133 126.338 138.767  0.00  0.00    +0.000 C 
ENDROOT
BRANCH   8  10
ATOM      9  O   UNL     1     110.719 126.197 140.062  0.00  0.00    +0.000 OA
ATOM     10  C   UNL     1     110.166 125.958 139.498  0.00  0.00    +0.000 C 
ENDBRANCH   8  10
BRANCH   4  11
ATOM     11  O   UNL     1     110.038 127.479 136.572  0.00  0.00    +0.000 OA
BRANCH  11  16
ATOM     12  O   UNL     1     109.667 128.719 137.177  0.00  0.00    +0.000 OA
ATOM     13  O   UNL     1     109.447 128.008 135.125  0.00  0.00    +0.000 OA
ATOM     14  O   UNL     1     108.781 129.512 135.006  0.00  0.00    +0.000 OA
ATOM     15  O   UNL     1     108.705 130.488 136.335  0.00  0.00    +0.000 OA
ATOM     16  C   UNL     1     109.705 128.231 136.513  0.00  0.00    +0.000 C 
ATOM     17  C   UNL     1     109.409 128.496 135.790  0.00  0.00    +0.000 C 
ATOM     18  C   UNL     1     109.076 129.248 135.730  0.00  0.00    +0.000 C 
ATOM     19  C   UNL     1     109.038 129.736 136.394  0.00  0.00    +0.000 C 
ATOM     20  C   UNL     1     109.334 129.472 137.118  0.00  0.00    +0.000 C 
BRANCH  20  21
ATOM     21  C   UNL     1     109.296 129.959 137.782  0.00  0.00    +0.000 C 
BRANCH  21  22
ATOM     22  O   UNL     1     108.861 129.724 138.443  0.00  0.00    +0.000 OA
BRANCH  22  24
ATOM     23  O   UNL     1     108.720 130.895 139.248  0.00  0.00    +0.000 OA
ATOM     24  C   UNL     1     108.964 130.112 139.163  0.00  0.00    +0.000 C 
BRANCH  24  25
ATOM     25  C   UNL     1     109.310 129.717 139.800  0.00  0.00    +0.000 C 
ATOM     26  C   UNL     1     109.045 129.859 140.568  0.00  0.00    +0.000 C 
BRANCH  26  28
ATOM     27  O   UNL     1     110.427 128.278 143.113  0.00  0.00    +0.000 OA
ATOM     28  C   UNL     1     109.391 129.464 141.204  0.00  0.00    +0.000 A 
ATOM     29  C   UNL     1     108.998 128.832 141.560  0.00  0.00    +0.000 A 
ATOM     30  C   UNL     1     110.130 129.701 141.485  0.00  0.00    +0.000 A 
ATOM     31  C   UNL     1     110.475 129.306 142.120  0.00  0.00    +0.000 A 
ATOM     32  C   UNL     1     109.343 128.437 142.196  0.00  0.00    +0.000 A 
ATOM     33  C   UNL     1     110.082 128.674 142.476  0.00  0.00    +0.000 A 
BRANCH  31  34
ATOM     34  O   UNL     1     111.214 129.542 142.402  0.00  0.00    +0.000 OA
ATOM     35  C   UNL     1     111.439 130.335 142.355  0.00  0.00    +0.000 C 
ENDBRANCH  31  34
BRANCH  32  36
ATOM     36  O   UNL     1     108.950 127.805 142.552  0.00  0.00    +0.000 OA
ATOM     37  C   UNL     1     108.219 127.557 142.260  0.00  0.00    +0.000 C 
ENDBRANCH  32  36
ENDBRANCH  26  28
ENDBRANCH  24  25
ENDBRANCH  22  24
ENDBRANCH  21  22
ENDBRANCH  20  21
ENDBRANCH  11  16
ENDBRANCH   4  11
BRANCH   7  38
ATOM     38  O   UNL     1     111.476 127.344 137.370  0.00  0.00    +0.000 OA
BRANCH  38  43
ATOM     39  O   UNL     1     113.563 126.837 137.758  0.00  0.00    +0.000 OA
ATOM     40  O   UNL     1     111.535 125.801 136.790  0.00  0.00    +0.000 OA
ATOM     41  O   UNL     1     112.253 124.579 136.519  0.00  0.00    +0.000 OA
ATOM     42  O   UNL     1     115.077 124.403 137.242  0.00  0.00    +0.000 OA
ATOM     43  C   UNL     1     112.182 126.918 137.403  0.00  0.00    +0.000 A 
ATOM     44  C   UNL     1     112.857 127.263 137.725  0.00  0.00    +0.000 A 
ATOM     45  C   UNL     1     112.210 126.146 137.112  0.00  0.00    +0.000 A 
ATOM     46  C   UNL     1     112.916 125.720 137.145  0.00  0.00    +0.000 A 
ATOM     47  C   UNL     1     113.593 126.065 137.468  0.00  0.00    +0.000 A 
ATOM     48  C   UNL     1     112.934 124.916 136.840  0.00  0.00    +0.000 A 
ATOM     49  C   UNL     1     114.333 125.631 137.508  0.00  0.00    +0.000 A 
ATOM     50  C   UNL     1     113.666 124.467 136.871  0.00  0.00    +0.000 A 
ATOM     51  C   UNL     1     114.370 124.827 137.208  0.00  0.00    +0.000 A 
BRANCH  44  54
ATOM     52  O   UNL     1     112.908 130.084 137.268  0.00  0.00    +0.000 OA
ATOM     53  O   UNL     1     112.742 130.350 138.888  0.00  0.00    +0.000 OA
ATOM     54  C   UNL     1     112.828 128.035 138.015  0.00  0.00    +0.000 A 
ATOM     55  C   UNL     1     112.883 128.674 137.497  0.00  0.00    +0.000 A 
ATOM     56  C   UNL     1     112.745 128.168 138.825  0.00  0.00    +0.000 A 
ATOM     57  C   UNL     1     112.854 129.446 137.787  0.00  0.00    +0.000 A 
ATOM     58  C   UNL     1     112.716 128.939 139.117  0.00  0.00    +0.000 A 
ATOM     59  C   UNL     1     112.771 129.578 138.597  0.00  0.00    +0.000 A 
ENDBRANCH  44  54
ENDBRANCH  38  43
ENDBRANCH   7  38
TORSDOF 13
ENDMDL
MODEL 5
REMARK VINA RESULT:      -9.6      1.692      5.249
REMARK  Name = 44259127
REMARK  13 active torsions:
REMARK  status: ('A' for Active; 'I' for Inactive)
REMARK    1  A    between atoms: O_1  and  C_22
REMARK    2  A    between atoms: O_1  and  C_24
REMARK    3  A    between atoms: O_5  and  C_28
REMARK    4  A    between atoms: O_5  and  C_34
REMARK    5  A    between atoms: O_10  and  C_33
REMARK    6  A    between atoms: O_10  and  C_37
REMARK    7  A    between atoms: O_19  and  C_55
REMARK    8  A    between atoms: O_20  and  C_56
REMARK    9  A    between atoms: C_29  and  C_32
REMARK   10  A    between atoms: C_31  and  C_33
REMARK   11  A    between atoms: C_35  and  C_39
REMARK   12  A    between atoms: C_37  and  C_42
REMARK   13  A    between atoms: C_50  and  C_52
REMARK                            x       y       z     vdW  Elec       q    Type
REMARK                         _______ _______ _______ _____ _____    ______ ____
ROOT
ATOM      1  O   UNL     1     110.758 127.127 137.325  0.00  0.00    +0.000 OA
ATOM      2  O   UNL     1     108.977 126.309 138.837  0.00  0.00    +0.000 OA
ATOM      3  O   UNL     1     108.638 126.611 137.251  0.00  0.00    +0.000 OA
ATOM      4  C   UNL     1     110.333 126.703 138.622  0.00  0.00    +0.000 C 
ATOM      5  C   UNL     1     109.571 126.582 138.333  0.00  0.00    +0.000 C 
ATOM      6  C   UNL     1     109.401 126.733 137.540  0.00  0.00    +0.000 C 
ATOM      7  C   UNL     1     110.927 126.976 138.118  0.00  0.00    +0.000 C 
ATOM      8  C   UNL     1     109.994 127.006 137.036  0.00  0.00    +0.000 C 
ENDROOT
BRANCH   8  10
ATOM      9  O   UNL     1     109.886 127.926 135.948  0.00  0.00    +0.000 OA
ATOM     10  C   UNL     1     109.825 127.157 136.243  0.00  0.00    +0.000 C 
ENDBRANCH   8  10
BRANCH   4  11
ATOM     11  O   UNL     1     110.504 126.552 139.415  0.00  0.00    +0.000 OA
BRANCH  11  16
ATOM     12  O   UNL     1     109.886 127.787 139.784  0.00  0.00    +0.000 OA
ATOM     13  O   UNL     1     110.947 126.305 140.985  0.00  0.00    +0.000 OA
ATOM     14  O   UNL     1     110.552 127.416 142.139  0.00  0.00    +0.000 OA
ATOM     15  O   UNL     1     109.713 128.774 141.723  0.00  0.00    +0.000 OA
ATOM     16  C   UNL     1     110.306 127.107 139.992  0.00  0.00    +0.000 C 
ATOM     17  C   UNL     1     110.527 126.985 140.777  0.00  0.00    +0.000 C 
ATOM     18  C   UNL     1     110.330 127.540 141.354  0.00  0.00    +0.000 C 
ATOM     19  C   UNL     1     109.910 128.219 141.146  0.00  0.00    +0.000 C 
ATOM     20  C   UNL     1     109.688 128.343 140.361  0.00  0.00    +0.000 C 
BRANCH  20  21
ATOM     21  C   UNL     1     109.269 129.021 140.153  0.00  0.00    +0.000 C 
BRANCH  21  22
ATOM     22  O   UNL     1     109.510 129.474 139.506  0.00  0.00    +0.000 OA
BRANCH  22  24
ATOM     23  O   UNL     1     108.525 130.471 139.784  0.00  0.00    +0.000 OA
ATOM     24  C   UNL     1     109.057 130.118 139.261  0.00  0.00    +0.000 C 
BRANCH  24  25
ATOM     25  C   UNL     1     109.135 130.410 138.493  0.00  0.00    +0.000 C 
ATOM     26  C   UNL     1     108.895 131.179 138.318  0.00  0.00    +0.000 C 
BRANCH  26  28
ATOM     27  O   UNL     1     109.204 132.345 135.246  0.00  0.00    +0.000 OA
ATOM     28  C   UNL     1     108.973 131.471 137.550  0.00  0.00    +0.000 A 
ATOM     29  C   UNL     1     108.428 131.254 136.969  0.00  0.00    +0.000 A 
ATOM     30  C   UNL     1     109.594 131.978 137.362  0.00  0.00    +0.000 A 
ATOM     31  C   UNL     1     109.672 132.270 136.595  0.00  0.00    +0.000 A 
ATOM     32  C   UNL     1     108.505 131.546 136.202  0.00  0.00    +0.000 A 
ATOM     33  C   UNL     1     109.127 132.053 136.015  0.00  0.00    +0.000 A 
BRANCH  31  34
ATOM     34  O   UNL     1     110.294 132.778 136.407  0.00  0.00    +0.000 OA
ATOM     35  C   UNL     1     110.616 133.268 136.988  0.00  0.00    +0.000 C 
ENDBRANCH  31  34
BRANCH  32  36
ATOM     36  O   UNL     1     107.960 131.329 135.621  0.00  0.00    +0.000 OA
ATOM     37  C   UNL     1     107.176 131.579 135.678  0.00  0.00    +0.000 C 
ENDBRANCH  32  36
ENDBRANCH  26  28
ENDBRANCH  24  25
ENDBRANCH  22  24
ENDBRANCH  21  22
ENDBRANCH  20  21
ENDBRANCH  11  16
ENDBRANCH   4  11
BRANCH   7  38
ATOM     38  O   UNL     1     111.691 127.097 138.407  0.00  0.00    +0.000 OA
BRANCH  38  43
ATOM     39  O   UNL     1     113.583 127.139 137.322  0.00  0.00    +0.000 OA
ATOM     40  O   UNL     1     111.817 125.520 137.941  0.00  0.00    +0.000 OA
ATOM     41  O   UNL     1     112.519 124.453 137.269  0.00  0.00    +0.000 OA
ATOM     42  O   UNL     1     115.056 125.036 135.946  0.00  0.00    +0.000 OA
ATOM     43  C   UNL     1     112.343 126.848 137.968  0.00  0.00    +0.000 A 
ATOM     44  C   UNL     1     112.931 127.388 137.762  0.00  0.00    +0.000 A 
ATOM     45  C   UNL     1     112.405 126.059 137.735  0.00  0.00    +0.000 A 
ATOM     46  C   UNL     1     113.058 125.810 137.295  0.00  0.00    +0.000 A 
ATOM     47  C   UNL     1     113.647 126.350 137.089  0.00  0.00    +0.000 A 
ATOM     48  C   UNL     1     113.113 124.985 137.058  0.00  0.00    +0.000 A 
ATOM     49  C   UNL     1     114.331 126.103 136.631  0.00  0.00    +0.000 A 
ATOM     50  C   UNL     1     113.790 124.720 136.600  0.00  0.00    +0.000 A 
ATOM     51  C   UNL     1     114.402 125.283 136.386  0.00  0.00    +0.000 A 
BRANCH  44  54
ATOM     52  O   UNL     1     112.309 130.109 137.148  0.00  0.00    +0.000 OA
ATOM     53  O   UNL     1     112.681 130.543 138.696  0.00  0.00    +0.000 OA
ATOM     54  C   UNL     1     112.868 128.177 137.995  0.00  0.00    +0.000 A 
ATOM     55  C   UNL     1     112.620 128.748 137.455  0.00  0.00    +0.000 A 
ATOM     56  C   UNL     1     113.055 128.394 138.769  0.00  0.00    +0.000 A 
ATOM     57  C   UNL     1     112.557 129.537 137.688  0.00  0.00    +0.000 A 
ATOM     58  C   UNL     1     112.992 129.182 139.003  0.00  0.00    +0.000 A 
ATOM     59  C   UNL     1     112.743 129.754 138.462  0.00  0.00    +0.000 A 
ENDBRANCH  44  54
ENDBRANCH  38  43
ENDBRANCH   7  38
TORSDOF 13
ENDMDL
MODEL 6
REMARK VINA RESULT:      -9.5      1.699      4.993
REMARK  Name = 44259127
REMARK  13 active torsions:
REMARK  status: ('A' for Active; 'I' for Inactive)
REMARK    1  A    between atoms: O_1  and  C_22
REMARK    2  A    between atoms: O_1  and  C_24
REMARK    3  A    between atoms: O_5  and  C_28
REMARK    4  A    between atoms: O_5  and  C_34
REMARK    5  A    between atoms: O_10  and  C_33
REMARK    6  A    between atoms: O_10  and  C_37
REMARK    7  A    between atoms: O_19  and  C_55
REMARK    8  A    between atoms: O_20  and  C_56
REMARK    9  A    between atoms: C_29  and  C_32
REMARK   10  A    between atoms: C_31  and  C_33
REMARK   11  A    between atoms: C_35  and  C_39
REMARK   12  A    between atoms: C_37  and  C_42
REMARK   13  A    between atoms: C_50  and  C_52
REMARK                            x       y       z     vdW  Elec       q    Type
REMARK                         _______ _______ _______ _____ _____    ______ ____
ROOT
ATOM      1  O   UNL     1     112.281 128.738 138.289  0.00  0.00    +0.000 OA
ATOM      2  O   UNL     1     111.831 130.814 137.018  0.00  0.00    +0.000 OA
ATOM      3  O   UNL     1     112.741 130.869 138.394  0.00  0.00    +0.000 OA
ATOM      4  C   UNL     1     111.676 129.404 137.178  0.00  0.00    +0.000 C 
ATOM      5  C   UNL     1     111.981 130.122 137.442  0.00  0.00    +0.000 C 
ATOM      6  C   UNL     1     112.436 130.151 138.129  0.00  0.00    +0.000 C 
ATOM      7  C   UNL     1     111.826 128.712 137.601  0.00  0.00    +0.000 C 
ATOM      8  C   UNL     1     112.586 129.459 138.553  0.00  0.00    +0.000 C 
ENDROOT
BRANCH   8  10
ATOM      9  O   UNL     1     112.716 129.241 139.959  0.00  0.00    +0.000 OA
ATOM     10  C   UNL     1     113.041 129.485 139.240  0.00  0.00    +0.000 C 
ENDBRANCH   8  10
BRANCH   4  11
ATOM     11  O   UNL     1     111.221 129.375 136.490  0.00  0.00    +0.000 OA
BRANCH  11  16
ATOM     12  O   UNL     1     110.112 129.930 137.202  0.00  0.00    +0.000 OA
ATOM     13  O   UNL     1     110.291 129.262 135.131  0.00  0.00    +0.000 OA
ATOM     14  O   UNL     1     108.718 129.759 135.164  0.00  0.00    +0.000 OA
ATOM     15  O   UNL     1     108.075 130.370 136.555  0.00  0.00    +0.000 OA
ATOM     16  C   UNL     1     110.434 129.624 136.506  0.00  0.00    +0.000 C 
ATOM     17  C   UNL     1     109.969 129.567 135.827  0.00  0.00    +0.000 C 
ATOM     18  C   UNL     1     109.183 129.816 135.843  0.00  0.00    +0.000 C 
ATOM     19  C   UNL     1     108.861 130.121 136.539  0.00  0.00    +0.000 C 
ATOM     20  C   UNL     1     109.325 130.178 137.218  0.00  0.00    +0.000 C 
BRANCH  20  21
ATOM     21  C   UNL     1     109.004 130.484 137.913  0.00  0.00    +0.000 C 
BRANCH  21  22
ATOM     22  O   UNL     1     108.927 130.002 138.579  0.00  0.00    +0.000 OA
BRANCH  22  24
ATOM     23  O   UNL     1     108.402 131.039 139.410  0.00  0.00    +0.000 OA
ATOM     24  C   UNL     1     108.834 130.341 139.325  0.00  0.00    +0.000 C 
BRANCH  24  25
ATOM     25  C   UNL     1     109.173 129.983 139.987  0.00  0.00    +0.000 C 
ATOM     26  C   UNL     1     108.833 130.084 140.731  0.00  0.00    +0.000 C 
BRANCH  26  28
ATOM     27  O   UNL     1     110.188 128.650 143.377  0.00  0.00    +0.000 OA
ATOM     28  C   UNL     1     109.172 129.726 141.392  0.00  0.00    +0.000 A 
ATOM     29  C   UNL     1     108.836 129.042 141.708  0.00  0.00    +0.000 A 
ATOM     30  C   UNL     1     109.847 130.051 141.738  0.00  0.00    +0.000 A 
ATOM     31  C   UNL     1     110.185 129.693 142.399  0.00  0.00    +0.000 A 
ATOM     32  C   UNL     1     109.174 128.683 142.370  0.00  0.00    +0.000 A 
ATOM     33  C   UNL     1     109.849 129.009 142.715  0.00  0.00    +0.000 A 
BRANCH  31  34
ATOM     34  O   UNL     1     110.860 130.018 142.744  0.00  0.00    +0.000 OA
ATOM     35  C   UNL     1     110.946 130.837 142.791  0.00  0.00    +0.000 C 
ENDBRANCH  31  34
BRANCH  32  36
ATOM     36  O   UNL     1     108.838 127.999 142.686  0.00  0.00    +0.000 OA
ATOM     37  C   UNL     1     108.058 127.803 142.506  0.00  0.00    +0.000 C 
ENDBRANCH  32  36
ENDBRANCH  26  28
ENDBRANCH  24  25
ENDBRANCH  22  24
ENDBRANCH  21  22
ENDBRANCH  20  21
ENDBRANCH  11  16
ENDBRANCH   4  11
BRANCH   7  38
ATOM     38  O   UNL     1     111.520 127.991 137.337  0.00  0.00    +0.000 OA
BRANCH  38  43
ATOM     39  O   UNL     1     112.185 125.960 137.775  0.00  0.00    +0.000 OA
ATOM     40  O   UNL     1     112.994 127.979 136.595  0.00  0.00    +0.000 OA
ATOM     41  O   UNL     1     114.219 127.310 136.230  0.00  0.00    +0.000 OA
ATOM     42  O   UNL     1     114.633 124.546 137.075  0.00  0.00    +0.000 OA
ATOM     43  C   UNL     1     111.988 127.312 137.359  0.00  0.00    +0.000 A 
ATOM     44  C   UNL     1     111.718 126.639 137.752  0.00  0.00    +0.000 A 
ATOM     45  C   UNL     1     112.725 127.306 136.988  0.00  0.00    +0.000 A 
ATOM     46  C   UNL     1     113.192 126.627 137.011  0.00  0.00    +0.000 A 
ATOM     47  C   UNL     1     112.922 125.953 137.404  0.00  0.00    +0.000 A 
ATOM     48  C   UNL     1     113.958 126.632 136.621  0.00  0.00    +0.000 A 
ATOM     49  C   UNL     1     113.400 125.239 137.435  0.00  0.00    +0.000 A 
ATOM     50  C   UNL     1     114.449 125.927 136.641  0.00  0.00    +0.000 A 
ATOM     51  C   UNL     1     114.168 125.227 137.050  0.00  0.00    +0.000 A 
BRANCH  44  54
ATOM     52  O   UNL     1     108.868 126.495 137.600  0.00  0.00    +0.000 OA
ATOM     53  O   UNL     1     108.772 126.662 139.239  0.00  0.00    +0.000 OA
ATOM     54  C   UNL     1     110.981 126.645 138.124  0.00  0.00    +0.000 A 
ATOM     55  C   UNL     1     110.293 126.567 137.676  0.00  0.00    +0.000 A 
ATOM     56  C   UNL     1     110.933 126.729 138.943  0.00  0.00    +0.000 A 
ATOM     57  C   UNL     1     109.556 126.573 138.048  0.00  0.00    +0.000 A 
ATOM     58  C   UNL     1     110.197 126.734 139.315  0.00  0.00    +0.000 A 
ATOM     59  C   UNL     1     109.508 126.657 138.867  0.00  0.00    +0.000 A 
ENDBRANCH  44  54
ENDBRANCH  38  43
ENDBRANCH   7  38
TORSDOF 13
ENDMDL
MODEL 7
REMARK VINA RESULT:      -9.5      1.511      5.218
REMARK  Name = 44259127
REMARK  13 active torsions:
REMARK  status: ('A' for Active; 'I' for Inactive)
REMARK    1  A    between atoms: O_1  and  C_22
REMARK    2  A    between atoms: O_1  and  C_24
REMARK    3  A    between atoms: O_5  and  C_28
REMARK    4  A    between atoms: O_5  and  C_34
REMARK    5  A    between atoms: O_10  and  C_33
REMARK    6  A    between atoms: O_10  and  C_37
REMARK    7  A    between atoms: O_19  and  C_55
REMARK    8  A    between atoms: O_20  and  C_56
REMARK    9  A    between atoms: C_29  and  C_32
REMARK   10  A    between atoms: C_31  and  C_33
REMARK   11  A    between atoms: C_35  and  C_39
REMARK   12  A    between atoms: C_37  and  C_42
REMARK   13  A    between atoms: C_50  and  C_52
REMARK                            x       y       z     vdW  Elec       q    Type
REMARK                         _______ _______ _______ _____ _____    ______ ____
ROOT
ATOM      1  O   UNL     1     112.568 127.948 139.237  0.00  0.00    +0.000 OA
ATOM      2  O   UNL     1     110.223 127.375 139.782  0.00  0.00    +0.000 OA
ATOM      3  O   UNL     1     111.417 126.257 139.998  0.00  0.00    +0.000 OA
ATOM      4  C   UNL     1     111.189 128.316 139.311  0.00  0.00    +0.000 C 
ATOM      5  C   UNL     1     111.005 127.566 139.600  0.00  0.00    +0.000 C 
ATOM      6  C   UNL     1     111.602 127.006 139.708  0.00  0.00    +0.000 C 
ATOM      7  C   UNL     1     111.971 128.507 139.129  0.00  0.00    +0.000 C 
ATOM      8  C   UNL     1     112.383 127.197 139.527  0.00  0.00    +0.000 C 
ENDROOT
BRANCH   8  10
ATOM      9  O   UNL     1     113.655 126.835 140.068  0.00  0.00    +0.000 OA
ATOM     10  C   UNL     1     112.981 126.639 139.634  0.00  0.00    +0.000 C 
ENDBRANCH   8  10
BRANCH   4  11
ATOM     11  O   UNL     1     110.593 128.875 139.202  0.00  0.00    +0.000 OA
BRANCH  11  16
ATOM     12  O   UNL     1     110.213 128.241 137.979  0.00  0.00    +0.000 OA
ATOM     13  O   UNL     1     109.536 130.104 138.893  0.00  0.00    +0.000 OA
ATOM     14  O   UNL     1     108.628 130.084 137.516  0.00  0.00    +0.000 OA
ATOM     15  O   UNL     1     108.776 128.836 136.447  0.00  0.00    +0.000 OA
ATOM     16  C   UNL     1     110.139 128.865 138.514  0.00  0.00    +0.000 C 
ATOM     17  C   UNL     1     109.610 129.479 138.358  0.00  0.00    +0.000 C 
ATOM     18  C   UNL     1     109.156 129.469 137.670  0.00  0.00    +0.000 C 
ATOM     19  C   UNL     1     109.231 128.845 137.136  0.00  0.00    +0.000 C 
ATOM     20  C   UNL     1     109.759 128.231 137.290  0.00  0.00    +0.000 C 
BRANCH  20  21
ATOM     21  C   UNL     1     109.833 127.607 136.757  0.00  0.00    +0.000 C 
BRANCH  21  22
ATOM     22  O   UNL     1     110.573 127.416 136.444  0.00  0.00    +0.000 OA
BRANCH  22  24
ATOM     23  O   UNL     1     110.286 126.560 135.338  0.00  0.00    +0.000 OA
ATOM     24  C   UNL     1     110.682 126.702 136.047  0.00  0.00    +0.000 C 
BRANCH  24  25
ATOM     25  C   UNL     1     111.187 126.129 136.359  0.00  0.00    +0.000 C 
ATOM     26  C   UNL     1     111.809 125.835 135.905  0.00  0.00    +0.000 C 
BRANCH  26  28
ATOM     27  O   UNL     1     113.826 123.541 137.153  0.00  0.00    +0.000 OA
ATOM     28  C   UNL     1     112.314 125.262 136.217  0.00  0.00    +0.000 A 
ATOM     29  C   UNL     1     112.011 124.534 136.460  0.00  0.00    +0.000 A 
ATOM     30  C   UNL     1     113.121 125.416 136.286  0.00  0.00    +0.000 A 
ATOM     31  C   UNL     1     113.625 124.843 136.598  0.00  0.00    +0.000 A 
ATOM     32  C   UNL     1     112.514 123.960 136.772  0.00  0.00    +0.000 A 
ATOM     33  C   UNL     1     113.322 124.115 136.841  0.00  0.00    +0.000 A 
BRANCH  31  34
ATOM     34  O   UNL     1     114.433 124.997 136.668  0.00  0.00    +0.000 OA
ATOM     35  C   UNL     1     114.734 125.729 136.435  0.00  0.00    +0.000 C 
ENDBRANCH  31  34
BRANCH  32  36
ATOM     36  O   UNL     1     112.211 123.232 137.015  0.00  0.00    +0.000 OA
ATOM     37  C   UNL     1     111.616 123.203 137.585  0.00  0.00    +0.000 C 
ENDBRANCH  32  36
ENDBRANCH  26  28
ENDBRANCH  24  25
ENDBRANCH  22  24
ENDBRANCH  21  22
ENDBRANCH  20  21
ENDBRANCH  11  16
ENDBRANCH   4  11
BRANCH   7  38
ATOM     38  O   UNL     1     112.156 129.257 138.839  0.00  0.00    +0.000 OA
BRANCH  38  43
ATOM     39  O   UNL     1     114.076 130.295 138.845  0.00  0.00    +0.000 OA
ATOM     40  O   UNL     1     112.354 129.537 140.453  0.00  0.00    +0.000 OA
ATOM     41  O   UNL     1     113.113 130.066 141.560  0.00  0.00    +0.000 OA
ATOM     42  O   UNL     1     115.663 131.387 141.030  0.00  0.00    +0.000 OA
ATOM     43  C   UNL     1     112.829 129.650 139.110  0.00  0.00    +0.000 A 
ATOM     44  C   UNL     1     113.403 129.902 138.574  0.00  0.00    +0.000 A 
ATOM     45  C   UNL     1     112.928 129.790 139.917  0.00  0.00    +0.000 A 
ATOM     46  C   UNL     1     113.601 130.182 140.188  0.00  0.00    +0.000 A 
ATOM     47  C   UNL     1     114.175 130.435 139.652  0.00  0.00    +0.000 A 
ATOM     48  C   UNL     1     113.693 130.323 141.032  0.00  0.00    +0.000 A 
ATOM     49  C   UNL     1     114.880 130.845 139.922  0.00  0.00    +0.000 A 
ATOM     50  C   UNL     1     114.391 130.731 141.320  0.00  0.00    +0.000 A 
ATOM     51  C   UNL     1     114.989 130.994 140.761  0.00  0.00    +0.000 A 
BRANCH  44  54
ATOM     52  O   UNL     1     112.243 130.615 136.061  0.00  0.00    +0.000 OA
ATOM     53  O   UNL     1     113.011 129.341 135.346  0.00  0.00    +0.000 OA
ATOM     54  C   UNL     1     113.304 129.763 137.767  0.00  0.00    +0.000 A 
ATOM     55  C   UNL     1     112.823 130.258 137.318  0.00  0.00    +0.000 A 
ATOM     56  C   UNL     1     113.688 129.126 137.409  0.00  0.00    +0.000 A 
ATOM     57  C   UNL     1     112.724 130.119 136.510  0.00  0.00    +0.000 A 
ATOM     58  C   UNL     1     113.591 128.985 136.602  0.00  0.00    +0.000 A 
ATOM     59  C   UNL     1     113.108 129.482 136.153  0.00  0.00    +0.000 A 
ENDBRANCH  44  54
ENDBRANCH  38  43
ENDBRANCH   7  38
TORSDOF 13
ENDMDL
MODEL 8
REMARK VINA RESULT:      -9.5      1.508      3.195
REMARK  Name = 44259127
REMARK  13 active torsions:
REMARK  status: ('A' for Active; 'I' for Inactive)
REMARK    1  A    between atoms: O_1  and  C_22
REMARK    2  A    between atoms: O_1  and  C_24
REMARK    3  A    between atoms: O_5  and  C_28
REMARK    4  A    between atoms: O_5  and  C_34
REMARK    5  A    between atoms: O_10  and  C_33
REMARK    6  A    between atoms: O_10  and  C_37
REMARK    7  A    between atoms: O_19  and  C_55
REMARK    8  A    between atoms: O_20  and  C_56
REMARK    9  A    between atoms: C_29  and  C_32
REMARK   10  A    between atoms: C_31  and  C_33
REMARK   11  A    between atoms: C_35  and  C_39
REMARK   12  A    between atoms: C_37  and  C_42
REMARK   13  A    between atoms: C_50  and  C_52
REMARK                            x       y       z     vdW  Elec       q    Type
REMARK                         _______ _______ _______ _____ _____    ______ ____
ROOT
ATOM      1  O   UNL     1     110.623 129.965 137.729  0.00  0.00    +0.000 OA
ATOM      2  O   UNL     1     113.061 130.385 137.787  0.00  0.00    +0.000 OA
ATOM      3  O   UNL     1     112.153 130.613 139.146  0.00  0.00    +0.000 OA
ATOM      4  C   UNL     1     111.891 129.991 137.070  0.00  0.00    +0.000 C 
ATOM      5  C   UNL     1     112.249 130.245 137.768  0.00  0.00    +0.000 C 
ATOM      6  C   UNL     1     111.795 130.359 138.448  0.00  0.00    +0.000 C 
ATOM      7  C   UNL     1     111.078 129.851 137.051  0.00  0.00    +0.000 C 
ATOM      8  C   UNL     1     110.982 130.219 138.428  0.00  0.00    +0.000 C 
ENDROOT
BRANCH   8  10
ATOM      9  O   UNL     1     109.951 129.778 139.315  0.00  0.00    +0.000 OA
ATOM     10  C   UNL     1     110.527 130.332 139.107  0.00  0.00    +0.000 C 
ENDBRANCH   8  10
BRANCH   4  11
ATOM     11  O   UNL     1     112.345 129.878 136.390  0.00  0.00    +0.000 OA
BRANCH  11  16
ATOM     12  O   UNL     1     112.669 128.538 136.770  0.00  0.00    +0.000 OA
ATOM     13  O   UNL     1     113.648 129.907 135.379  0.00  0.00    +0.000 OA
ATOM     14  O   UNL     1     114.624 128.583 135.253  0.00  0.00    +0.000 OA
ATOM     15  O   UNL     1     114.297 127.229 136.138  0.00  0.00    +0.000 OA
ATOM     16  C   UNL     1     112.833 129.215 136.327  0.00  0.00    +0.000 C 
ATOM     17  C   UNL     1     113.485 129.229 135.822  0.00  0.00    +0.000 C 
ATOM     18  C   UNL     1     113.973 128.567 135.759  0.00  0.00    +0.000 C 
ATOM     19  C   UNL     1     113.809 127.891 136.201  0.00  0.00    +0.000 C 
ATOM     20  C   UNL     1     113.157 127.876 136.707  0.00  0.00    +0.000 C 
BRANCH  20  21
ATOM     21  C   UNL     1     112.994 127.200 137.149  0.00  0.00    +0.000 C 
BRANCH  21  22
ATOM     22  O   UNL     1     113.011 127.231 137.973  0.00  0.00    +0.000 OA
BRANCH  22  24
ATOM     23  O   UNL     1     112.798 125.850 138.270  0.00  0.00    +0.000 OA
ATOM     24  C   UNL     1     112.637 126.645 138.417  0.00  0.00    +0.000 C 
BRANCH  24  25
ATOM     25  C   UNL     1     112.099 126.854 139.007  0.00  0.00    +0.000 C 
ATOM     26  C   UNL     1     112.210 126.587 139.779  0.00  0.00    +0.000 C 
BRANCH  26  28
ATOM     27  O   UNL     1     110.063 127.425 142.142  0.00  0.00    +0.000 OA
ATOM     28  C   UNL     1     111.672 126.796 140.370  0.00  0.00    +0.000 A 
ATOM     29  C   UNL     1     111.903 127.308 140.974  0.00  0.00    +0.000 A 
ATOM     30  C   UNL     1     110.906 126.494 140.356  0.00  0.00    +0.000 A 
ATOM     31  C   UNL     1     110.369 126.704 140.946  0.00  0.00    +0.000 A 
ATOM     32  C   UNL     1     111.367 127.518 141.565  0.00  0.00    +0.000 A 
ATOM     33  C   UNL     1     110.600 127.215 141.551  0.00  0.00    +0.000 A 
BRANCH  31  34
ATOM     34  O   UNL     1     109.601 126.402 140.933  0.00  0.00    +0.000 OA
ATOM     35  C   UNL     1     109.473 125.613 140.727  0.00  0.00    +0.000 C 
ENDBRANCH  31  34
BRANCH  32  36
ATOM     36  O   UNL     1     111.598 128.030 142.170  0.00  0.00    +0.000 OA
ATOM     37  C   UNL     1     112.239 128.536 142.058  0.00  0.00    +0.000 C 
ENDBRANCH  32  36
ENDBRANCH  26  28
ENDBRANCH  24  25
ENDBRANCH  22  24
ENDBRANCH  21  22
ENDBRANCH  20  21
ENDBRANCH  11  16
ENDBRANCH   4  11
BRANCH   7  38
ATOM     38  O   UNL     1     110.719 129.597 136.352  0.00  0.00    +0.000 OA
BRANCH  38  43
ATOM     39  O   UNL     1     108.636 129.739 135.717  0.00  0.00    +0.000 OA
ATOM     40  O   UNL     1     110.541 131.233 136.231  0.00  0.00    +0.000 OA
ATOM     41  O   UNL     1     109.742 132.399 135.941  0.00  0.00    +0.000 OA
ATOM     42  O   UNL     1     106.963 132.046 135.116  0.00  0.00    +0.000 OA
ATOM     43  C   UNL     1     109.995 129.917 136.120  0.00  0.00    +0.000 A 
ATOM     44  C   UNL     1     109.361 129.419 135.949  0.00  0.00    +0.000 A 
ATOM     45  C   UNL     1     109.906 130.735 136.059  0.00  0.00    +0.000 A 
ATOM     46  C   UNL     1     109.182 131.055 135.827  0.00  0.00    +0.000 A 
ATOM     47  C   UNL     1     108.547 130.557 135.656  0.00  0.00    +0.000 A 
ATOM     48  C   UNL     1     109.101 131.909 135.768  0.00  0.00    +0.000 A 
ATOM     49  C   UNL     1     107.788 130.878 135.413  0.00  0.00    +0.000 A 
ATOM     50  C   UNL     1     108.349 132.248 135.527  0.00  0.00    +0.000 A 
ATOM     51  C   UNL     1     107.689 131.729 135.348  0.00  0.00    +0.000 A 
BRANCH  44  54
ATOM     52  O   UNL     1     109.047 126.997 137.434  0.00  0.00    +0.000 OA
ATOM     53  O   UNL     1     109.716 126.147 136.188  0.00  0.00    +0.000 OA
ATOM     54  C   UNL     1     109.449 128.601 136.009  0.00  0.00    +0.000 A 
ATOM     55  C   UNL     1     109.204 128.208 136.691  0.00  0.00    +0.000 A 
ATOM     56  C   UNL     1     109.784 128.176 135.386  0.00  0.00    +0.000 A 
ATOM     57  C   UNL     1     109.293 127.390 136.752  0.00  0.00    +0.000 A 
ATOM     58  C   UNL     1     109.873 127.358 135.445  0.00  0.00    +0.000 A 
ATOM     59  C   UNL     1     109.627 126.965 136.129  0.00  0.00    +0.000 A 
ENDBRANCH  44  54
ENDBRANCH  38  43
ENDBRANCH   7  38
TORSDOF 13
ENDMDL
MODEL 9
REMARK VINA RESULT:      -9.5      1.625      5.510
REMARK  Name = 44259127
REMARK  13 active torsions:
REMARK  status: ('A' for Active; 'I' for Inactive)
REMARK    1  A    between atoms: O_1  and  C_22
REMARK    2  A    between atoms: O_1  and  C_24
REMARK    3  A    between atoms: O_5  and  C_28
REMARK    4  A    between atoms: O_5  and  C_34
REMARK    5  A    between atoms: O_10  and  C_33
REMARK    6  A    between atoms: O_10  and  C_37
REMARK    7  A    between atoms: O_19  and  C_55
REMARK    8  A    between atoms: O_20  and  C_56
REMARK    9  A    between atoms: C_29  and  C_32
REMARK   10  A    between atoms: C_31  and  C_33
REMARK   11  A    between atoms: C_35  and  C_39
REMARK   12  A    between atoms: C_37  and  C_42
REMARK   13  A    between atoms: C_50  and  C_52
REMARK                            x       y       z     vdW  Elec       q    Type
REMARK                         _______ _______ _______ _____ _____    ______ ____
ROOT
ATOM      1  O   UNL     1     112.257 128.597 138.519  0.00  0.00    +0.000 OA
ATOM      2  O   UNL     1     111.910 129.084 140.920  0.00  0.00    +0.000 OA
ATOM      3  O   UNL     1     112.834 130.094 139.999  0.00  0.00    +0.000 OA
ATOM      4  C   UNL     1     111.680 128.255 139.780  0.00  0.00    +0.000 C 
ATOM      5  C   UNL     1     112.026 128.922 140.120  0.00  0.00    +0.000 C 
ATOM      6  C   UNL     1     112.488 129.427 139.660  0.00  0.00    +0.000 C 
ATOM      7  C   UNL     1     111.796 128.093 138.980  0.00  0.00    +0.000 C 
ATOM      8  C   UNL     1     112.604 129.265 138.859  0.00  0.00    +0.000 C 
ENDROOT
BRANCH   8  10
ATOM      9  O   UNL     1     112.724 130.182 137.769  0.00  0.00    +0.000 OA
ATOM     10  C   UNL     1     113.066 129.769 138.398  0.00  0.00    +0.000 C 
ENDBRANCH   8  10
BRANCH   4  11
ATOM     11  O   UNL     1     111.217 127.750 140.241  0.00  0.00    +0.000 OA
BRANCH  11  16
ATOM     12  O   UNL     1     110.144 128.693 140.199  0.00  0.00    +0.000 OA
ATOM     13  O   UNL     1     110.255 126.690 141.061  0.00  0.00    +0.000 OA
ATOM     14  O   UNL     1     108.700 127.102 141.429  0.00  0.00    +0.000 OA
ATOM     15  O   UNL     1     108.108 128.575 140.977  0.00  0.00    +0.000 OA
ATOM     16  C   UNL     1     110.440 127.956 140.425  0.00  0.00    +0.000 C 
ATOM     17  C   UNL     1     109.959 127.427 140.835  0.00  0.00    +0.000 C 
ATOM     18  C   UNL     1     109.181 127.633 141.019  0.00  0.00    +0.000 C 
ATOM     19  C   UNL     1     108.886 128.368 140.793  0.00  0.00    +0.000 C 
ATOM     20  C   UNL     1     109.366 128.899 140.383  0.00  0.00    +0.000 C 
BRANCH  20  21
ATOM     21  C   UNL     1     109.071 129.635 140.157  0.00  0.00    +0.000 C 
BRANCH  21  22
ATOM     22  O   UNL     1     109.062 129.850 139.361  0.00  0.00    +0.000 OA
BRANCH  22  24
ATOM     23  O   UNL     1     108.728 131.192 139.718  0.00  0.00    +0.000 OA
ATOM     24  C   UNL     1     108.947 130.638 139.147  0.00  0.00    +0.000 C 
BRANCH  24  25
ATOM     25  C   UNL     1     109.049 130.873 138.363  0.00  0.00    +0.000 C 
ATOM     26  C   UNL     1     108.684 131.558 138.086  0.00  0.00    +0.000 C 
BRANCH  26  28
ATOM     27  O   UNL     1     109.097 132.499 134.950  0.00  0.00    +0.000 OA
ATOM     28  C   UNL     1     108.787 131.793 137.301  0.00  0.00    +0.000 A 
ATOM     29  C   UNL     1     109.448 132.238 137.088  0.00  0.00    +0.000 A 
ATOM     30  C   UNL     1     108.230 131.583 136.731  0.00  0.00    +0.000 A 
ATOM     31  C   UNL     1     108.333 131.818 135.948  0.00  0.00    +0.000 A 
ATOM     32  C   UNL     1     109.552 132.474 136.304  0.00  0.00    +0.000 A 
ATOM     33  C   UNL     1     108.994 132.263 135.734  0.00  0.00    +0.000 A 
BRANCH  31  34
ATOM     34  O   UNL     1     107.776 131.608 135.376  0.00  0.00    +0.000 OA
ATOM     35  C   UNL     1     106.972 131.714 135.527  0.00  0.00    +0.000 C 
ENDBRANCH  31  34
BRANCH  32  36
ATOM     36  O   UNL     1     110.212 132.919 136.091  0.00  0.00    +0.000 OA
ATOM     37  C   UNL     1     110.549 133.442 136.632  0.00  0.00    +0.000 C 
ENDBRANCH  32  36
ENDBRANCH  26  28
ENDBRANCH  24  25
ENDBRANCH  22  24
ENDBRANCH  21  22
ENDBRANCH  20  21
ENDBRANCH  11  16
ENDBRANCH   4  11
BRANCH   7  38
ATOM     38  O   UNL     1     111.449 127.425 138.640  0.00  0.00    +0.000 OA
BRANCH  38  43
ATOM     39  O   UNL     1     112.019 126.339 136.835  0.00  0.00    +0.000 OA
ATOM     40  O   UNL     1     112.903 126.796 139.100  0.00  0.00    +0.000 OA
ATOM     41  O   UNL     1     114.084 126.012 138.829  0.00  0.00    +0.000 OA
ATOM     42  O   UNL     1     114.375 124.742 136.216  0.00  0.00    +0.000 OA
ATOM     43  C   UNL     1     111.881 126.958 138.115  0.00  0.00    +0.000 A 
ATOM     44  C   UNL     1     111.587 126.806 137.360  0.00  0.00    +0.000 A 
ATOM     45  C   UNL     1     112.609 126.644 138.346  0.00  0.00    +0.000 A 
ATOM     46  C   UNL     1     113.041 126.177 137.821  0.00  0.00    +0.000 A 
ATOM     47  C   UNL     1     112.746 126.024 137.064  0.00  0.00    +0.000 A 
ATOM     48  C   UNL     1     113.797 125.854 138.072  0.00  0.00    +0.000 A 
ATOM     49  C   UNL     1     113.187 125.539 136.509  0.00  0.00    +0.000 A 
ATOM     50  C   UNL     1     114.252 125.367 137.530  0.00  0.00    +0.000 A 
ATOM     51  C   UNL     1     113.945 125.209 136.743  0.00  0.00    +0.000 A 
BRANCH  44  54
ATOM     52  O   UNL     1     110.080 128.769 135.930  0.00  0.00    +0.000 OA
ATOM     53  O   UNL     1     108.678 128.062 136.437  0.00  0.00    +0.000 OA
ATOM     54  C   UNL     1     110.860 127.121 137.129  0.00  0.00    +0.000 A 
ATOM     55  C   UNL     1     110.833 127.788 136.645  0.00  0.00    +0.000 A 
ATOM     56  C   UNL     1     110.159 126.767 137.382  0.00  0.00    +0.000 A 
ATOM     57  C   UNL     1     110.106 128.102 136.414  0.00  0.00    +0.000 A 
ATOM     58  C   UNL     1     109.431 127.080 137.152  0.00  0.00    +0.000 A 
ATOM     59  C   UNL     1     109.405 127.749 136.667  0.00  0.00    +0.000 A 
ENDBRANCH  44  54
ENDBRANCH  38  43
ENDBRANCH   7  38
TORSDOF 13
ENDMDL
MODEL 10
REMARK VINA RESULT:      -9.4      1.814      5.978
REMARK  Name = 44259127
REMARK  13 active torsions:
REMARK  status: ('A' for Active; 'I' for Inactive)
REMARK    1  A    between atoms: O_1  and  C_22
REMARK    2  A    between atoms: O_1  and  C_24
REMARK    3  A    between atoms: O_5  and  C_28
REMARK    4  A    between atoms: O_5  and  C_34
REMARK    5  A    between atoms: O_10  and  C_33
REMARK    6  A    between atoms: O_10  and  C_37
REMARK    7  A    between atoms: O_19  and  C_55
REMARK    8  A    between atoms: O_20  and  C_56
REMARK    9  A    between atoms: C_29  and  C_32
REMARK   10  A    between atoms: C_31  and  C_33
REMARK   11  A    between atoms: C_35  and  C_39
REMARK   12  A    between atoms: C_37  and  C_42
REMARK   13  A    between atoms: C_50  and  C_52
REMARK                            x       y       z     vdW  Elec       q    Type
REMARK                         _______ _______ _______ _____ _____    ______ ____
ROOT
ATOM      1  O   UNL     1     113.206 129.205 140.540  0.00  0.00    +0.000 OA
ATOM      2  O   UNL     1     113.797 131.077 139.032  0.00  0.00    +0.000 OA
ATOM      3  O   UNL     1     114.985 130.132 139.678  0.00  0.00    +0.000 OA
ATOM      4  C   UNL     1     112.810 130.302 139.714  0.00  0.00    +0.000 C 
ATOM      5  C   UNL     1     113.600 130.453 139.535  0.00  0.00    +0.000 C 
ATOM      6  C   UNL     1     114.195 129.981 139.857  0.00  0.00    +0.000 C 
ATOM      7  C   UNL     1     112.613 129.678 140.217  0.00  0.00    +0.000 C 
ATOM      8  C   UNL     1     113.998 129.357 140.360  0.00  0.00    +0.000 C 
ENDROOT
BRANCH   8  10
ATOM      9  O   UNL     1     114.563 128.064 140.588  0.00  0.00    +0.000 OA
ATOM     10  C   UNL     1     114.591 128.884 140.683  0.00  0.00    +0.000 C 
ENDBRANCH   8  10
BRANCH   4  11
ATOM     11  O   UNL     1     112.215 130.775 139.392  0.00  0.00    +0.000 OA
BRANCH  11  16
ATOM     12  O   UNL     1     112.356 130.097 138.141  0.00  0.00    +0.000 OA
ATOM     13  O   UNL     1     111.064 131.755 138.731  0.00  0.00    +0.000 OA
ATOM     14  O   UNL     1     110.629 131.567 137.150  0.00  0.00    +0.000 OA
ATOM     15  O   UNL     1     111.346 130.400 136.230  0.00  0.00    +0.000 OA
ATOM     16  C   UNL     1     111.998 130.681 138.601  0.00  0.00    +0.000 C 
ATOM     17  C   UNL     1     111.422 131.170 138.270  0.00  0.00    +0.000 C 
ATOM     18  C   UNL     1     111.205 131.077 137.480  0.00  0.00    +0.000 C 
ATOM     19  C   UNL     1     111.563 130.493 137.021  0.00  0.00    +0.000 C 
ATOM     20  C   UNL     1     112.139 130.003 137.351  0.00  0.00    +0.000 C 
BRANCH  20  21
ATOM     21  C   UNL     1     112.497 129.420 136.891  0.00  0.00    +0.000 C 
BRANCH  21  22
ATOM     22  O   UNL     1     112.533 128.642 137.165  0.00  0.00    +0.000 OA
BRANCH  22  24
ATOM     23  O   UNL     1     113.613 128.355 136.275  0.00  0.00    +0.000 OA
ATOM     24  C   UNL     1     113.025 128.095 136.793  0.00  0.00    +0.000 C 
BRANCH  24  25
ATOM     25  C   UNL     1     112.930 127.288 136.937  0.00  0.00    +0.000 C 
ATOM     26  C   UNL     1     113.117 126.740 136.350  0.00  0.00    +0.000 C 
BRANCH  26  28
ATOM     27  O   UNL     1     112.741 123.512 136.927  0.00  0.00    +0.000 OA
ATOM     28  C   UNL     1     113.022 125.933 136.494  0.00  0.00    +0.000 A 
ATOM     29  C   UNL     1     113.648 125.493 136.803  0.00  0.00    +0.000 A 
ATOM     30  C   UNL     1     112.303 125.566 136.330  0.00  0.00    +0.000 A 
ATOM     31  C   UNL     1     112.209 124.759 136.474  0.00  0.00    +0.000 A 
ATOM     32  C   UNL     1     113.555 124.686 136.948  0.00  0.00    +0.000 A 
ATOM     33  C   UNL     1     112.835 124.320 136.783  0.00  0.00    +0.000 A 
BRANCH  31  34
ATOM     34  O   UNL     1     111.488 124.391 136.309  0.00  0.00    +0.000 OA
ATOM     35  C   UNL     1     110.930 124.772 135.836  0.00  0.00    +0.000 C 
ENDBRANCH  31  34
BRANCH  32  36
ATOM     36  O   UNL     1     114.181 124.247 137.257  0.00  0.00    +0.000 OA
ATOM     37  C   UNL     1     114.866 124.628 137.512  0.00  0.00    +0.000 C 
ENDBRANCH  32  36
ENDBRANCH  26  28
ENDBRANCH  24  25
ENDBRANCH  22  24
ENDBRANCH  21  22
ENDBRANCH  20  21
ENDBRANCH  11  16
ENDBRANCH   4  11
BRANCH   7  38
ATOM     38  O   UNL     1     111.821 129.527 140.397  0.00  0.00    +0.000 OA
BRANCH  38  43
ATOM     39  O   UNL     1     110.956 128.472 142.100  0.00  0.00    +0.000 OA
ATOM     40  O   UNL     1     112.238 130.536 141.634  0.00  0.00    +0.000 OA
ATOM     41  O   UNL     1     112.242 130.884 143.034  0.00  0.00    +0.000 OA
ATOM     42  O   UNL     1     110.923 129.109 144.941  0.00  0.00    +0.000 OA
ATOM     43  C   UNL     1     111.602 129.343 141.171  0.00  0.00    +0.000 A 
ATOM     44  C   UNL     1     111.175 128.655 141.326  0.00  0.00    +0.000 A 
ATOM     45  C   UNL     1     111.811 129.848 141.789  0.00  0.00    +0.000 A 
ATOM     46  C   UNL     1     111.591 129.664 142.563  0.00  0.00    +0.000 A 
ATOM     47  C   UNL     1     111.163 128.976 142.718  0.00  0.00    +0.000 A 
ATOM     48  C   UNL     1     111.814 130.198 143.199  0.00  0.00    +0.000 A 
ATOM     49  C   UNL     1     110.929 128.774 143.520  0.00  0.00    +0.000 A 
ATOM     50  C   UNL     1     111.589 130.012 144.007  0.00  0.00    +0.000 A 
ATOM     51  C   UNL     1     111.143 129.295 144.168  0.00  0.00    +0.000 A 
BRANCH  44  54
ATOM     52  O   UNL     1     111.606 126.254 139.836  0.00  0.00    +0.000 OA
ATOM     53  O   UNL     1     110.338 126.637 138.852  0.00  0.00    +0.000 OA
ATOM     54  C   UNL     1     110.966 128.150 140.707  0.00  0.00    +0.000 A 
ATOM     55  C   UNL     1     111.391 127.455 140.581  0.00  0.00    +0.000 A 
ATOM     56  C   UNL     1     110.332 128.341 140.215  0.00  0.00    +0.000 A 
ATOM     57  C   UNL     1     111.182 126.950 139.963  0.00  0.00    +0.000 A 
ATOM     58  C   UNL     1     110.123 127.837 139.597  0.00  0.00    +0.000 A 
ATOM     59  C   UNL     1     110.548 127.141 139.471  0.00  0.00    +0.000 A 
ENDBRANCH  44  54
ENDBRANCH  38  43
ENDBRANCH   7  38
TORSDOF 13
ENDMDL
