MODEL 1
REMARK VINA RESULT:      -9.5      0.000      0.000
REMARK  Name = 131833077
REMARK  4 active torsions:
REMARK  status: ('A' for Active; 'I' for Inactive)
REMARK    1  A    between atoms: O_12  and  C_33
REMARK    2  A    between atoms: C_13  and  C_18
REMARK    3  A    between atoms: C_17  and  C_23
REMARK    4  A    between atoms: C_24  and  C_28
REMARK                            x       y       z     vdW  Elec       q    Type
REMARK                         _______ _______ _______ _____ _____    ______ ____
ROOT
ATOM      1  O   UNL     1     110.068 128.117 135.406  0.00  0.00    +0.000 OA
ATOM      2  O   UNL     1     111.861 126.923 137.338  0.00  0.00    +0.000 OA
ATOM      3  O   UNL     1     110.495 129.600 137.028  0.00  0.00    +0.000 OA
ATOM      4  O   UNL     1     111.013 125.417 135.063  0.00  0.00    +0.000 OA
ATOM      5  C   UNL     1     111.437 126.170 136.201  0.00  0.00    +0.000 A 
ATOM      6  C   UNL     1     110.976 127.510 136.383  0.00  0.00    +0.000 A 
ATOM      7  C   UNL     1     111.425 126.868 136.640  0.00  0.00    +0.000 A 
ATOM      8  C   UNL     1     110.971 128.232 136.850  0.00  0.00    +0.000 C 
ATOM      9  C   UNL     1     110.506 128.904 136.586  0.00  0.00    +0.000 C 
ATOM     10  C   UNL     1     110.051 128.846 135.860  0.00  0.00    +0.000 C 
ATOM     11  C   UNL     1     110.540 127.454 135.685  0.00  0.00    +0.000 A 
ATOM     12  C   UNL     1     111.001 126.114 135.503  0.00  0.00    +0.000 A 
ATOM     13  C   UNL     1     110.552 126.757 135.245  0.00  0.00    +0.000 A 
ENDROOT
BRANCH   5  18
ATOM     14  O   UNL     1     112.678 125.460 136.235  0.00  0.00    +0.000 OA
ATOM     15  O   UNL     1     110.752 125.018 137.163  0.00  0.00    +0.000 OA
ATOM     16  O   UNL     1     111.649 123.733 137.678  0.00  0.00    +0.000 OA
ATOM     17  O   UNL     1     113.231 123.600 137.232  0.00  0.00    +0.000 OA
ATOM     18  C   UNL     1     111.886 125.528 136.458  0.00  0.00    +0.000 C 
ATOM     19  C   UNL     1     111.543 124.952 136.939  0.00  0.00    +0.000 C 
ATOM     20  C   UNL     1     111.992 124.308 137.197  0.00  0.00    +0.000 C 
ATOM     21  C   UNL     1     112.783 124.243 136.974  0.00  0.00    +0.000 C 
ATOM     22  C   UNL     1     113.126 124.819 136.493  0.00  0.00    +0.000 C 
BRANCH  22  24
ATOM     23  O   UNL     1     114.406 125.416 136.279  0.00  0.00    +0.000 OA
ATOM     24  C   UNL     1     113.917 124.752 136.270  0.00  0.00    +0.000 C 
ENDBRANCH  22  24
ENDBRANCH   5  18
BRANCH  10  27
ATOM     25  O   UNL     1     110.631 129.834 134.673  0.00  0.00    +0.000 OA
ATOM     26  O   UNL     1     107.669 130.418 136.004  0.00  0.00    +0.000 OA
ATOM     27  C   UNL     1     109.601 129.487 135.598  0.00  0.00    +0.000 A 
ATOM     28  C   UNL     1     109.891 129.981 135.005  0.00  0.00    +0.000 A 
ATOM     29  C   UNL     1     108.860 129.632 135.932  0.00  0.00    +0.000 A 
ATOM     30  C   UNL     1     108.410 130.273 135.671  0.00  0.00    +0.000 A 
ATOM     31  C   UNL     1     109.440 130.621 134.745  0.00  0.00    +0.000 A 
ATOM     32  C   UNL     1     108.700 130.767 135.078  0.00  0.00    +0.000 A 
BRANCH  32  33
ATOM     33  O   UNL     1     108.249 131.407 134.817  0.00  0.00    +0.000 OA
ATOM     34  C   UNL     1     108.618 132.121 134.627  0.00  0.00    +0.000 C 
ENDBRANCH  32  33
ENDBRANCH  10  27
TORSDOF 4
ENDMDL
MODEL 2
REMARK VINA RESULT:      -9.4      7.610      8.696
REMARK  Name = 131833077
REMARK  4 active torsions:
REMARK  status: ('A' for Active; 'I' for Inactive)
REMARK    1  A    between atoms: O_12  and  C_33
REMARK    2  A    between atoms: C_13  and  C_18
REMARK    3  A    between atoms: C_17  and  C_23
REMARK    4  A    between atoms: C_24  and  C_28
REMARK                            x       y       z     vdW  Elec       q    Type
REMARK                         _______ _______ _______ _____ _____    ______ ____
ROOT
ATOM      1  O   UNL     1     104.576 124.095 139.691  0.00  0.00    +0.000 OA
ATOM      2  O   UNL     1     105.247 126.595 140.985  0.00  0.00    +0.000 OA
ATOM      3  O   UNL     1     103.443 125.759 138.710  0.00  0.00    +0.000 OA
ATOM      4  O   UNL     1     106.445 124.160 141.883  0.00  0.00    +0.000 OA
ATOM      5  C   UNL     1     105.846 125.378 141.435  0.00  0.00    +0.000 A 
ATOM      6  C   UNL     1     104.918 125.360 140.348  0.00  0.00    +0.000 A 
ATOM      7  C   UNL     1     105.337 125.777 140.922  0.00  0.00    +0.000 A 
ATOM      8  C   UNL     1     104.390 125.787 139.821  0.00  0.00    +0.000 C 
ATOM      9  C   UNL     1     103.951 125.357 139.221  0.00  0.00    +0.000 C 
ATOM     10  C   UNL     1     104.045 124.506 139.155  0.00  0.00    +0.000 C 
ATOM     11  C   UNL     1     105.008 124.542 140.285  0.00  0.00    +0.000 A 
ATOM     12  C   UNL     1     105.936 124.561 141.372  0.00  0.00    +0.000 A 
ATOM     13  C   UNL     1     105.516 124.142 140.797  0.00  0.00    +0.000 A 
ENDROOT
BRANCH   5  18
ATOM     14  O   UNL     1     105.934 125.917 142.755  0.00  0.00    +0.000 OA
ATOM     15  O   UNL     1     107.347 125.972 141.092  0.00  0.00    +0.000 OA
ATOM     16  O   UNL     1     108.185 126.808 142.241  0.00  0.00    +0.000 OA
ATOM     17  O   UNL     1     107.523 127.050 143.732  0.00  0.00    +0.000 OA
ATOM     18  C   UNL     1     106.265 125.796 142.009  0.00  0.00    +0.000 C 
ATOM     19  C   UNL     1     107.015 126.093 141.837  0.00  0.00    +0.000 C 
ATOM     20  C   UNL     1     107.435 126.511 142.412  0.00  0.00    +0.000 C 
ATOM     21  C   UNL     1     107.103 126.632 143.158  0.00  0.00    +0.000 C 
ATOM     22  C   UNL     1     106.353 126.335 143.329  0.00  0.00    +0.000 C 
BRANCH  22  24
ATOM     23  O   UNL     1     105.258 126.190 144.236  0.00  0.00    +0.000 OA
ATOM     24  C   UNL     1     106.022 126.456 144.075  0.00  0.00    +0.000 C 
ENDBRANCH  22  24
ENDBRANCH   5  18
BRANCH  10  27
ATOM     25  O   UNL     1     104.834 123.892 137.843  0.00  0.00    +0.000 OA
ATOM     26  O   UNL     1     101.583 123.435 138.175  0.00  0.00    +0.000 OA
ATOM     27  C   UNL     1     103.627 124.084 138.582  0.00  0.00    +0.000 A 
ATOM     28  C   UNL     1     104.022 123.777 137.925  0.00  0.00    +0.000 A 
ATOM     29  C   UNL     1     102.814 123.970 138.665  0.00  0.00    +0.000 A 
ATOM     30  C   UNL     1     102.396 123.549 138.092  0.00  0.00    +0.000 A 
ATOM     31  C   UNL     1     103.603 123.356 137.352  0.00  0.00    +0.000 A 
ATOM     32  C   UNL     1     102.790 123.242 137.436  0.00  0.00    +0.000 A 
BRANCH  32  33
ATOM     33  O   UNL     1     102.372 122.821 136.863  0.00  0.00    +0.000 OA
ATOM     34  C   UNL     1     102.683 122.739 136.102  0.00  0.00    +0.000 C 
ENDBRANCH  32  33
ENDBRANCH  10  27
TORSDOF 4
ENDMDL
MODEL 3
REMARK VINA RESULT:      -9.4      9.768     11.675
REMARK  Name = 131833077
REMARK  4 active torsions:
REMARK  status: ('A' for Active; 'I' for Inactive)
REMARK    1  A    between atoms: O_12  and  C_33
REMARK    2  A    between atoms: C_13  and  C_18
REMARK    3  A    between atoms: C_17  and  C_23
REMARK    4  A    between atoms: C_24  and  C_28
REMARK                            x       y       z     vdW  Elec       q    Type
REMARK                         _______ _______ _______ _____ _____    ______ ____
ROOT
ATOM      1  O   UNL     1     106.461 126.554 146.312  0.00  0.00    +0.000 OA
ATOM      2  O   UNL     1     105.588 126.353 143.561  0.00  0.00    +0.000 OA
ATOM      3  O   UNL     1     105.984 124.416 145.845  0.00  0.00    +0.000 OA
ATOM      4  O   UNL     1     106.315 128.897 144.641  0.00  0.00    +0.000 OA
ATOM      5  C   UNL     1     105.951 127.625 144.100  0.00  0.00    +0.000 A 
ATOM      6  C   UNL     1     106.019 126.455 144.918  0.00  0.00    +0.000 A 
ATOM      7  C   UNL     1     105.853 126.811 144.193  0.00  0.00    +0.000 A 
ATOM      8  C   UNL     1     105.912 125.606 145.002  0.00  0.00    +0.000 C 
ATOM      9  C   UNL     1     106.084 125.230 145.755  0.00  0.00    +0.000 C 
ATOM     10  C   UNL     1     106.360 125.707 146.414  0.00  0.00    +0.000 C 
ATOM     11  C   UNL     1     106.284 126.913 145.551  0.00  0.00    +0.000 A 
ATOM     12  C   UNL     1     106.216 128.083 144.733  0.00  0.00    +0.000 A 
ATOM     13  C   UNL     1     106.383 127.727 145.459  0.00  0.00    +0.000 A 
ENDROOT
BRANCH   5  18
ATOM     14  O   UNL     1     105.024 128.255 143.214  0.00  0.00    +0.000 OA
ATOM     15  O   UNL     1     107.142 127.789 142.970  0.00  0.00    +0.000 OA
ATOM     16  O   UNL     1     106.810 128.501 141.519  0.00  0.00    +0.000 OA
ATOM     17  O   UNL     1     105.287 129.048 141.199  0.00  0.00    +0.000 OA
ATOM     18  C   UNL     1     105.785 127.981 143.375  0.00  0.00    +0.000 C 
ATOM     19  C   UNL     1     106.380 128.063 142.810  0.00  0.00    +0.000 C 
ATOM     20  C   UNL     1     106.214 128.419 142.084  0.00  0.00    +0.000 C 
ATOM     21  C   UNL     1     105.453 128.693 141.924  0.00  0.00    +0.000 C 
ATOM     22  C   UNL     1     104.857 128.611 142.490  0.00  0.00    +0.000 C 
BRANCH  22  24
ATOM     23  O   UNL     1     103.723 129.400 142.855  0.00  0.00    +0.000 OA
ATOM     24  C   UNL     1     104.096 128.884 142.329  0.00  0.00    +0.000 C 
ENDBRANCH  22  24
ENDBRANCH   5  18
BRANCH  10  27
ATOM     25  O   UNL     1     107.924 125.418 146.852  0.00  0.00    +0.000 OA
ATOM     26  O   UNL     1     105.462 124.586 148.885  0.00  0.00    +0.000 OA
ATOM     27  C   UNL     1     106.527 125.355 147.142  0.00  0.00    +0.000 A 
ATOM     28  C   UNL     1     107.309 125.210 147.361  0.00  0.00    +0.000 A 
ATOM     29  C   UNL     1     105.911 125.147 147.650  0.00  0.00    +0.000 A 
ATOM     30  C   UNL     1     106.078 124.794 148.377  0.00  0.00    +0.000 A 
ATOM     31  C   UNL     1     107.476 124.858 148.088  0.00  0.00    +0.000 A 
ATOM     32  C   UNL     1     106.860 124.650 148.596  0.00  0.00    +0.000 A 
BRANCH  32  33
ATOM     33  O   UNL     1     107.027 124.297 149.323  0.00  0.00    +0.000 OA
ATOM     34  C   UNL     1     107.800 124.292 149.612  0.00  0.00    +0.000 C 
ENDBRANCH  32  33
ENDBRANCH  10  27
TORSDOF 4
ENDMDL
MODEL 4
REMARK VINA RESULT:      -9.3      3.783      6.445
REMARK  Name = 131833077
REMARK  4 active torsions:
REMARK  status: ('A' for Active; 'I' for Inactive)
REMARK    1  A    between atoms: O_12  and  C_33
REMARK    2  A    between atoms: C_13  and  C_18
REMARK    3  A    between atoms: C_17  and  C_23
REMARK    4  A    between atoms: C_24  and  C_28
REMARK                            x       y       z     vdW  Elec       q    Type
REMARK                         _______ _______ _______ _____ _____    ______ ____
ROOT
ATOM      1  O   UNL     1     113.269 126.413 138.943  0.00  0.00    +0.000 OA
ATOM      2  O   UNL     1     112.856 129.270 139.148  0.00  0.00    +0.000 OA
ATOM      3  O   UNL     1     112.201 127.136 137.112  0.00  0.00    +0.000 OA
ATOM      4  O   UNL     1     114.188 127.869 141.253  0.00  0.00    +0.000 OA
ATOM      5  C   UNL     1     113.522 128.570 140.201  0.00  0.00    +0.000 A 
ATOM      6  C   UNL     1     113.061 127.860 139.050  0.00  0.00    +0.000 A 
ATOM      7  C   UNL     1     113.146 128.566 139.466  0.00  0.00    +0.000 A 
ATOM      8  C   UNL     1     112.668 127.869 138.285  0.00  0.00    +0.000 C 
ATOM      9  C   UNL     1     112.577 127.137 137.847  0.00  0.00    +0.000 C 
ATOM     10  C   UNL     1     112.879 126.404 138.177  0.00  0.00    +0.000 C 
ATOM     11  C   UNL     1     113.352 127.156 139.367  0.00  0.00    +0.000 A 
ATOM     12  C   UNL     1     113.812 127.866 140.519  0.00  0.00    +0.000 A 
ATOM     13  C   UNL     1     113.727 127.159 140.102  0.00  0.00    +0.000 A 
ENDROOT
BRANCH   5  18
ATOM     14  O   UNL     1     114.254 129.767 140.472  0.00  0.00    +0.000 OA
ATOM     15  O   UNL     1     112.396 129.004 141.327  0.00  0.00    +0.000 OA
ATOM     16  O   UNL     1     112.566 130.418 142.161  0.00  0.00    +0.000 OA
ATOM     17  O   UNL     1     113.861 131.396 141.869  0.00  0.00    +0.000 OA
ATOM     18  C   UNL     1     113.607 129.276 140.618  0.00  0.00    +0.000 C 
ATOM     19  C   UNL     1     113.044 129.493 141.180  0.00  0.00    +0.000 C 
ATOM     20  C   UNL     1     113.129 130.201 141.598  0.00  0.00    +0.000 C 
ATOM     21  C   UNL     1     113.777 130.690 141.452  0.00  0.00    +0.000 C 
ATOM     22  C   UNL     1     114.340 130.473 140.889  0.00  0.00    +0.000 C 
BRANCH  22  24
ATOM     23  O   UNL     1     115.710 130.635 140.517  0.00  0.00    +0.000 OA
ATOM     24  C   UNL     1     114.987 130.962 140.743  0.00  0.00    +0.000 C 
ENDBRANCH  22  24
ENDBRANCH   5  18
BRANCH  10  27
ATOM     25  O   UNL     1     111.618 125.394 138.513  0.00  0.00    +0.000 OA
ATOM     26  O   UNL     1     113.809 124.579 136.184  0.00  0.00    +0.000 OA
ATOM     27  C   UNL     1     112.796 125.695 137.763  0.00  0.00    +0.000 A 
ATOM     28  C   UNL     1     112.165 125.190 137.931  0.00  0.00    +0.000 A 
ATOM     29  C   UNL     1     113.344 125.491 137.181  0.00  0.00    +0.000 A 
ATOM     30  C   UNL     1     113.261 124.783 136.767  0.00  0.00    +0.000 A 
ATOM     31  C   UNL     1     112.083 124.481 137.517  0.00  0.00    +0.000 A 
ATOM     32  C   UNL     1     112.631 124.278 136.934  0.00  0.00    +0.000 A 
BRANCH  32  33
ATOM     33  O   UNL     1     112.548 123.569 136.520  0.00  0.00    +0.000 OA
ATOM     34  C   UNL     1     111.950 123.038 136.726  0.00  0.00    +0.000 C 
ENDBRANCH  32  33
ENDBRANCH  10  27
TORSDOF 4
ENDMDL
MODEL 5
REMARK VINA RESULT:      -9.2      7.733      9.003
REMARK  Name = 131833077
REMARK  4 active torsions:
REMARK  status: ('A' for Active; 'I' for Inactive)
REMARK    1  A    between atoms: O_12  and  C_33
REMARK    2  A    between atoms: C_13  and  C_18
REMARK    3  A    between atoms: C_17  and  C_23
REMARK    4  A    between atoms: C_24  and  C_28
REMARK                            x       y       z     vdW  Elec       q    Type
REMARK                         _______ _______ _______ _____ _____    ______ ____
ROOT
ATOM      1  O   UNL     1     103.969 129.927 142.230  0.00  0.00    +0.000 OA
ATOM      2  O   UNL     1     104.611 127.310 141.174  0.00  0.00    +0.000 OA
ATOM      3  O   UNL     1     102.654 129.502 140.468  0.00  0.00    +0.000 OA
ATOM      4  O   UNL     1     106.027 128.316 143.443  0.00  0.00    +0.000 OA
ATOM      5  C   UNL     1     105.319 127.813 142.308  0.00  0.00    +0.000 A 
ATOM      6  C   UNL     1     104.296 128.602 141.697  0.00  0.00    +0.000 A 
ATOM      7  C   UNL     1     104.742 127.909 141.726  0.00  0.00    +0.000 A 
ATOM      8  C   UNL     1     103.698 128.689 141.086  0.00  0.00    +0.000 C 
ATOM      9  C   UNL     1     103.231 129.409 141.051  0.00  0.00    +0.000 C 
ATOM     10  C   UNL     1     103.367 130.032 141.626  0.00  0.00    +0.000 C 
ATOM     11  C   UNL     1     104.427 129.200 142.250  0.00  0.00    +0.000 A 
ATOM     12  C   UNL     1     105.450 128.411 142.861  0.00  0.00    +0.000 A 
ATOM     13  C   UNL     1     105.004 129.105 142.832  0.00  0.00    +0.000 A 
ENDROOT
BRANCH   5  18
ATOM     14  O   UNL     1     105.497 126.474 142.775  0.00  0.00    +0.000 OA
ATOM     15  O   UNL     1     106.749 127.717 141.491  0.00  0.00    +0.000 OA
ATOM     16  O   UNL     1     107.642 126.330 141.549  0.00  0.00    +0.000 OA
ATOM     17  O   UNL     1     107.104 125.040 142.424  0.00  0.00    +0.000 OA
ATOM     18  C   UNL     1     105.765 127.120 142.337  0.00  0.00    +0.000 C 
ATOM     19  C   UNL     1     106.480 127.072 141.929  0.00  0.00    +0.000 C 
ATOM     20  C   UNL     1     106.927 126.378 141.958  0.00  0.00    +0.000 C 
ATOM     21  C   UNL     1     106.657 125.733 142.396  0.00  0.00    +0.000 C 
ATOM     22  C   UNL     1     105.942 125.781 142.804  0.00  0.00    +0.000 C 
BRANCH  22  24
ATOM     23  O   UNL     1     105.259 125.257 143.945  0.00  0.00    +0.000 OA
ATOM     24  C   UNL     1     105.674 125.136 143.242  0.00  0.00    +0.000 C 
ENDBRANCH  22  24
ENDBRANCH   5  18
BRANCH  10  27
ATOM     25  O   UNL     1     103.986 131.382 140.907  0.00  0.00    +0.000 OA
ATOM     26  O   UNL     1     100.970 131.460 142.243  0.00  0.00    +0.000 OA
ATOM     27  C   UNL     1     102.923 130.727 141.600  0.00  0.00    +0.000 A 
ATOM     28  C   UNL     1     103.232 131.402 141.241  0.00  0.00    +0.000 A 
ATOM     29  C   UNL     1     102.168 130.747 141.934  0.00  0.00    +0.000 A 
ATOM     30  C   UNL     1     101.724 131.441 141.909  0.00  0.00    +0.000 A 
ATOM     31  C   UNL     1     102.788 132.096 141.215  0.00  0.00    +0.000 A 
ATOM     32  C   UNL     1     102.033 132.116 141.549  0.00  0.00    +0.000 A 
BRANCH  32  33
ATOM     33  O   UNL     1     101.589 132.810 141.523  0.00  0.00    +0.000 OA
ATOM     34  C   UNL     1     101.968 133.542 141.475  0.00  0.00    +0.000 C 
ENDBRANCH  32  33
ENDBRANCH  10  27
TORSDOF 4
ENDMDL
MODEL 6
REMARK VINA RESULT:      -9.1      1.172      5.898
REMARK  Name = 131833077
REMARK  4 active torsions:
REMARK  status: ('A' for Active; 'I' for Inactive)
REMARK    1  A    between atoms: O_12  and  C_33
REMARK    2  A    between atoms: C_13  and  C_18
REMARK    3  A    between atoms: C_17  and  C_23
REMARK    4  A    between atoms: C_24  and  C_28
REMARK                            x       y       z     vdW  Elec       q    Type
REMARK                         _______ _______ _______ _____ _____    ______ ____
ROOT
ATOM      1  O   UNL     1     111.682 127.665 135.928  0.00  0.00    +0.000 OA
ATOM      2  O   UNL     1     109.822 129.322 137.401  0.00  0.00    +0.000 OA
ATOM      3  O   UNL     1     111.633 126.996 138.065  0.00  0.00    +0.000 OA
ATOM      4  O   UNL     1     110.240 129.784 134.612  0.00  0.00    +0.000 OA
ATOM      5  C   UNL     1     110.031 129.554 136.007  0.00  0.00    +0.000 A 
ATOM      6  C   UNL     1     110.739 128.506 136.672  0.00  0.00    +0.000 A 
ATOM      7  C   UNL     1     110.198 129.127 136.693  0.00  0.00    +0.000 A 
ATOM      8  C   UNL     1     110.905 128.069 137.393  0.00  0.00    +0.000 C 
ATOM      9  C   UNL     1     111.468 127.421 137.377  0.00  0.00    +0.000 C 
ATOM     10  C   UNL     1     111.859 127.218 136.640  0.00  0.00    +0.000 C 
ATOM     11  C   UNL     1     111.115 128.311 135.963  0.00  0.00    +0.000 A 
ATOM     12  C   UNL     1     110.406 129.358 135.299  0.00  0.00    +0.000 A 
ATOM     13  C   UNL     1     110.949 128.736 135.277  0.00  0.00    +0.000 A 
ENDROOT
BRANCH   5  18
ATOM     14  O   UNL     1     109.745 130.941 136.196  0.00  0.00    +0.000 OA
ATOM     15  O   UNL     1     108.433 129.265 135.715  0.00  0.00    +0.000 OA
ATOM     16  O   UNL     1     107.348 130.508 135.758  0.00  0.00    +0.000 OA
ATOM     17  O   UNL     1     107.862 132.038 136.093  0.00  0.00    +0.000 OA
ATOM     18  C   UNL     1     109.489 130.175 136.028  0.00  0.00    +0.000 C 
ATOM     19  C   UNL     1     108.690 130.030 135.882  0.00  0.00    +0.000 C 
ATOM     20  C   UNL     1     108.147 130.652 135.904  0.00  0.00    +0.000 C 
ATOM     21  C   UNL     1     108.405 131.418 136.071  0.00  0.00    +0.000 C 
ATOM     22  C   UNL     1     109.204 131.562 136.218  0.00  0.00    +0.000 C 
BRANCH  22  24
ATOM     23  O   UNL     1     110.227 132.455 136.661  0.00  0.00    +0.000 OA
ATOM     24  C   UNL     1     109.460 132.327 136.385  0.00  0.00    +0.000 C 
ENDBRANCH  22  24
ENDBRANCH   5  18
BRANCH  10  27
ATOM     25  O   UNL     1     113.474 127.525 136.782  0.00  0.00    +0.000 OA
ATOM     26  O   UNL     1     112.413 124.425 136.395  0.00  0.00    +0.000 OA
ATOM     27  C   UNL     1     112.402 126.596 136.614  0.00  0.00    +0.000 A 
ATOM     28  C   UNL     1     113.210 126.750 136.685  0.00  0.00    +0.000 A 
ATOM     29  C   UNL     1     112.137 125.821 136.517  0.00  0.00    +0.000 A 
ATOM     30  C   UNL     1     112.679 125.200 136.492  0.00  0.00    +0.000 A 
ATOM     31  C   UNL     1     113.751 126.129 136.660  0.00  0.00    +0.000 A 
ATOM     32  C   UNL     1     113.486 125.353 136.563  0.00  0.00    +0.000 A 
BRANCH  32  33
ATOM     33  O   UNL     1     114.028 124.732 136.538  0.00  0.00    +0.000 OA
ATOM     34  C   UNL     1     114.706 124.756 137.009  0.00  0.00    +0.000 C 
ENDBRANCH  32  33
ENDBRANCH  10  27
TORSDOF 4
ENDMDL
MODEL 7
REMARK VINA RESULT:      -9.1      3.697      4.991
REMARK  Name = 131833077
REMARK  4 active torsions:
REMARK  status: ('A' for Active; 'I' for Inactive)
REMARK    1  A    between atoms: O_12  and  C_33
REMARK    2  A    between atoms: C_13  and  C_18
REMARK    3  A    between atoms: C_17  and  C_23
REMARK    4  A    between atoms: C_24  and  C_28
REMARK                            x       y       z     vdW  Elec       q    Type
REMARK                         _______ _______ _______ _____ _____    ______ ____
ROOT
ATOM      1  O   UNL     1     112.976 128.671 139.539  0.00  0.00    +0.000 OA
ATOM      2  O   UNL     1     113.856 125.948 139.113  0.00  0.00    +0.000 OA
ATOM      3  O   UNL     1     114.210 128.014 141.289  0.00  0.00    +0.000 OA
ATOM      4  O   UNL     1     112.240 127.246 137.146  0.00  0.00    +0.000 OA
ATOM      5  C   UNL     1     113.048 126.596 138.129  0.00  0.00    +0.000 A 
ATOM      6  C   UNL     1     113.420 127.292 139.321  0.00  0.00    +0.000 A 
ATOM      7  C   UNL     1     113.441 126.612 138.855  0.00  0.00    +0.000 A 
ATOM      8  C   UNL     1     113.834 127.296 140.074  0.00  0.00    +0.000 C 
ATOM      9  C   UNL     1     113.816 128.001 140.564  0.00  0.00    +0.000 C 
ATOM     10  C   UNL     1     113.384 128.693 140.295  0.00  0.00    +0.000 C 
ATOM     11  C   UNL     1     113.006 127.956 139.062  0.00  0.00    +0.000 A 
ATOM     12  C   UNL     1     112.633 127.261 137.871  0.00  0.00    +0.000 A 
ATOM     13  C   UNL     1     112.612 127.941 138.338  0.00  0.00    +0.000 A 
ENDROOT
BRANCH   5  18
ATOM     14  O   UNL     1     113.696 125.792 137.142  0.00  0.00    +0.000 OA
ATOM     15  O   UNL     1     111.835 125.483 138.239  0.00  0.00    +0.000 OA
ATOM     16  O   UNL     1     111.877 124.122 137.306  0.00  0.00    +0.000 OA
ATOM     17  O   UNL     1     113.131 123.876 136.264  0.00  0.00    +0.000 OA
ATOM     18  C   UNL     1     113.069 125.916 137.663  0.00  0.00    +0.000 C 
ATOM     19  C   UNL     1     112.463 125.360 137.718  0.00  0.00    +0.000 C 
ATOM     20  C   UNL     1     112.484 124.679 137.251  0.00  0.00    +0.000 C 
ATOM     21  C   UNL     1     113.111 124.556 136.731  0.00  0.00    +0.000 C 
ATOM     22  C   UNL     1     113.718 125.113 136.676  0.00  0.00    +0.000 C 
BRANCH  22  24
ATOM     23  O   UNL     1     114.960 125.536 136.112  0.00  0.00    +0.000 OA
ATOM     24  C   UNL     1     114.344 124.989 136.155  0.00  0.00    +0.000 C 
ENDBRANCH  22  24
ENDBRANCH   5  18
BRANCH  10  27
ATOM     25  O   UNL     1     112.120 128.949 141.325  0.00  0.00    +0.000 OA
ATOM     26  O   UNL     1     114.556 131.166 141.119  0.00  0.00    +0.000 OA
ATOM     27  C   UNL     1     113.360 129.375 140.759  0.00  0.00    +0.000 A 
ATOM     28  C   UNL     1     112.729 129.503 141.274  0.00  0.00    +0.000 A 
ATOM     29  C   UNL     1     113.970 129.930 140.707  0.00  0.00    +0.000 A 
ATOM     30  C   UNL     1     113.947 130.612 141.171  0.00  0.00    +0.000 A 
ATOM     31  C   UNL     1     112.706 130.186 141.737  0.00  0.00    +0.000 A 
ATOM     32  C   UNL     1     113.315 130.740 141.686  0.00  0.00    +0.000 A 
BRANCH  32  33
ATOM     33  O   UNL     1     113.293 131.422 142.149  0.00  0.00    +0.000 OA
ATOM     34  C   UNL     1     112.710 131.509 142.728  0.00  0.00    +0.000 C 
ENDBRANCH  32  33
ENDBRANCH  10  27
TORSDOF 4
ENDMDL
MODEL 8
REMARK VINA RESULT:      -9.0      8.250      9.629
REMARK  Name = 131833077
REMARK  4 active torsions:
REMARK  status: ('A' for Active; 'I' for Inactive)
REMARK    1  A    between atoms: O_12  and  C_33
REMARK    2  A    between atoms: C_13  and  C_18
REMARK    3  A    between atoms: C_17  and  C_23
REMARK    4  A    between atoms: C_24  and  C_28
REMARK                            x       y       z     vdW  Elec       q    Type
REMARK                         _______ _______ _______ _____ _____    ______ ____
ROOT
ATOM      1  O   UNL     1     111.678 131.575 145.072  0.00  0.00    +0.000 OA
ATOM      2  O   UNL     1     112.521 132.058 142.346  0.00  0.00    +0.000 OA
ATOM      3  O   UNL     1     112.252 133.728 144.849  0.00  0.00    +0.000 OA
ATOM      4  O   UNL     1     111.685 129.441 143.135  0.00  0.00    +0.000 OA
ATOM      5  C   UNL     1     112.103 130.750 142.740  0.00  0.00    +0.000 A 
ATOM      6  C   UNL     1     112.104 131.816 143.691  0.00  0.00    +0.000 A 
ATOM      7  C   UNL     1     112.242 131.541 142.926  0.00  0.00    +0.000 A 
ATOM      8  C   UNL     1     112.254 132.643 143.872  0.00  0.00    +0.000 C 
ATOM      9  C   UNL     1     112.111 132.936 144.667  0.00  0.00    +0.000 C 
ATOM     10  C   UNL     1     111.822 132.398 145.271  0.00  0.00    +0.000 C 
ATOM     11  C   UNL     1     111.826 131.300 144.271  0.00  0.00    +0.000 A 
ATOM     12  C   UNL     1     111.825 130.233 143.320  0.00  0.00    +0.000 A 
ATOM     13  C   UNL     1     111.686 130.508 144.086  0.00  0.00    +0.000 A 
ENDROOT
BRANCH   5  18
ATOM     14  O   UNL     1     112.984 130.179 141.770  0.00  0.00    +0.000 OA
ATOM     15  O   UNL     1     110.894 130.791 141.617  0.00  0.00    +0.000 OA
ATOM     16  O   UNL     1     111.171 130.240 140.087  0.00  0.00    +0.000 OA
ATOM     17  O   UNL     1     112.655 129.649 139.679  0.00  0.00    +0.000 OA
ATOM     18  C   UNL     1     112.241 130.475 141.975  0.00  0.00    +0.000 C 
ATOM     19  C   UNL     1     111.637 130.495 141.414  0.00  0.00    +0.000 C 
ATOM     20  C   UNL     1     111.775 130.220 140.648  0.00  0.00    +0.000 C 
ATOM     21  C   UNL     1     112.518 129.924 140.444  0.00  0.00    +0.000 C 
ATOM     22  C   UNL     1     113.122 129.904 141.005  0.00  0.00    +0.000 C 
BRANCH  22  24
ATOM     23  O   UNL     1     114.546 130.023 141.010  0.00  0.00    +0.000 OA
ATOM     24  C   UNL     1     113.864 129.608 140.801  0.00  0.00    +0.000 C 
ENDBRANCH  22  24
ENDBRANCH   5  18
BRANCH  10  27
ATOM     25  O   UNL     1     112.961 132.181 146.444  0.00  0.00    +0.000 OA
ATOM     26  O   UNL     1     110.122 133.702 147.162  0.00  0.00    +0.000 OA
ATOM     27  C   UNL     1     111.682 132.670 146.037  0.00  0.00    +0.000 A 
ATOM     28  C   UNL     1     112.252 132.561 146.624  0.00  0.00    +0.000 A 
ATOM     29  C   UNL     1     110.972 133.050 146.217  0.00  0.00    +0.000 A 
ATOM     30  C   UNL     1     110.832 133.322 146.983  0.00  0.00    +0.000 A 
ATOM     31  C   UNL     1     112.111 132.833 147.390  0.00  0.00    +0.000 A 
ATOM     32  C   UNL     1     111.401 133.213 147.570  0.00  0.00    +0.000 A 
BRANCH  32  33
ATOM     33  O   UNL     1     111.261 133.485 148.336  0.00  0.00    +0.000 OA
ATOM     34  C   UNL     1     111.785 133.293 148.945  0.00  0.00    +0.000 C 
ENDBRANCH  32  33
ENDBRANCH  10  27
TORSDOF 4
ENDMDL
MODEL 9
REMARK VINA RESULT:      -9.0      0.721      1.271
REMARK  Name = 131833077
REMARK  4 active torsions:
REMARK  status: ('A' for Active; 'I' for Inactive)
REMARK    1  A    between atoms: O_12  and  C_33
REMARK    2  A    between atoms: C_13  and  C_18
REMARK    3  A    between atoms: C_17  and  C_23
REMARK    4  A    between atoms: C_24  and  C_28
REMARK                            x       y       z     vdW  Elec       q    Type
REMARK                         _______ _______ _______ _____ _____    ______ ____
ROOT
ATOM      1  O   UNL     1     110.585 128.537 136.759  0.00  0.00    +0.000 OA
ATOM      2  O   UNL     1     111.547 126.141 135.451  0.00  0.00    +0.000 OA
ATOM      3  O   UNL     1     109.948 128.563 134.612  0.00  0.00    +0.000 OA
ATOM      4  O   UNL     1     112.107 126.575 138.220  0.00  0.00    +0.000 OA
ATOM      5  C   UNL     1     111.827 126.357 136.836  0.00  0.00    +0.000 A 
ATOM      6  C   UNL     1     111.074 127.323 136.099  0.00  0.00    +0.000 A 
ATOM      7  C   UNL     1     111.482 126.607 136.129  0.00  0.00    +0.000 A 
ATOM      8  C   UNL     1     110.719 127.572 135.357  0.00  0.00    +0.000 C 
ATOM      9  C   UNL     1     110.292 128.316 135.320  0.00  0.00    +0.000 C 
ATOM     10  C   UNL     1     110.225 128.802 136.026  0.00  0.00    +0.000 C 
ATOM     11  C   UNL     1     111.009 127.789 136.777  0.00  0.00    +0.000 A 
ATOM     12  C   UNL     1     111.763 126.824 137.513  0.00  0.00    +0.000 A 
ATOM     13  C   UNL     1     111.353 127.540 137.484  0.00  0.00    +0.000 A 
ENDROOT
BRANCH   5  18
ATOM     14  O   UNL     1     113.050 125.625 136.729  0.00  0.00    +0.000 OA
ATOM     15  O   UNL     1     111.018 124.958 137.167  0.00  0.00    +0.000 OA
ATOM     16  O   UNL     1     111.836 123.526 137.227  0.00  0.00    +0.000 OA
ATOM     17  O   UNL     1     113.462 123.494 136.954  0.00  0.00    +0.000 OA
ATOM     18  C   UNL     1     112.236 125.642 136.865  0.00  0.00    +0.000 C 
ATOM     19  C   UNL     1     111.831 124.943 137.031  0.00  0.00    +0.000 C 
ATOM     20  C   UNL     1     112.240 124.226 137.061  0.00  0.00    +0.000 C 
ATOM     21  C   UNL     1     113.054 124.210 136.925  0.00  0.00    +0.000 C 
ATOM     22  C   UNL     1     113.458 124.910 136.759  0.00  0.00    +0.000 C 
BRANCH  22  24
ATOM     23  O   UNL     1     114.625 125.480 136.163  0.00  0.00    +0.000 OA
ATOM     24  C   UNL     1     114.271 124.893 136.623  0.00  0.00    +0.000 C 
ENDBRANCH  22  24
ENDBRANCH   5  18
BRANCH  10  27
ATOM     25  O   UNL     1     111.053 130.220 135.867  0.00  0.00    +0.000 OA
ATOM     26  O   UNL     1     107.760 130.249 136.081  0.00  0.00    +0.000 OA
ATOM     27  C   UNL     1     109.816 129.519 136.000  0.00  0.00    +0.000 A 
ATOM     28  C   UNL     1     110.230 130.228 135.920  0.00  0.00    +0.000 A 
ATOM     29  C   UNL     1     108.993 129.526 136.053  0.00  0.00    +0.000 A 
ATOM     30  C   UNL     1     108.584 130.242 136.028  0.00  0.00    +0.000 A 
ATOM     31  C   UNL     1     109.821 130.944 135.895  0.00  0.00    +0.000 A 
ATOM     32  C   UNL     1     108.998 130.951 135.948  0.00  0.00    +0.000 A 
BRANCH  32  33
ATOM     33  O   UNL     1     108.589 131.667 135.923  0.00  0.00    +0.000 OA
ATOM     34  C   UNL     1     108.900 132.305 135.501  0.00  0.00    +0.000 C 
ENDBRANCH  32  33
ENDBRANCH  10  27
TORSDOF 4
ENDMDL
MODEL 10
REMARK VINA RESULT:      -8.8      1.987      6.032
REMARK  Name = 131833077
REMARK  4 active torsions:
REMARK  status: ('A' for Active; 'I' for Inactive)
REMARK    1  A    between atoms: O_12  and  C_33
REMARK    2  A    between atoms: C_13  and  C_18
REMARK    3  A    between atoms: C_17  and  C_23
REMARK    4  A    between atoms: C_24  and  C_28
REMARK                            x       y       z     vdW  Elec       q    Type
REMARK                         _______ _______ _______ _____ _____    ______ ____
ROOT
ATOM      1  O   UNL     1     110.488 127.532 137.404  0.00  0.00    +0.000 OA
ATOM      2  O   UNL     1     111.663 130.173 137.526  0.00  0.00    +0.000 OA
ATOM      3  O   UNL     1     112.644 127.406 136.815  0.00  0.00    +0.000 OA
ATOM      4  O   UNL     1     108.908 129.809 138.192  0.00  0.00    +0.000 OA
ATOM      5  C   UNL     1     110.285 129.992 137.859  0.00  0.00    +0.000 A 
ATOM      6  C   UNL     1     111.080 128.871 137.467  0.00  0.00    +0.000 A 
ATOM      7  C   UNL     1     111.009 129.678 137.617  0.00  0.00    +0.000 A 
ATOM      8  C   UNL     1     111.840 128.556 137.215  0.00  0.00    +0.000 C 
ATOM      9  C   UNL     1     111.919 127.716 137.057  0.00  0.00    +0.000 C 
ATOM     10  C   UNL     1     111.239 127.200 137.152  0.00  0.00    +0.000 C 
ATOM     11  C   UNL     1     110.426 128.375 137.558  0.00  0.00    +0.000 A 
ATOM     12  C   UNL     1     109.632 129.496 137.950  0.00  0.00    +0.000 A 
ATOM     13  C   UNL     1     109.702 128.688 137.799  0.00  0.00    +0.000 A 
ENDROOT
BRANCH   5  18
ATOM     14  O   UNL     1     110.067 131.324 137.390  0.00  0.00    +0.000 OA
ATOM     15  O   UNL     1     110.440 130.560 139.400  0.00  0.00    +0.000 OA
ATOM     16  O   UNL     1     110.299 132.176 139.702  0.00  0.00    +0.000 OA
ATOM     17  O   UNL     1     110.003 133.223 138.462  0.00  0.00    +0.000 OA
ATOM     18  C   UNL     1     110.215 130.799 138.009  0.00  0.00    +0.000 C 
ATOM     19  C   UNL     1     110.292 131.083 138.780  0.00  0.00    +0.000 C 
ATOM     20  C   UNL     1     110.221 131.892 138.931  0.00  0.00    +0.000 C 
ATOM     21  C   UNL     1     110.073 132.415 138.311  0.00  0.00    +0.000 C 
ATOM     22  C   UNL     1     109.996 132.131 137.540  0.00  0.00    +0.000 C 
BRANCH  22  24
ATOM     23  O   UNL     1     109.466 132.391 136.239  0.00  0.00    +0.000 OA
ATOM     24  C   UNL     1     109.848 132.655 136.921  0.00  0.00    +0.000 C 
ENDBRANCH  22  24
ENDBRANCH   5  18
BRANCH  10  27
ATOM     25  O   UNL     1     111.620 126.162 138.376  0.00  0.00    +0.000 OA
ATOM     26  O   UNL     1     111.124 125.004 135.326  0.00  0.00    +0.000 OA
ATOM     27  C   UNL     1     111.306 126.391 137.002  0.00  0.00    +0.000 A 
ATOM     28  C   UNL     1     111.496 125.872 137.614  0.00  0.00    +0.000 A 
ATOM     29  C   UNL     1     111.182 126.102 136.239  0.00  0.00    +0.000 A 
ATOM     30  C   UNL     1     111.248 125.294 136.089  0.00  0.00    +0.000 A 
ATOM     31  C   UNL     1     111.563 125.064 137.464  0.00  0.00    +0.000 A 
ATOM     32  C   UNL     1     111.439 124.774 136.701  0.00  0.00    +0.000 A 
BRANCH  32  33
ATOM     33  O   UNL     1     111.506 123.966 136.550  0.00  0.00    +0.000 OA
ATOM     34  C   UNL     1     111.948 123.487 137.058  0.00  0.00    +0.000 C 
ENDBRANCH  32  33
ENDBRANCH  10  27
TORSDOF 4
ENDMDL
