MODEL 1
REMARK VINA RESULT:     -10.1      0.000      0.000
REMARK  Name = 44259990
REMARK  8 active torsions:
REMARK  status: ('A' for Active; 'I' for Inactive)
REMARK    1  A    between atoms: O_2  and  C_23
REMARK    2  A    between atoms: O_2  and  C_27
REMARK    3  A    between atoms: O_6  and  C_26
REMARK    4  A    between atoms: O_6  and  C_30
REMARK    5  A    between atoms: O_13  and  C_37
REMARK    6  A    between atoms: O_16  and  C_42
REMARK    7  A    between atoms: C_18  and  C_27
REMARK    8  A    between atoms: C_31  and  C_35
REMARK                            x       y       z     vdW  Elec       q    Type
REMARK                         _______ _______ _______ _____ _____    ______ ____
ROOT
ATOM      1  O   UNL     1     113.016 128.459 138.158  0.00  0.00    +0.000 OA
ATOM      2  O   UNL     1     113.490 126.999 136.217  0.00  0.00    +0.000 OA
ATOM      3  O   UNL     1     114.010 128.116 135.467  0.00  0.00    +0.000 OA
ATOM      4  O   UNL     1     114.050 130.761 136.705  0.00  0.00    +0.000 OA
ATOM      5  C   UNL     1     112.998 127.167 137.548  0.00  0.00    +0.000 A 
ATOM      6  C   UNL     1     112.840 127.654 138.195  0.00  0.00    +0.000 A 
ATOM      7  C   UNL     1     113.332 127.486 136.864  0.00  0.00    +0.000 A 
ATOM      8  C   UNL     1     113.508 128.290 136.827  0.00  0.00    +0.000 A 
ATOM      9  C   UNL     1     113.350 128.777 137.474  0.00  0.00    +0.000 A 
ATOM     10  C   UNL     1     113.855 128.610 136.109  0.00  0.00    +0.000 A 
ATOM     11  C   UNL     1     113.528 129.618 137.448  0.00  0.00    +0.000 A 
ATOM     12  C   UNL     1     114.041 129.448 136.065  0.00  0.00    +0.000 A 
ATOM     13  C   UNL     1     113.876 129.955 136.739  0.00  0.00    +0.000 A 
ENDROOT
BRANCH   6  15
ATOM     14  O   UNL     1     111.507 126.381 140.933  0.00  0.00    +0.000 OA
ATOM     15  C   UNL     1     112.506 127.336 138.879  0.00  0.00    +0.000 A 
ATOM     16  C   UNL     1     111.706 127.454 139.042  0.00  0.00    +0.000 A 
ATOM     17  C   UNL     1     112.974 126.899 139.401  0.00  0.00    +0.000 A 
ATOM     18  C   UNL     1     111.373 127.136 139.727  0.00  0.00    +0.000 A 
ATOM     19  C   UNL     1     112.640 126.582 140.086  0.00  0.00    +0.000 A 
ATOM     20  C   UNL     1     111.840 126.700 140.248  0.00  0.00    +0.000 A 
BRANCH  18  21
ATOM     21  O   UNL     1     110.573 127.254 139.889  0.00  0.00    +0.000 OA
ATOM     22  C   UNL     1     110.210 127.966 139.682  0.00  0.00    +0.000 C 
ENDBRANCH  18  21
ENDBRANCH   6  15
BRANCH  11  23
ATOM     23  O   UNL     1     113.367 130.097 138.100  0.00  0.00    +0.000 OA
ATOM     24  C   UNL     1     113.923 130.653 138.351  0.00  0.00    +0.000 C 
ENDBRANCH  11  23
BRANCH   5  25
ATOM     25  O   UNL     1     112.822 126.362 137.585  0.00  0.00    +0.000 OA
BRANCH  25  34
ATOM     26  O   UNL     1     111.721 126.501 136.686  0.00  0.00    +0.000 OA
ATOM     27  O   UNL     1     110.712 125.033 135.424  0.00  0.00    +0.000 OA
ATOM     28  O   UNL     1     111.861 124.091 136.142  0.00  0.00    +0.000 OA
ATOM     29  O   UNL     1     112.916 124.755 137.223  0.00  0.00    +0.000 OA
ATOM     30  C   UNL     1     111.193 126.168 136.145  0.00  0.00    +0.000 C 
ATOM     31  C   UNL     1     111.240 125.365 135.964  0.00  0.00    +0.000 C 
ATOM     32  C   UNL     1     111.814 124.894 136.323  0.00  0.00    +0.000 C 
ATOM     33  C   UNL     1     112.342 125.226 136.863  0.00  0.00    +0.000 C 
ATOM     34  C   UNL     1     112.295 126.030 137.045  0.00  0.00    +0.000 C 
BRANCH  30  35
ATOM     35  C   UNL     1     110.619 126.640 135.787  0.00  0.00    +0.000 C 
BRANCH  35  36
ATOM     36  O   UNL     1     110.119 127.105 136.250  0.00  0.00    +0.000 OA
BRANCH  36  42
ATOM     37  O   UNL     1     110.294 128.322 135.523  0.00  0.00    +0.000 OA
ATOM     38  O   UNL     1     108.530 127.479 136.493  0.00  0.00    +0.000 OA
ATOM     39  O   UNL     1     107.912 128.883 135.888  0.00  0.00    +0.000 OA
ATOM     40  O   UNL     1     108.881 129.914 135.039  0.00  0.00    +0.000 OA
ATOM     41  C   UNL     1     109.015 127.994 136.069  0.00  0.00    +0.000 C 
ATOM     42  C   UNL     1     109.809 127.807 135.948  0.00  0.00    +0.000 C 
ATOM     43  C   UNL     1     108.706 128.696 135.766  0.00  0.00    +0.000 C 
ATOM     44  C   UNL     1     109.190 129.211 135.342  0.00  0.00    +0.000 C 
ATOM     45  C   UNL     1     109.984 129.024 135.220  0.00  0.00    +0.000 C 
ATOM     46  C   UNL     1     110.470 129.540 134.796  0.00  0.00    +0.000 C 
ENDBRANCH  36  42
ENDBRANCH  35  36
ENDBRANCH  30  35
ENDBRANCH  25  34
ENDBRANCH   5  25
TORSDOF 8
ENDMDL
MODEL 2
REMARK VINA RESULT:      -9.7      0.930      2.785
REMARK  Name = 44259990
REMARK  8 active torsions:
REMARK  status: ('A' for Active; 'I' for Inactive)
REMARK    1  A    between atoms: O_2  and  C_23
REMARK    2  A    between atoms: O_2  and  C_27
REMARK    3  A    between atoms: O_6  and  C_26
REMARK    4  A    between atoms: O_6  and  C_30
REMARK    5  A    between atoms: O_13  and  C_37
REMARK    6  A    between atoms: O_16  and  C_42
REMARK    7  A    between atoms: C_18  and  C_27
REMARK    8  A    between atoms: C_31  and  C_35
REMARK                            x       y       z     vdW  Elec       q    Type
REMARK                         _______ _______ _______ _____ _____    ______ ____
ROOT
ATOM      1  O   UNL     1     113.479 127.607 136.558  0.00  0.00    +0.000 OA
ATOM      2  O   UNL     1     112.926 128.435 138.824  0.00  0.00    +0.000 OA
ATOM      3  O   UNL     1     113.178 129.797 138.420  0.00  0.00    +0.000 OA
ATOM      4  O   UNL     1     114.006 130.330 135.670  0.00  0.00    +0.000 OA
ATOM      5  C   UNL     1     113.074 127.351 137.905  0.00  0.00    +0.000 A 
ATOM      6  C   UNL     1     113.258 127.075 137.150  0.00  0.00    +0.000 A 
ATOM      7  C   UNL     1     113.110 128.159 138.069  0.00  0.00    +0.000 A 
ATOM      8  C   UNL     1     113.331 128.691 137.479  0.00  0.00    +0.000 A 
ATOM      9  C   UNL     1     113.515 128.415 136.723  0.00  0.00    +0.000 A 
ATOM     10  C   UNL     1     113.364 129.530 137.662  0.00  0.00    +0.000 A 
ATOM     11  C   UNL     1     113.746 128.959 136.099  0.00  0.00    +0.000 A 
ATOM     12  C   UNL     1     113.593 130.088 137.051  0.00  0.00    +0.000 A 
ATOM     13  C   UNL     1     113.785 129.800 136.263  0.00  0.00    +0.000 A 
ENDROOT
BRANCH   6  15
ATOM     14  O   UNL     1     113.117 123.844 136.492  0.00  0.00    +0.000 OA
ATOM     15  C   UNL     1     113.223 126.268 136.985  0.00  0.00    +0.000 A 
ATOM     16  C   UNL     1     112.560 125.952 136.609  0.00  0.00    +0.000 A 
ATOM     17  C   UNL     1     113.851 125.776 137.197  0.00  0.00    +0.000 A 
ATOM     18  C   UNL     1     112.525 125.144 136.445  0.00  0.00    +0.000 A 
ATOM     19  C   UNL     1     113.815 124.968 137.032  0.00  0.00    +0.000 A 
ATOM     20  C   UNL     1     113.152 124.652 136.656  0.00  0.00    +0.000 A 
BRANCH  18  21
ATOM     21  O   UNL     1     111.862 124.828 136.069  0.00  0.00    +0.000 OA
ATOM     22  C   UNL     1     111.451 125.277 135.511  0.00  0.00    +0.000 C 
ENDBRANCH  18  21
ENDBRANCH   6  15
BRANCH  11  23
ATOM     23  O   UNL     1     113.928 128.673 135.347  0.00  0.00    +0.000 OA
ATOM     24  C   UNL     1     114.591 128.960 134.947  0.00  0.00    +0.000 C 
ENDBRANCH  11  23
BRANCH   5  25
ATOM     25  O   UNL     1     112.854 126.820 138.496  0.00  0.00    +0.000 OA
BRANCH  25  34
ATOM     26  O   UNL     1     111.494 127.259 138.464  0.00  0.00    +0.000 OA
ATOM     27  O   UNL     1     109.906 127.101 139.952  0.00  0.00    +0.000 OA
ATOM     28  O   UNL     1     111.151 126.363 140.745  0.00  0.00    +0.000 OA
ATOM     29  O   UNL     1     112.625 126.222 140.017  0.00  0.00    +0.000 OA
ATOM     30  C   UNL     1     110.757 127.329 138.828  0.00  0.00    +0.000 C 
ATOM     31  C   UNL     1     110.643 127.030 139.588  0.00  0.00    +0.000 C 
ATOM     32  C   UNL     1     111.265 126.661 139.985  0.00  0.00    +0.000 C 
ATOM     33  C   UNL     1     112.002 126.591 139.621  0.00  0.00    +0.000 C 
ATOM     34  C   UNL     1     112.117 126.890 138.860  0.00  0.00    +0.000 C 
BRANCH  30  35
ATOM     35  C   UNL     1     110.135 127.698 138.431  0.00  0.00    +0.000 C 
BRANCH  35  36
ATOM     36  O   UNL     1     109.938 127.463 137.666  0.00  0.00    +0.000 OA
BRANCH  36  42
ATOM     37  O   UNL     1     109.852 128.783 137.125  0.00  0.00    +0.000 OA
ATOM     38  O   UNL     1     108.721 126.973 136.664  0.00  0.00    +0.000 OA
ATOM     39  O   UNL     1     108.026 128.049 135.623  0.00  0.00    +0.000 OA
ATOM     40  O   UNL     1     108.549 129.613 135.583  0.00  0.00    +0.000 OA
ATOM     41  C   UNL     1     108.982 127.755 136.644  0.00  0.00    +0.000 C 
ATOM     42  C   UNL     1     109.590 128.000 137.145  0.00  0.00    +0.000 C 
ATOM     43  C   UNL     1     108.635 128.293 136.124  0.00  0.00    +0.000 C 
ATOM     44  C   UNL     1     108.896 129.075 136.104  0.00  0.00    +0.000 C 
ATOM     45  C   UNL     1     109.504 129.320 136.604  0.00  0.00    +0.000 C 
ATOM     46  C   UNL     1     109.766 130.103 136.584  0.00  0.00    +0.000 C 
ENDBRANCH  36  42
ENDBRANCH  35  36
ENDBRANCH  30  35
ENDBRANCH  25  34
ENDBRANCH   5  25
TORSDOF 8
ENDMDL
MODEL 3
REMARK VINA RESULT:      -9.6      1.107      3.718
REMARK  Name = 44259990
REMARK  8 active torsions:
REMARK  status: ('A' for Active; 'I' for Inactive)
REMARK    1  A    between atoms: O_2  and  C_23
REMARK    2  A    between atoms: O_2  and  C_27
REMARK    3  A    between atoms: O_6  and  C_26
REMARK    4  A    between atoms: O_6  and  C_30
REMARK    5  A    between atoms: O_13  and  C_37
REMARK    6  A    between atoms: O_16  and  C_42
REMARK    7  A    between atoms: C_18  and  C_27
REMARK    8  A    between atoms: C_31  and  C_35
REMARK                            x       y       z     vdW  Elec       q    Type
REMARK                         _______ _______ _______ _____ _____    ______ ____
ROOT
ATOM      1  O   UNL     1     111.876 129.464 136.159  0.00  0.00    +0.000 OA
ATOM      2  O   UNL     1     112.865 127.282 135.540  0.00  0.00    +0.000 OA
ATOM      3  O   UNL     1     114.199 127.813 135.685  0.00  0.00    +0.000 OA
ATOM      4  O   UNL     1     114.537 130.605 136.471  0.00  0.00    +0.000 OA
ATOM      5  C   UNL     1     111.715 128.097 135.774  0.00  0.00    +0.000 A 
ATOM      6  C   UNL     1     111.385 128.824 135.980  0.00  0.00    +0.000 A 
ATOM      7  C   UNL     1     112.535 128.009 135.747  0.00  0.00    +0.000 A 
ATOM      8  C   UNL     1     113.025 128.648 135.925  0.00  0.00    +0.000 A 
ATOM      9  C   UNL     1     112.695 129.376 136.131  0.00  0.00    +0.000 A 
ATOM     10  C   UNL     1     113.878 128.544 135.892  0.00  0.00    +0.000 A 
ATOM     11  C   UNL     1     113.195 130.049 136.319  0.00  0.00    +0.000 A 
ATOM     12  C   UNL     1     114.393 129.206 136.077  0.00  0.00    +0.000 A 
ATOM     13  C   UNL     1     114.049 129.964 136.292  0.00  0.00    +0.000 A 
ENDROOT
BRANCH   6  15
ATOM     14  O   UNL     1     108.106 129.179 136.090  0.00  0.00    +0.000 OA
ATOM     15  C   UNL     1     110.566 128.913 136.008  0.00  0.00    +0.000 A 
ATOM     16  C   UNL     1     110.179 128.950 136.736  0.00  0.00    +0.000 A 
ATOM     17  C   UNL     1     110.133 128.965 135.307  0.00  0.00    +0.000 A 
ATOM     18  C   UNL     1     109.359 129.039 136.763  0.00  0.00    +0.000 A 
ATOM     19  C   UNL     1     109.313 129.054 135.335  0.00  0.00    +0.000 A 
ATOM     20  C   UNL     1     108.926 129.091 136.063  0.00  0.00    +0.000 A 
BRANCH  18  21
ATOM     21  O   UNL     1     108.972 129.076 137.490  0.00  0.00    +0.000 OA
ATOM     22  C   UNL     1     109.343 129.430 138.138  0.00  0.00    +0.000 C 
ENDBRANCH  18  21
ENDBRANCH   6  15
BRANCH  11  23
ATOM     23  O   UNL     1     112.856 130.773 136.524  0.00  0.00    +0.000 OA
ATOM     24  C   UNL     1     113.099 131.162 137.210  0.00  0.00    +0.000 C 
ENDBRANCH  11  23
BRANCH   5  25
ATOM     25  O   UNL     1     111.226 127.458 135.596  0.00  0.00    +0.000 OA
BRANCH  25  34
ATOM     26  O   UNL     1     111.538 126.766 136.807  0.00  0.00    +0.000 OA
ATOM     27  O   UNL     1     111.514 124.637 137.284  0.00  0.00    +0.000 OA
ATOM     28  O   UNL     1     111.033 124.609 135.706  0.00  0.00    +0.000 OA
ATOM     29  O   UNL     1     110.889 126.019 134.862  0.00  0.00    +0.000 OA
ATOM     30  C   UNL     1     111.610 126.061 137.229  0.00  0.00    +0.000 C 
ATOM     31  C   UNL     1     111.442 125.343 136.862  0.00  0.00    +0.000 C 
ATOM     32  C   UNL     1     111.202 125.328 136.073  0.00  0.00    +0.000 C 
ATOM     33  C   UNL     1     111.129 126.033 135.651  0.00  0.00    +0.000 C 
ATOM     34  C   UNL     1     111.298 126.753 136.018  0.00  0.00    +0.000 C 
BRANCH  30  35
ATOM     35  C   UNL     1     111.851 126.076 138.018  0.00  0.00    +0.000 C 
BRANCH  35  36
ATOM     36  O   UNL     1     111.450 126.550 138.562  0.00  0.00    +0.000 OA
BRANCH  36  42
ATOM     37  O   UNL     1     112.588 126.805 139.389  0.00  0.00    +0.000 OA
ATOM     38  O   UNL     1     110.475 126.588 139.892  0.00  0.00    +0.000 OA
ATOM     39  O   UNL     1     111.124 126.862 141.384  0.00  0.00    +0.000 OA
ATOM     40  O   UNL     1     112.750 127.098 141.546  0.00  0.00    +0.000 OA
ATOM     41  C   UNL     1     111.287 126.706 139.973  0.00  0.00    +0.000 C 
ATOM     42  C   UNL     1     111.775 126.687 139.308  0.00  0.00    +0.000 C 
ATOM     43  C   UNL     1     111.612 126.843 140.719  0.00  0.00    +0.000 C 
ATOM     44  C   UNL     1     112.424 126.961 140.800  0.00  0.00    +0.000 C 
ATOM     45  C   UNL     1     112.912 126.942 140.135  0.00  0.00    +0.000 C 
ATOM     46  C   UNL     1     113.725 127.059 140.216  0.00  0.00    +0.000 C 
ENDBRANCH  36  42
ENDBRANCH  35  36
ENDBRANCH  30  35
ENDBRANCH  25  34
ENDBRANCH   5  25
TORSDOF 8
ENDMDL
MODEL 4
REMARK VINA RESULT:      -9.6      1.329      4.785
REMARK  Name = 44259990
REMARK  8 active torsions:
REMARK  status: ('A' for Active; 'I' for Inactive)
REMARK    1  A    between atoms: O_2  and  C_23
REMARK    2  A    between atoms: O_2  and  C_27
REMARK    3  A    between atoms: O_6  and  C_26
REMARK    4  A    between atoms: O_6  and  C_30
REMARK    5  A    between atoms: O_13  and  C_37
REMARK    6  A    between atoms: O_16  and  C_42
REMARK    7  A    between atoms: C_18  and  C_27
REMARK    8  A    between atoms: C_31  and  C_35
REMARK                            x       y       z     vdW  Elec       q    Type
REMARK                         _______ _______ _______ _____ _____    ______ ____
ROOT
ATOM      1  O   UNL     1     111.588 125.613 136.429  0.00  0.00    +0.000 OA
ATOM      2  O   UNL     1     113.414 127.283 136.401  0.00  0.00    +0.000 OA
ATOM      3  O   UNL     1     114.397 126.254 136.638  0.00  0.00    +0.000 OA
ATOM      4  O   UNL     1     113.514 123.483 136.908  0.00  0.00    +0.000 OA
ATOM      5  C   UNL     1     112.025 126.968 136.297  0.00  0.00    +0.000 A 
ATOM      6  C   UNL     1     111.416 126.412 136.306  0.00  0.00    +0.000 A 
ATOM      7  C   UNL     1     112.806 126.726 136.410  0.00  0.00    +0.000 A 
ATOM      8  C   UNL     1     112.977 125.930 136.532  0.00  0.00    +0.000 A 
ATOM      9  C   UNL     1     112.368 125.373 136.542  0.00  0.00    +0.000 A 
ATOM     10  C   UNL     1     113.795 125.691 136.649  0.00  0.00    +0.000 A 
ATOM     11  C   UNL     1     112.535 124.539 136.668  0.00  0.00    +0.000 A 
ATOM     12  C   UNL     1     113.980 124.862 136.776  0.00  0.00    +0.000 A 
ATOM     13  C   UNL     1     113.345 124.281 136.786  0.00  0.00    +0.000 A 
ENDROOT
BRANCH   6  15
ATOM     14  O   UNL     1     108.292 127.374 135.852  0.00  0.00    +0.000 OA
ATOM     15  C   UNL     1     110.635 126.652 136.194  0.00  0.00    +0.000 A 
ATOM     16  C   UNL     1     110.107 126.654 136.828  0.00  0.00    +0.000 A 
ATOM     17  C   UNL     1     110.381 126.891 135.445  0.00  0.00    +0.000 A 
ATOM     18  C   UNL     1     109.326 126.895 136.714  0.00  0.00    +0.000 A 
ATOM     19  C   UNL     1     109.600 127.132 135.332  0.00  0.00    +0.000 A 
ATOM     20  C   UNL     1     109.073 127.133 135.967  0.00  0.00    +0.000 A 
BRANCH  18  21
ATOM     21  O   UNL     1     108.799 126.897 137.348  0.00  0.00    +0.000 OA
ATOM     22  C   UNL     1     108.989 126.496 138.045  0.00  0.00    +0.000 C 
ENDBRANCH  18  21
ENDBRANCH   6  15
BRANCH  11  23
ATOM     23  O   UNL     1     111.919 123.990 136.675  0.00  0.00    +0.000 OA
ATOM     24  C   UNL     1     111.910 123.389 137.241  0.00  0.00    +0.000 C 
ENDBRANCH  11  23
BRANCH   5  25
ATOM     25  O   UNL     1     111.853 127.765 136.175  0.00  0.00    +0.000 OA
BRANCH  25  34
ATOM     26  O   UNL     1     111.954 128.178 137.540  0.00  0.00    +0.000 OA
ATOM     27  O   UNL     1     112.745 130.008 138.425  0.00  0.00    +0.000 OA
ATOM     28  O   UNL     1     112.990 130.306 136.821  0.00  0.00    +0.000 OA
ATOM     29  O   UNL     1     112.544 129.185 135.696  0.00  0.00    +0.000 OA
ATOM     30  C   UNL     1     112.177 128.738 138.102  0.00  0.00    +0.000 C 
ATOM     31  C   UNL     1     112.522 129.448 137.863  0.00  0.00    +0.000 C 
ATOM     32  C   UNL     1     112.645 129.597 137.060  0.00  0.00    +0.000 C 
ATOM     33  C   UNL     1     112.422 129.036 136.498  0.00  0.00    +0.000 C 
ATOM     34  C   UNL     1     112.076 128.326 136.738  0.00  0.00    +0.000 C 
BRANCH  30  35
ATOM     35  C   UNL     1     112.054 128.589 138.904  0.00  0.00    +0.000 C 
BRANCH  35  36
ATOM     36  O   UNL     1     112.074 127.814 139.187  0.00  0.00    +0.000 OA
BRANCH  36  42
ATOM     37  O   UNL     1     111.306 128.194 140.330  0.00  0.00    +0.000 OA
ATOM     38  O   UNL     1     112.385 126.350 139.883  0.00  0.00    +0.000 OA
ATOM     39  O   UNL     1     111.772 125.999 141.374  0.00  0.00    +0.000 OA
ATOM     40  O   UNL     1     110.848 127.111 142.169  0.00  0.00    +0.000 OA
ATOM     41  C   UNL     1     111.923 126.906 140.280  0.00  0.00    +0.000 C 
ATOM     42  C   UNL     1     111.768 127.638 139.932  0.00  0.00    +0.000 C 
ATOM     43  C   UNL     1     111.616 126.731 141.026  0.00  0.00    +0.000 C 
ATOM     44  C   UNL     1     111.155 127.286 141.423  0.00  0.00    +0.000 C 
ATOM     45  C   UNL     1     110.999 128.018 141.075  0.00  0.00    +0.000 C 
ATOM     46  C   UNL     1     110.537 128.575 141.473  0.00  0.00    +0.000 C 
ENDBRANCH  36  42
ENDBRANCH  35  36
ENDBRANCH  30  35
ENDBRANCH  25  34
ENDBRANCH   5  25
TORSDOF 8
ENDMDL
MODEL 5
REMARK VINA RESULT:      -9.6      1.192      4.318
REMARK  Name = 44259990
REMARK  8 active torsions:
REMARK  status: ('A' for Active; 'I' for Inactive)
REMARK    1  A    between atoms: O_2  and  C_23
REMARK    2  A    between atoms: O_2  and  C_27
REMARK    3  A    between atoms: O_6  and  C_26
REMARK    4  A    between atoms: O_6  and  C_30
REMARK    5  A    between atoms: O_13  and  C_37
REMARK    6  A    between atoms: O_16  and  C_42
REMARK    7  A    between atoms: C_18  and  C_27
REMARK    8  A    between atoms: C_31  and  C_35
REMARK                            x       y       z     vdW  Elec       q    Type
REMARK                         _______ _______ _______ _____ _____    ______ ____
ROOT
ATOM      1  O   UNL     1     113.262 126.511 136.794  0.00  0.00    +0.000 OA
ATOM      2  O   UNL     1     111.084 126.146 135.678  0.00  0.00    +0.000 OA
ATOM      3  O   UNL     1     111.179 124.723 135.893  0.00  0.00    +0.000 OA
ATOM      4  O   UNL     1     113.523 123.649 137.265  0.00  0.00    +0.000 OA
ATOM      5  C   UNL     1     112.113 127.032 136.122  0.00  0.00    +0.000 A 
ATOM      6  C   UNL     1     112.839 127.153 136.494  0.00  0.00    +0.000 A 
ATOM      7  C   UNL     1     111.810 126.267 136.050  0.00  0.00    +0.000 A 
ATOM      8  C   UNL     1     112.232 125.626 136.349  0.00  0.00    +0.000 A 
ATOM      9  C   UNL     1     112.958 125.747 136.721  0.00  0.00    +0.000 A 
ATOM     10  C   UNL     1     111.906 124.835 136.267  0.00  0.00    +0.000 A 
ATOM     11  C   UNL     1     113.408 125.086 137.037  0.00  0.00    +0.000 A 
ATOM     12  C   UNL     1     112.341 124.162 136.577  0.00  0.00    +0.000 A 
ATOM     13  C   UNL     1     113.098 124.289 136.965  0.00  0.00    +0.000 A 
ENDROOT
BRANCH   6  15
ATOM     14  O   UNL     1     114.055 130.207 136.784  0.00  0.00    +0.000 OA
ATOM     15  C   UNL     1     113.143 127.917 136.568  0.00  0.00    +0.000 A 
ATOM     16  C   UNL     1     113.110 128.307 137.294  0.00  0.00    +0.000 A 
ATOM     17  C   UNL     1     113.480 128.290 135.913  0.00  0.00    +0.000 A 
ATOM     18  C   UNL     1     113.414 129.070 137.366  0.00  0.00    +0.000 A 
ATOM     19  C   UNL     1     113.784 129.054 135.986  0.00  0.00    +0.000 A 
ATOM     20  C   UNL     1     113.751 129.444 136.712  0.00  0.00    +0.000 A 
BRANCH  18  21
ATOM     21  O   UNL     1     113.381 129.460 138.092  0.00  0.00    +0.000 OA
ATOM     22  C   UNL     1     113.310 129.026 138.791  0.00  0.00    +0.000 C 
ENDBRANCH  18  21
ENDBRANCH   6  15
BRANCH  11  23
ATOM     23  O   UNL     1     114.133 125.218 137.408  0.00  0.00    +0.000 OA
ATOM     24  C   UNL     1     114.797 124.783 137.180  0.00  0.00    +0.000 C 
ENDBRANCH  11  23
BRANCH   5  25
ATOM     25  O   UNL     1     111.690 127.673 135.823  0.00  0.00    +0.000 OA
BRANCH  25  34
ATOM     26  O   UNL     1     110.765 127.748 136.909  0.00  0.00    +0.000 OA
ATOM     27  O   UNL     1     108.661 128.327 136.957  0.00  0.00    +0.000 OA
ATOM     28  O   UNL     1     108.997 128.506 135.352  0.00  0.00    +0.000 OA
ATOM     29  O   UNL     1     110.512 128.179 134.785  0.00  0.00    +0.000 OA
ATOM     30  C   UNL     1     110.007 127.911 137.193  0.00  0.00    +0.000 C 
ATOM     31  C   UNL     1     109.419 128.164 136.674  0.00  0.00    +0.000 C 
ATOM     32  C   UNL     1     109.586 128.253 135.871  0.00  0.00    +0.000 C 
ATOM     33  C   UNL     1     110.343 128.090 135.587  0.00  0.00    +0.000 C 
ATOM     34  C   UNL     1     110.933 127.837 136.107  0.00  0.00    +0.000 C 
BRANCH  30  35
ATOM     35  C   UNL     1     109.840 127.822 137.996  0.00  0.00    +0.000 C 
BRANCH  35  36
ATOM     36  O   UNL     1     110.047 127.124 138.384  0.00  0.00    +0.000 OA
BRANCH  36  42
ATOM     37  O   UNL     1     109.970 127.786 139.648  0.00  0.00    +0.000 OA
ATOM     38  O   UNL     1     110.142 125.667 139.154  0.00  0.00    +0.000 OA
ATOM     39  O   UNL     1     110.113 125.601 140.802  0.00  0.00    +0.000 OA
ATOM     40  O   UNL     1     109.989 126.992 141.681  0.00  0.00    +0.000 OA
ATOM     41  C   UNL     1     110.080 126.362 139.593  0.00  0.00    +0.000 C 
ATOM     42  C   UNL     1     110.032 127.090 139.208  0.00  0.00    +0.000 C 
ATOM     43  C   UNL     1     110.066 126.330 140.417  0.00  0.00    +0.000 C 
ATOM     44  C   UNL     1     110.004 127.024 140.857  0.00  0.00    +0.000 C 
ATOM     45  C   UNL     1     109.956 127.753 140.472  0.00  0.00    +0.000 C 
ATOM     46  C   UNL     1     109.894 128.449 140.912  0.00  0.00    +0.000 C 
ENDBRANCH  36  42
ENDBRANCH  35  36
ENDBRANCH  30  35
ENDBRANCH  25  34
ENDBRANCH   5  25
TORSDOF 8
ENDMDL
MODEL 6
REMARK VINA RESULT:      -9.5      1.495      4.442
REMARK  Name = 44259990
REMARK  8 active torsions:
REMARK  status: ('A' for Active; 'I' for Inactive)
REMARK    1  A    between atoms: O_2  and  C_23
REMARK    2  A    between atoms: O_2  and  C_27
REMARK    3  A    between atoms: O_6  and  C_26
REMARK    4  A    between atoms: O_6  and  C_30
REMARK    5  A    between atoms: O_13  and  C_37
REMARK    6  A    between atoms: O_16  and  C_42
REMARK    7  A    between atoms: C_18  and  C_27
REMARK    8  A    between atoms: C_31  and  C_35
REMARK                            x       y       z     vdW  Elec       q    Type
REMARK                         _______ _______ _______ _____ _____    ______ ____
ROOT
ATOM      1  O   UNL     1     111.485 126.784 136.745  0.00  0.00    +0.000 OA
ATOM      2  O   UNL     1     112.017 128.700 135.271  0.00  0.00    +0.000 OA
ATOM      3  O   UNL     1     110.615 128.940 135.029  0.00  0.00    +0.000 OA
ATOM      4  O   UNL     1     108.638 127.207 136.302  0.00  0.00    +0.000 OA
ATOM      5  C   UNL     1     112.449 127.635 136.120  0.00  0.00    +0.000 A 
ATOM      6  C   UNL     1     112.272 126.996 136.611  0.00  0.00    +0.000 A 
ATOM      7  C   UNL     1     111.840 128.061 135.763  0.00  0.00    +0.000 A 
ATOM      8  C   UNL     1     111.054 127.850 135.896  0.00  0.00    +0.000 A 
ATOM      9  C   UNL     1     110.877 127.211 136.388  0.00  0.00    +0.000 A 
ATOM     10  C   UNL     1     110.428 128.302 135.519  0.00  0.00    +0.000 A 
ATOM     11  C   UNL     1     110.062 126.981 136.535  0.00  0.00    +0.000 A 
ATOM     12  C   UNL     1     109.608 128.087 135.654  0.00  0.00    +0.000 A 
ATOM     13  C   UNL     1     109.424 127.421 136.167  0.00  0.00    +0.000 A 
ENDROOT
BRANCH   6  15
ATOM     14  O   UNL     1     114.707 125.285 138.038  0.00  0.00    +0.000 OA
ATOM     15  C   UNL     1     112.880 126.569 136.968  0.00  0.00    +0.000 A 
ATOM     16  C   UNL     1     113.036 126.665 137.772  0.00  0.00    +0.000 A 
ATOM     17  C   UNL     1     113.334 126.044 136.520  0.00  0.00    +0.000 A 
ATOM     18  C   UNL     1     113.645 126.237 138.129  0.00  0.00    +0.000 A 
ATOM     19  C   UNL     1     113.942 125.616 136.877  0.00  0.00    +0.000 A 
ATOM     20  C   UNL     1     114.098 125.713 137.682  0.00  0.00    +0.000 A 
BRANCH  18  21
ATOM     21  O   UNL     1     113.800 126.334 138.933  0.00  0.00    +0.000 OA
ATOM     22  C   UNL     1     113.187 126.525 139.452  0.00  0.00    +0.000 C 
ENDBRANCH  18  21
ENDBRANCH   6  15
BRANCH  11  23
ATOM     23  O   UNL     1     109.895 126.341 137.028  0.00  0.00    +0.000 OA
ATOM     24  C   UNL     1     109.411 126.444 137.688  0.00  0.00    +0.000 C 
ENDBRANCH  11  23
BRANCH   5  25
ATOM     25  O   UNL     1     113.235 127.846 135.986  0.00  0.00    +0.000 OA
BRANCH  25  34
ATOM     26  O   UNL     1     113.156 129.014 136.805  0.00  0.00    +0.000 OA
ATOM     27  O   UNL     1     114.275 130.886 136.738  0.00  0.00    +0.000 OA
ATOM     28  O   UNL     1     114.954 130.071 135.474  0.00  0.00    +0.000 OA
ATOM     29  O   UNL     1     114.434 128.551 135.098  0.00  0.00    +0.000 OA
ATOM     30  C   UNL     1     113.416 129.774 136.993  0.00  0.00    +0.000 C 
ATOM     31  C   UNL     1     114.015 130.126 136.550  0.00  0.00    +0.000 C 
ATOM     32  C   UNL     1     114.355 129.719 135.918  0.00  0.00    +0.000 C 
ATOM     33  C   UNL     1     114.095 128.959 135.730  0.00  0.00    +0.000 C 
ATOM     34  C   UNL     1     113.495 128.606 136.174  0.00  0.00    +0.000 C 
BRANCH  30  35
ATOM     35  C   UNL     1     113.076 130.181 137.626  0.00  0.00    +0.000 C 
BRANCH  35  36
ATOM     36  O   UNL     1     113.126 129.873 138.389  0.00  0.00    +0.000 OA
BRANCH  36  42
ATOM     37  O   UNL     1     111.735 129.897 138.717  0.00  0.00    +0.000 OA
ATOM     38  O   UNL     1     113.493 130.401 139.908  0.00  0.00    +0.000 OA
ATOM     39  O   UNL     1     112.286 130.689 140.996  0.00  0.00    +0.000 OA
ATOM     40  O   UNL     1     110.712 130.449 140.564  0.00  0.00    +0.000 OA
ATOM     41  C   UNL     1     112.707 130.281 139.693  0.00  0.00    +0.000 C 
ATOM     42  C   UNL     1     112.523 130.017 138.933  0.00  0.00    +0.000 C 
ATOM     43  C   UNL     1     112.103 130.425 140.236  0.00  0.00    +0.000 C 
ATOM     44  C   UNL     1     111.316 130.305 140.021  0.00  0.00    +0.000 C 
ATOM     45  C   UNL     1     111.133 130.041 139.261  0.00  0.00    +0.000 C 
ATOM     46  C   UNL     1     110.345 129.921 139.045  0.00  0.00    +0.000 C 
ENDBRANCH  36  42
ENDBRANCH  35  36
ENDBRANCH  30  35
ENDBRANCH  25  34
ENDBRANCH   5  25
TORSDOF 8
ENDMDL
MODEL 7
REMARK VINA RESULT:      -9.5      1.903      4.162
REMARK  Name = 44259990
REMARK  8 active torsions:
REMARK  status: ('A' for Active; 'I' for Inactive)
REMARK    1  A    between atoms: O_2  and  C_23
REMARK    2  A    between atoms: O_2  and  C_27
REMARK    3  A    between atoms: O_6  and  C_26
REMARK    4  A    between atoms: O_6  and  C_30
REMARK    5  A    between atoms: O_13  and  C_37
REMARK    6  A    between atoms: O_16  and  C_42
REMARK    7  A    between atoms: C_18  and  C_27
REMARK    8  A    between atoms: C_31  and  C_35
REMARK                            x       y       z     vdW  Elec       q    Type
REMARK                         _______ _______ _______ _____ _____    ______ ____
ROOT
ATOM      1  O   UNL     1     112.365 130.732 136.704  0.00  0.00    +0.000 OA
ATOM      2  O   UNL     1     111.138 129.274 135.126  0.00  0.00    +0.000 OA
ATOM      3  O   UNL     1     112.375 128.739 134.612  0.00  0.00    +0.000 OA
ATOM      4  O   UNL     1     114.903 129.698 135.718  0.00  0.00    +0.000 OA
ATOM      5  C   UNL     1     111.131 130.260 136.160  0.00  0.00    +0.000 A 
ATOM      6  C   UNL     1     111.540 130.745 136.686  0.00  0.00    +0.000 A 
ATOM      7  C   UNL     1     111.547 129.760 135.652  0.00  0.00    +0.000 A 
ATOM      8  C   UNL     1     112.371 129.746 135.670  0.00  0.00    +0.000 A 
ATOM      9  C   UNL     1     112.780 130.232 136.196  0.00  0.00    +0.000 A 
ATOM     10  C   UNL     1     112.793 129.221 135.135  0.00  0.00    +0.000 A 
ATOM     11  C   UNL     1     113.639 130.227 136.224  0.00  0.00    +0.000 A 
ATOM     12  C   UNL     1     113.651 129.203 135.149  0.00  0.00    +0.000 A 
ATOM     13  C   UNL     1     114.078 129.709 135.698  0.00  0.00    +0.000 A 
ENDROOT
BRANCH   6  15
ATOM     14  O   UNL     1     109.880 132.747 138.719  0.00  0.00    +0.000 OA
ATOM     15  C   UNL     1     111.125 131.245 137.195  0.00  0.00    +0.000 A 
ATOM     16  C   UNL     1     111.017 131.033 137.985  0.00  0.00    +0.000 A 
ATOM     17  C   UNL     1     110.819 131.958 136.913  0.00  0.00    +0.000 A 
ATOM     18  C   UNL     1     110.601 131.534 138.492  0.00  0.00    +0.000 A 
ATOM     19  C   UNL     1     110.404 132.458 137.421  0.00  0.00    +0.000 A 
ATOM     20  C   UNL     1     110.295 132.246 138.211  0.00  0.00    +0.000 A 
BRANCH  18  21
ATOM     21  O   UNL     1     110.493 131.322 139.282  0.00  0.00    +0.000 OA
ATOM     22  C   UNL     1     111.064 130.870 139.671  0.00  0.00    +0.000 C 
ENDBRANCH  18  21
ENDBRANCH   6  15
BRANCH  11  23
ATOM     23  O   UNL     1     114.040 130.716 136.754  0.00  0.00    +0.000 OA
ATOM     24  C   UNL     1     114.552 130.388 137.311  0.00  0.00    +0.000 C 
ENDBRANCH  11  23
BRANCH   5  25
ATOM     25  O   UNL     1     110.307 130.273 136.142  0.00  0.00    +0.000 OA
BRANCH  25  34
ATOM     26  O   UNL     1     110.193 128.977 136.733  0.00  0.00    +0.000 OA
ATOM     27  O   UNL     1     108.600 127.490 136.623  0.00  0.00    +0.000 OA
ATOM     28  O   UNL     1     107.972 128.691 135.682  0.00  0.00    +0.000 OA
ATOM     29  O   UNL     1     108.825 130.083 135.441  0.00  0.00    +0.000 OA
ATOM     30  C   UNL     1     109.767 128.281 136.853  0.00  0.00    +0.000 C 
ATOM     31  C   UNL     1     109.027 128.186 136.503  0.00  0.00    +0.000 C 
ATOM     32  C   UNL     1     108.712 128.786 136.032  0.00  0.00    +0.000 C 
ATOM     33  C   UNL     1     109.139 129.482 135.912  0.00  0.00    +0.000 C 
ATOM     34  C   UNL     1     109.880 129.578 136.262  0.00  0.00    +0.000 C 
BRANCH  30  35
ATOM     35  C   UNL     1     110.081 127.681 137.324  0.00  0.00    +0.000 C 
BRANCH  35  36
ATOM     36  O   UNL     1     110.270 127.832 138.113  0.00  0.00    +0.000 OA
BRANCH  36  42
ATOM     37  O   UNL     1     111.565 127.230 138.095  0.00  0.00    +0.000 OA
ATOM     38  O   UNL     1     110.033 127.279 139.649  0.00  0.00    +0.000 OA
ATOM     39  O   UNL     1     111.211 126.400 140.400  0.00  0.00    +0.000 OA
ATOM     40  O   UNL     1     112.625 126.074 139.614  0.00  0.00    +0.000 OA
ATOM     41  C   UNL     1     110.740 127.116 139.257  0.00  0.00    +0.000 C 
ATOM     42  C   UNL     1     110.858 127.393 138.489  0.00  0.00    +0.000 C 
ATOM     43  C   UNL     1     111.329 126.677 139.632  0.00  0.00    +0.000 C 
ATOM     44  C   UNL     1     112.035 126.514 139.239  0.00  0.00    +0.000 C 
ATOM     45  C   UNL     1     112.153 126.790 138.471  0.00  0.00    +0.000 C 
ATOM     46  C   UNL     1     112.861 126.627 138.078  0.00  0.00    +0.000 C 
ENDBRANCH  36  42
ENDBRANCH  35  36
ENDBRANCH  30  35
ENDBRANCH  25  34
ENDBRANCH   5  25
TORSDOF 8
ENDMDL
MODEL 8
REMARK VINA RESULT:      -9.5      1.311      3.129
REMARK  Name = 44259990
REMARK  8 active torsions:
REMARK  status: ('A' for Active; 'I' for Inactive)
REMARK    1  A    between atoms: O_2  and  C_23
REMARK    2  A    between atoms: O_2  and  C_27
REMARK    3  A    between atoms: O_6  and  C_26
REMARK    4  A    between atoms: O_6  and  C_30
REMARK    5  A    between atoms: O_13  and  C_37
REMARK    6  A    between atoms: O_16  and  C_42
REMARK    7  A    between atoms: C_18  and  C_27
REMARK    8  A    between atoms: C_31  and  C_35
REMARK                            x       y       z     vdW  Elec       q    Type
REMARK                         _______ _______ _______ _____ _____    ______ ____
ROOT
ATOM      1  O   UNL     1     112.930 128.178 136.115  0.00  0.00    +0.000 OA
ATOM      2  O   UNL     1     112.675 128.890 138.472  0.00  0.00    +0.000 OA
ATOM      3  O   UNL     1     113.463 130.073 138.230  0.00  0.00    +0.000 OA
ATOM      4  O   UNL     1     114.531 130.545 135.553  0.00  0.00    +0.000 OA
ATOM      5  C   UNL     1     112.410 127.952 137.427  0.00  0.00    +0.000 A 
ATOM      6  C   UNL     1     112.495 127.715 136.642  0.00  0.00    +0.000 A 
ATOM      7  C   UNL     1     112.760 128.653 137.686  0.00  0.00    +0.000 A 
ATOM      8  C   UNL     1     113.194 129.116 137.161  0.00  0.00    +0.000 A 
ATOM      9  C   UNL     1     113.279 128.879 136.375  0.00  0.00    +0.000 A 
ATOM     10  C   UNL     1     113.554 129.844 137.443  0.00  0.00    +0.000 A 
ATOM     11  C   UNL     1     113.730 129.353 135.817  0.00  0.00    +0.000 A 
ATOM     12  C   UNL     1     114.008 130.331 136.900  0.00  0.00    +0.000 A 
ATOM     13  C   UNL     1     114.096 130.083 136.081  0.00  0.00    +0.000 A 
ENDROOT
BRANCH   6  15
ATOM     14  O   UNL     1     111.098 124.911 135.603  0.00  0.00    +0.000 OA
ATOM     15  C   UNL     1     112.145 127.014 136.382  0.00  0.00    +0.000 A 
ATOM     16  C   UNL     1     111.471 127.040 135.907  0.00  0.00    +0.000 A 
ATOM     17  C   UNL     1     112.470 126.287 136.597  0.00  0.00    +0.000 A 
ATOM     18  C   UNL     1     111.122 126.339 135.647  0.00  0.00    +0.000 A 
ATOM     19  C   UNL     1     112.121 125.586 136.337  0.00  0.00    +0.000 A 
ATOM     20  C   UNL     1     111.447 125.612 135.862  0.00  0.00    +0.000 A 
BRANCH  18  21
ATOM     21  O   UNL     1     110.448 126.365 135.172  0.00  0.00    +0.000 OA
ATOM     22  C   UNL     1     110.360 126.966 134.613  0.00  0.00    +0.000 C 
ENDBRANCH  18  21
ENDBRANCH   6  15
BRANCH  11  23
ATOM     23  O   UNL     1     113.809 129.108 135.034  0.00  0.00    +0.000 OA
ATOM     24  C   UNL     1     114.546 129.146 134.662  0.00  0.00    +0.000 C 
ENDBRANCH  11  23
BRANCH   5  25
ATOM     25  O   UNL     1     111.975 127.489 137.953  0.00  0.00    +0.000 OA
BRANCH  25  34
ATOM     26  O   UNL     1     110.880 128.407 137.968  0.00  0.00    +0.000 OA
ATOM     27  O   UNL     1     109.322 128.749 139.458  0.00  0.00    +0.000 OA
ATOM     28  O   UNL     1     110.186 127.543 140.181  0.00  0.00    +0.000 OA
ATOM     29  O   UNL     1     111.512 126.913 139.428  0.00  0.00    +0.000 OA
ATOM     30  C   UNL     1     110.217 128.722 138.344  0.00  0.00    +0.000 C 
ATOM     31  C   UNL     1     109.986 128.434 139.081  0.00  0.00    +0.000 C 
ATOM     32  C   UNL     1     110.417 127.831 139.444  0.00  0.00    +0.000 C 
ATOM     33  C   UNL     1     111.080 127.516 139.067  0.00  0.00    +0.000 C 
ATOM     34  C   UNL     1     111.312 127.804 138.329  0.00  0.00    +0.000 C 
BRANCH  30  35
ATOM     35  C   UNL     1     109.785 129.325 137.982  0.00  0.00    +0.000 C 
BRANCH  35  36
ATOM     36  O   UNL     1     109.553 129.249 137.194  0.00  0.00    +0.000 OA
BRANCH  36  42
ATOM     37  O   UNL     1     109.869 130.581 136.782  0.00  0.00    +0.000 OA
ATOM     38  O   UNL     1     108.205 129.275 136.244  0.00  0.00    +0.000 OA
ATOM     39  O   UNL     1     107.846 130.619 135.357  0.00  0.00    +0.000 OA
ATOM     40  O   UNL     1     108.836 131.938 135.419  0.00  0.00    +0.000 OA
ATOM     41  C   UNL     1     108.699 129.934 136.275  0.00  0.00    +0.000 C 
ATOM     42  C   UNL     1     109.373 129.921 136.750  0.00  0.00    +0.000 C 
ATOM     43  C   UNL     1     108.520 130.606 135.832  0.00  0.00    +0.000 C 
ATOM     44  C   UNL     1     109.014 131.265 135.863  0.00  0.00    +0.000 C 
ATOM     45  C   UNL     1     109.689 131.252 136.338  0.00  0.00    +0.000 C 
ATOM     46  C   UNL     1     110.184 131.912 136.370  0.00  0.00    +0.000 C 
ENDBRANCH  36  42
ENDBRANCH  35  36
ENDBRANCH  30  35
ENDBRANCH  25  34
ENDBRANCH   5  25
TORSDOF 8
ENDMDL
MODEL 9
REMARK VINA RESULT:      -9.4      1.554      3.981
REMARK  Name = 44259990
REMARK  8 active torsions:
REMARK  status: ('A' for Active; 'I' for Inactive)
REMARK    1  A    between atoms: O_2  and  C_23
REMARK    2  A    between atoms: O_2  and  C_27
REMARK    3  A    between atoms: O_6  and  C_26
REMARK    4  A    between atoms: O_6  and  C_30
REMARK    5  A    between atoms: O_13  and  C_37
REMARK    6  A    between atoms: O_16  and  C_42
REMARK    7  A    between atoms: C_18  and  C_27
REMARK    8  A    between atoms: C_31  and  C_35
REMARK                            x       y       z     vdW  Elec       q    Type
REMARK                         _______ _______ _______ _____ _____    ______ ____
ROOT
ATOM      1  O   UNL     1     111.081 126.052 138.424  0.00  0.00    +0.000 OA
ATOM      2  O   UNL     1     113.165 127.387 138.444  0.00  0.00    +0.000 OA
ATOM      3  O   UNL     1     113.152 127.439 139.886  0.00  0.00    +0.000 OA
ATOM      4  O   UNL     1     110.989 126.114 141.334  0.00  0.00    +0.000 OA
ATOM      5  C   UNL     1     112.141 126.702 137.720  0.00  0.00    +0.000 A 
ATOM      6  C   UNL     1     111.447 126.258 137.713  0.00  0.00    +0.000 A 
ATOM      7  C   UNL     1     112.470 126.942 138.438  0.00  0.00    +0.000 A 
ATOM      8  C   UNL     1     112.105 126.738 139.148  0.00  0.00    +0.000 A 
ATOM      9  C   UNL     1     111.410 126.293 139.141  0.00  0.00    +0.000 A 
ATOM     10  C   UNL     1     112.457 126.994 139.889  0.00  0.00    +0.000 A 
ATOM     11  C   UNL     1     111.020 126.073 139.875  0.00  0.00    +0.000 A 
ATOM     12  C   UNL     1     112.081 126.784 140.632  0.00  0.00    +0.000 A 
ATOM     13  C   UNL     1     111.357 126.320 140.625  0.00  0.00    +0.000 A 
ENDROOT
BRANCH   6  15
ATOM     14  O   UNL     1     110.131 125.294 134.844  0.00  0.00    +0.000 OA
ATOM     15  C   UNL     1     111.117 126.017 136.996  0.00  0.00    +0.000 A 
ATOM     16  C   UNL     1     110.450 126.401 136.698  0.00  0.00    +0.000 A 
ATOM     17  C   UNL     1     111.456 125.392 136.576  0.00  0.00    +0.000 A 
ATOM     18  C   UNL     1     110.122 126.159 135.981  0.00  0.00    +0.000 A 
ATOM     19  C   UNL     1     111.126 125.152 135.859  0.00  0.00    +0.000 A 
ATOM     20  C   UNL     1     110.459 125.535 135.561  0.00  0.00    +0.000 A 
BRANCH  18  21
ATOM     21  O   UNL     1     109.454 126.543 135.684  0.00  0.00    +0.000 OA
ATOM     22  C   UNL     1     108.864 126.805 136.199  0.00  0.00    +0.000 C 
ENDBRANCH  18  21
ENDBRANCH   6  15
BRANCH  11  23
ATOM     23  O   UNL     1     110.325 125.628 139.858  0.00  0.00    +0.000 OA
ATOM     24  C   UNL     1     109.655 125.894 140.261  0.00  0.00    +0.000 C 
ENDBRANCH  11  23
BRANCH   5  25
ATOM     25  O   UNL     1     112.507 126.907 137.009  0.00  0.00    +0.000 OA
BRANCH  25  34
ATOM     26  O   UNL     1     112.083 128.271 137.071  0.00  0.00    +0.000 OA
ATOM     27  O   UNL     1     112.979 130.084 136.253  0.00  0.00    +0.000 OA
ATOM     28  O   UNL     1     114.063 128.946 135.750  0.00  0.00    +0.000 OA
ATOM     29  O   UNL     1     113.827 127.358 136.128  0.00  0.00    +0.000 OA
ATOM     30  C   UNL     1     112.202 129.065 136.882  0.00  0.00    +0.000 C 
ATOM     31  C   UNL     1     112.861 129.290 136.442  0.00  0.00    +0.000 C 
ATOM     32  C   UNL     1     113.404 128.721 136.190  0.00  0.00    +0.000 C 
ATOM     33  C   UNL     1     113.285 127.927 136.379  0.00  0.00    +0.000 C 
ATOM     34  C   UNL     1     112.625 127.701 136.820  0.00  0.00    +0.000 C 
BRANCH  30  35
ATOM     35  C   UNL     1     111.659 129.633 137.134  0.00  0.00    +0.000 C 
BRANCH  35  36
ATOM     36  O   UNL     1     110.872 129.589 136.890  0.00  0.00    +0.000 OA
BRANCH  36  42
ATOM     37  O   UNL     1     110.294 129.649 138.195  0.00  0.00    +0.000 OA
ATOM     38  O   UNL     1     109.616 130.477 136.292  0.00  0.00    +0.000 OA
ATOM     39  O   UNL     1     108.410 130.980 137.299  0.00  0.00    +0.000 OA
ATOM     40  O   UNL     1     108.459 130.596 138.903  0.00  0.00    +0.000 OA
ATOM     41  C   UNL     1     109.641 130.285 137.094  0.00  0.00    +0.000 C 
ATOM     42  C   UNL     1     110.269 129.841 137.392  0.00  0.00    +0.000 C 
ATOM     43  C   UNL     1     109.038 130.536 137.598  0.00  0.00    +0.000 C 
ATOM     44  C   UNL     1     109.062 130.345 138.399  0.00  0.00    +0.000 C 
ATOM     45  C   UNL     1     109.690 129.901 138.698  0.00  0.00    +0.000 C 
ATOM     46  C   UNL     1     109.715 129.708 139.500  0.00  0.00    +0.000 C 
ENDBRANCH  36  42
ENDBRANCH  35  36
ENDBRANCH  30  35
ENDBRANCH  25  34
ENDBRANCH   5  25
TORSDOF 8
ENDMDL
MODEL 10
REMARK VINA RESULT:      -9.4      1.408      4.875
REMARK  Name = 44259990
REMARK  8 active torsions:
REMARK  status: ('A' for Active; 'I' for Inactive)
REMARK    1  A    between atoms: O_2  and  C_23
REMARK    2  A    between atoms: O_2  and  C_27
REMARK    3  A    between atoms: O_6  and  C_26
REMARK    4  A    between atoms: O_6  and  C_30
REMARK    5  A    between atoms: O_13  and  C_37
REMARK    6  A    between atoms: O_16  and  C_42
REMARK    7  A    between atoms: C_18  and  C_27
REMARK    8  A    between atoms: C_31  and  C_35
REMARK                            x       y       z     vdW  Elec       q    Type
REMARK                         _______ _______ _______ _____ _____    ______ ____
ROOT
ATOM      1  O   UNL     1     111.617 129.646 136.268  0.00  0.00    +0.000 OA
ATOM      2  O   UNL     1     111.097 129.293 138.662  0.00  0.00    +0.000 OA
ATOM      3  O   UNL     1     109.733 128.946 138.345  0.00  0.00    +0.000 OA
ATOM      4  O   UNL     1     108.880 128.958 135.551  0.00  0.00    +0.000 OA
ATOM      5  C   UNL     1     112.030 129.639 137.637  0.00  0.00    +0.000 A 
ATOM      6  C   UNL     1     112.203 129.757 136.839  0.00  0.00    +0.000 A 
ATOM      7  C   UNL     1     111.270 129.410 137.864  0.00  0.00    +0.000 A 
ATOM      8  C   UNL     1     110.685 129.300 137.295  0.00  0.00    +0.000 A 
ATOM      9  C   UNL     1     110.858 129.418 136.497  0.00  0.00    +0.000 A 
ATOM     10  C   UNL     1     109.897 129.062 137.544  0.00  0.00    +0.000 A 
ATOM     11  C   UNL     1     110.256 129.305 135.893  0.00  0.00    +0.000 A 
ATOM     12  C   UNL     1     109.283 128.945 136.955  0.00  0.00    +0.000 A 
ATOM     13  C   UNL     1     109.464 129.068 136.124  0.00  0.00    +0.000 A 
ENDROOT
BRANCH   6  15
ATOM     14  O   UNL     1     115.239 130.673 135.926  0.00  0.00    +0.000 OA
ATOM     15  C   UNL     1     112.962 129.985 136.610  0.00  0.00    +0.000 A 
ATOM     16  C   UNL     1     113.450 129.454 136.209  0.00  0.00    +0.000 A 
ATOM     17  C   UNL     1     113.233 130.746 136.783  0.00  0.00    +0.000 A 
ATOM     18  C   UNL     1     114.209 129.684 135.981  0.00  0.00    +0.000 A 
ATOM     19  C   UNL     1     113.992 130.974 136.555  0.00  0.00    +0.000 A 
ATOM     20  C   UNL     1     114.480 130.443 136.154  0.00  0.00    +0.000 A 
BRANCH  18  21
ATOM     21  O   UNL     1     114.697 129.153 135.580  0.00  0.00    +0.000 OA
ATOM     22  C   UNL     1     114.412 128.407 135.371  0.00  0.00    +0.000 C 
ENDBRANCH  18  21
ENDBRANCH   6  15
BRANCH  11  23
ATOM     23  O   UNL     1     110.438 129.426 135.098  0.00  0.00    +0.000 OA
ATOM     24  C   UNL     1     109.941 129.885 134.625  0.00  0.00    +0.000 C 
ENDBRANCH  11  23
BRANCH   5  25
ATOM     25  O   UNL     1     112.616 129.750 138.206  0.00  0.00    +0.000 OA
BRANCH  25  34
ATOM     26  O   UNL     1     112.901 128.364 138.408  0.00  0.00    +0.000 OA
ATOM     27  O   UNL     1     113.458 127.267 140.210  0.00  0.00    +0.000 OA
ATOM     28  O   UNL     1     113.309 128.796 140.810  0.00  0.00    +0.000 OA
ATOM     29  O   UNL     1     112.888 130.038 139.808  0.00  0.00    +0.000 OA
ATOM     30  C   UNL     1     113.111 127.743 138.909  0.00  0.00    +0.000 C 
ATOM     31  C   UNL     1     113.247 127.887 139.709  0.00  0.00    +0.000 C 
ATOM     32  C   UNL     1     113.173 128.652 140.010  0.00  0.00    +0.000 C 
ATOM     33  C   UNL     1     112.962 129.273 139.509  0.00  0.00    +0.000 C 
ATOM     34  C   UNL     1     112.826 129.129 138.707  0.00  0.00    +0.000 C 
BRANCH  30  35
ATOM     35  C   UNL     1     113.186 126.978 138.608  0.00  0.00    +0.000 C 
BRANCH  35  36
ATOM     36  O   UNL     1     112.587 126.660 138.139  0.00  0.00    +0.000 OA
BRANCH  36  42
ATOM     37  O   UNL     1     113.477 125.645 137.670  0.00  0.00    +0.000 OA
ATOM     38  O   UNL     1     111.321 125.880 137.424  0.00  0.00    +0.000 OA
ATOM     39  O   UNL     1     111.578 124.474 136.598  0.00  0.00    +0.000 OA
ATOM     40  O   UNL     1     113.101 123.849 136.488  0.00  0.00    +0.000 OA
ATOM     41  C   UNL     1     112.082 125.567 137.368  0.00  0.00    +0.000 C 
ATOM     42  C   UNL     1     112.715 125.958 137.726  0.00  0.00    +0.000 C 
ATOM     43  C   UNL     1     112.211 124.865 136.956  0.00  0.00    +0.000 C 
ATOM     44  C   UNL     1     112.972 124.552 136.900  0.00  0.00    +0.000 C 
ATOM     45  C   UNL     1     113.605 124.942 137.258  0.00  0.00    +0.000 C 
ATOM     46  C   UNL     1     114.367 124.630 137.202  0.00  0.00    +0.000 C 
ENDBRANCH  36  42
ENDBRANCH  35  36
ENDBRANCH  30  35
ENDBRANCH  25  34
ENDBRANCH   5  25
TORSDOF 8
ENDMDL
