MODEL 1
REMARK VINA RESULT:     -10.6      0.000      0.000
REMARK  Name = 10146160
REMARK  8 active torsions:
REMARK  status: ('A' for Active; 'I' for Inactive)
REMARK    1  A    between atoms: O_1  and  C_15
REMARK    2  A    between atoms: O_1  and  C_20
REMARK    3  A    between atoms: O_4  and  C_18
REMARK    4  A    between atoms: O_4  and  C_26
REMARK    5  A    between atoms: O_14  and  C_42
REMARK    6  A    between atoms: C_27  and  C_31
REMARK    7  A    between atoms: C_32  and  C_35
REMARK    8  A    between atoms: C_35  and  C_41
REMARK                            x       y       z     vdW  Elec       q    Type
REMARK                         _______ _______ _______ _____ _____    ______ ____
ROOT
ATOM      1  O   UNL     1     112.245 127.211 136.878  0.00  0.00    +0.000 OA
ATOM      2  O   UNL     1     109.777 127.387 136.929  0.00  0.00    +0.000 OA
ATOM      3  O   UNL     1     109.641 126.022 136.483  0.00  0.00    +0.000 OA
ATOM      4  O   UNL     1     112.049 124.449 135.975  0.00  0.00    +0.000 OA
ATOM      5  C   UNL     1     111.064 127.976 137.125  0.00  0.00    +0.000 A 
ATOM      6  C   UNL     1     111.886 127.918 137.108  0.00  0.00    +0.000 A 
ATOM      7  C   UNL     1     110.599 127.328 136.912  0.00  0.00    +0.000 A 
ATOM      8  C   UNL     1     110.958 126.622 136.682  0.00  0.00    +0.000 A 
ATOM      9  C   UNL     1     111.781 126.563 136.665  0.00  0.00    +0.000 A 
ATOM     10  C   UNL     1     112.166 125.833 136.427  0.00  0.00    +0.000 A 
ATOM     11  C   UNL     1     110.464 125.955 136.463  0.00  0.00    +0.000 A 
ATOM     12  C   UNL     1     111.688 125.155 136.205  0.00  0.00    +0.000 A 
ATOM     13  C   UNL     1     110.831 125.215 136.222  0.00  0.00    +0.000 A 
ENDROOT
BRANCH   6  14
ATOM     14  C   UNL     1     112.351 128.566 137.321  0.00  0.00    +0.000 A 
ATOM     15  C   UNL     1     112.660 129.060 136.738  0.00  0.00    +0.000 A 
ATOM     16  C   UNL     1     112.506 128.719 138.116  0.00  0.00    +0.000 A 
ATOM     17  C   UNL     1     113.125 129.708 136.949  0.00  0.00    +0.000 A 
ATOM     18  C   UNL     1     112.971 129.367 138.329  0.00  0.00    +0.000 A 
ATOM     19  C   UNL     1     113.281 129.861 137.746  0.00  0.00    +0.000 A 
BRANCH  19  20
ATOM     20  O   UNL     1     113.745 130.509 137.957  0.00  0.00    +0.000 OA
ATOM     21  C   UNL     1     114.076 130.550 138.713  0.00  0.00    +0.000 C 
ENDBRANCH  19  20
ENDBRANCH   6  14
BRANCH   5  22
ATOM     22  O   UNL     1     110.705 128.683 137.355  0.00  0.00    +0.000 OA
BRANCH  22  29
ATOM     23  O   UNL     1     110.314 129.072 136.037  0.00  0.00    +0.000 OA
ATOM     24  O   UNL     1     108.291 130.160 136.959  0.00  0.00    +0.000 OA
ATOM     25  O   UNL     1     108.574 130.186 135.333  0.00  0.00    +0.000 OA
ATOM     26  C   UNL     1     109.498 129.421 137.157  0.00  0.00    +0.000 C 
ATOM     27  C   UNL     1     108.965 129.797 136.651  0.00  0.00    +0.000 C 
ATOM     28  C   UNL     1     109.107 129.810 135.839  0.00  0.00    +0.000 C 
ATOM     29  C   UNL     1     110.172 129.059 136.849  0.00  0.00    +0.000 C 
ATOM     30  C   UNL     1     109.781 129.448 135.532  0.00  0.00    +0.000 C 
ATOM     31  C   UNL     1     109.923 129.461 134.719  0.00  0.00    +0.000 C 
BRANCH  26  32
ATOM     32  O   UNL     1     109.356 129.408 137.970  0.00  0.00    +0.000 OA
BRANCH  32  37
ATOM     33  O   UNL     1     109.851 130.745 138.077  0.00  0.00    +0.000 OA
ATOM     34  O   UNL     1     109.034 129.397 139.588  0.00  0.00    +0.000 OA
ATOM     35  O   UNL     1     109.366 130.728 140.504  0.00  0.00    +0.000 OA
ATOM     36  O   UNL     1     110.021 132.070 139.802  0.00  0.00    +0.000 OA
ATOM     37  C   UNL     1     109.523 130.073 138.428  0.00  0.00    +0.000 C 
ATOM     38  C   UNL     1     109.362 130.069 139.237  0.00  0.00    +0.000 C 
ATOM     39  C   UNL     1     109.528 130.734 139.695  0.00  0.00    +0.000 C 
ATOM     40  C   UNL     1     109.855 131.405 139.344  0.00  0.00    +0.000 C 
ATOM     41  C   UNL     1     110.017 131.411 138.535  0.00  0.00    +0.000 C 
ENDBRANCH  32  37
ENDBRANCH  26  32
ENDBRANCH  22  29
ENDBRANCH   5  22
BRANCH  10  42
ATOM     42  C   UNL     1     112.989 125.783 136.413  0.00  0.00    +0.000 C 
BRANCH  42  43
ATOM     43  C   UNL     1     113.384 125.314 136.966  0.00  0.00    +0.000 C 
ATOM     44  C   UNL     1     114.208 125.272 136.957  0.00  0.00    +0.000 C 
ATOM     45  C   UNL     1     114.603 124.803 137.509  0.00  0.00    +0.000 C 
ATOM     46  C   UNL     1     114.637 125.699 136.396  0.00  0.00    +0.000 C 
ENDBRANCH  42  43
ENDBRANCH  10  42
TORSDOF 8
ENDMDL
MODEL 2
REMARK VINA RESULT:     -10.3      1.074      1.337
REMARK  Name = 10146160
REMARK  8 active torsions:
REMARK  status: ('A' for Active; 'I' for Inactive)
REMARK    1  A    between atoms: O_1  and  C_15
REMARK    2  A    between atoms: O_1  and  C_20
REMARK    3  A    between atoms: O_4  and  C_18
REMARK    4  A    between atoms: O_4  and  C_26
REMARK    5  A    between atoms: O_14  and  C_42
REMARK    6  A    between atoms: C_27  and  C_31
REMARK    7  A    between atoms: C_32  and  C_35
REMARK    8  A    between atoms: C_35  and  C_41
REMARK                            x       y       z     vdW  Elec       q    Type
REMARK                         _______ _______ _______ _____ _____    ______ ____
ROOT
ATOM      1  O   UNL     1     111.962 127.382 137.689  0.00  0.00    +0.000 OA
ATOM      2  O   UNL     1     109.566 127.901 138.022  0.00  0.00    +0.000 OA
ATOM      3  O   UNL     1     109.281 126.524 138.338  0.00  0.00    +0.000 OA
ATOM      4  O   UNL     1     111.463 124.583 138.317  0.00  0.00    +0.000 OA
ATOM      5  C   UNL     1     110.892 128.328 137.701  0.00  0.00    +0.000 A 
ATOM      6  C   UNL     1     111.690 128.155 137.590  0.00  0.00    +0.000 A 
ATOM      7  C   UNL     1     110.364 127.729 137.911  0.00  0.00    +0.000 A 
ATOM      8  C   UNL     1     110.637 126.956 138.010  0.00  0.00    +0.000 A 
ATOM      9  C   UNL     1     111.436 126.783 137.899  0.00  0.00    +0.000 A 
ATOM     10  C   UNL     1     111.732 125.982 137.999  0.00  0.00    +0.000 A 
ATOM     11  C   UNL     1     110.079 126.341 138.229  0.00  0.00    +0.000 A 
ATOM     12  C   UNL     1     111.188 125.354 138.218  0.00  0.00    +0.000 A 
ATOM     13  C   UNL     1     110.356 125.534 138.334  0.00  0.00    +0.000 A 
ENDROOT
BRANCH   6  14
ATOM     14  C   UNL     1     112.217 128.754 137.380  0.00  0.00    +0.000 A 
ATOM     15  C   UNL     1     112.534 129.246 137.961  0.00  0.00    +0.000 A 
ATOM     16  C   UNL     1     112.428 128.860 136.590  0.00  0.00    +0.000 A 
ATOM     17  C   UNL     1     113.062 129.845 137.752  0.00  0.00    +0.000 A 
ATOM     18  C   UNL     1     112.955 129.459 136.380  0.00  0.00    +0.000 A 
ATOM     19  C   UNL     1     113.272 129.952 136.961  0.00  0.00    +0.000 A 
BRANCH  19  20
ATOM     20  O   UNL     1     113.799 130.551 136.752  0.00  0.00    +0.000 OA
ATOM     21  C   UNL     1     113.602 131.340 136.893  0.00  0.00    +0.000 C 
ENDBRANCH  19  20
ENDBRANCH   6  14
BRANCH   5  22
ATOM     22  O   UNL     1     110.619 129.100 137.602  0.00  0.00    +0.000 OA
BRANCH  22  29
ATOM     23  O   UNL     1     109.997 128.866 136.337  0.00  0.00    +0.000 OA
ATOM     24  O   UNL     1     108.243 130.520 136.894  0.00  0.00    +0.000 OA
ATOM     25  O   UNL     1     108.205 129.735 135.444  0.00  0.00    +0.000 OA
ATOM     26  C   UNL     1     109.430 129.810 137.248  0.00  0.00    +0.000 C 
ATOM     27  C   UNL     1     108.827 129.969 136.709  0.00  0.00    +0.000 C 
ATOM     28  C   UNL     1     108.809 129.576 135.984  0.00  0.00    +0.000 C 
ATOM     29  C   UNL     1     110.015 129.259 137.062  0.00  0.00    +0.000 C 
ATOM     30  C   UNL     1     109.394 129.025 135.798  0.00  0.00    +0.000 C 
ATOM     31  C   UNL     1     109.375 128.632 135.072  0.00  0.00    +0.000 C 
BRANCH  26  32
ATOM     32  O   UNL     1     109.450 130.203 137.973  0.00  0.00    +0.000 OA
BRANCH  32  37
ATOM     33  O   UNL     1     109.913 131.387 137.320  0.00  0.00    +0.000 OA
ATOM     34  O   UNL     1     109.555 130.966 139.432  0.00  0.00    +0.000 OA
ATOM     35  O   UNL     1     110.071 132.532 139.509  0.00  0.00    +0.000 OA
ATOM     36  O   UNL     1     110.482 133.333 138.127  0.00  0.00    +0.000 OA
ATOM     37  C   UNL     1     109.708 130.985 138.012  0.00  0.00    +0.000 C 
ATOM     38  C   UNL     1     109.761 131.368 138.741  0.00  0.00    +0.000 C 
ATOM     39  C   UNL     1     110.019 132.150 138.779  0.00  0.00    +0.000 C 
ATOM     40  C   UNL     1     110.224 132.551 138.088  0.00  0.00    +0.000 C 
ATOM     41  C   UNL     1     110.172 132.169 137.358  0.00  0.00    +0.000 C 
ENDBRANCH  32  37
ENDBRANCH  26  32
ENDBRANCH  22  29
ENDBRANCH   5  22
BRANCH  10  42
ATOM     42  C   UNL     1     112.532 125.818 137.886  0.00  0.00    +0.000 C 
BRANCH  42  43
ATOM     43  C   UNL     1     112.772 125.352 137.250  0.00  0.00    +0.000 C 
ATOM     44  C   UNL     1     113.574 125.203 137.126  0.00  0.00    +0.000 C 
ATOM     45  C   UNL     1     113.814 124.736 136.489  0.00  0.00    +0.000 C 
ATOM     46  C   UNL     1     114.137 125.520 137.640  0.00  0.00    +0.000 C 
ENDBRANCH  42  43
ENDBRANCH  10  42
TORSDOF 8
ENDMDL
MODEL 3
REMARK VINA RESULT:     -10.2      1.027      2.147
REMARK  Name = 10146160
REMARK  8 active torsions:
REMARK  status: ('A' for Active; 'I' for Inactive)
REMARK    1  A    between atoms: O_1  and  C_15
REMARK    2  A    between atoms: O_1  and  C_20
REMARK    3  A    between atoms: O_4  and  C_18
REMARK    4  A    between atoms: O_4  and  C_26
REMARK    5  A    between atoms: O_14  and  C_42
REMARK    6  A    between atoms: C_27  and  C_31
REMARK    7  A    between atoms: C_32  and  C_35
REMARK    8  A    between atoms: C_35  and  C_41
REMARK                            x       y       z     vdW  Elec       q    Type
REMARK                         _______ _______ _______ _____ _____    ______ ____
ROOT
ATOM      1  O   UNL     1     112.404 127.121 136.446  0.00  0.00    +0.000 OA
ATOM      2  O   UNL     1     109.954 127.334 136.722  0.00  0.00    +0.000 OA
ATOM      3  O   UNL     1     109.795 125.901 136.675  0.00  0.00    +0.000 OA
ATOM      4  O   UNL     1     112.159 124.220 136.342  0.00  0.00    +0.000 OA
ATOM      5  C   UNL     1     111.244 127.938 136.609  0.00  0.00    +0.000 A 
ATOM      6  C   UNL     1     112.060 127.867 136.517  0.00  0.00    +0.000 A 
ATOM      7  C   UNL     1     110.770 127.263 136.630  0.00  0.00    +0.000 A 
ATOM      8  C   UNL     1     111.114 126.516 136.559  0.00  0.00    +0.000 A 
ATOM      9  C   UNL     1     111.931 126.445 136.467  0.00  0.00    +0.000 A 
ATOM     10  C   UNL     1     112.301 125.673 136.392  0.00  0.00    +0.000 A 
ATOM     11  C   UNL     1     110.611 125.821 136.583  0.00  0.00    +0.000 A 
ATOM     12  C   UNL     1     111.813 124.966 136.414  0.00  0.00    +0.000 A 
ATOM     13  C   UNL     1     110.963 125.039 136.510  0.00  0.00    +0.000 A 
ENDROOT
BRANCH   6  14
ATOM     14  C   UNL     1     112.534 128.543 136.495  0.00  0.00    +0.000 A 
ATOM     15  C   UNL     1     112.610 128.970 135.794  0.00  0.00    +0.000 A 
ATOM     16  C   UNL     1     112.931 128.790 137.174  0.00  0.00    +0.000 A 
ATOM     17  C   UNL     1     113.083 129.646 135.771  0.00  0.00    +0.000 A 
ATOM     18  C   UNL     1     113.405 129.465 137.153  0.00  0.00    +0.000 A 
ATOM     19  C   UNL     1     113.481 129.893 136.451  0.00  0.00    +0.000 A 
BRANCH  19  20
ATOM     20  O   UNL     1     113.954 130.568 136.429  0.00  0.00    +0.000 OA
ATOM     21  C   UNL     1     113.814 131.188 136.956  0.00  0.00    +0.000 C 
ENDBRANCH  19  20
ENDBRANCH   6  14
BRANCH   5  22
ATOM     22  O   UNL     1     110.900 128.685 136.680  0.00  0.00    +0.000 OA
BRANCH  22  29
ATOM     23  O   UNL     1     110.691 128.604 138.091  0.00  0.00    +0.000 OA
ATOM     24  O   UNL     1     108.638 129.967 137.865  0.00  0.00    +0.000 OA
ATOM     25  O   UNL     1     109.113 129.432 139.352  0.00  0.00    +0.000 OA
ATOM     26  C   UNL     1     109.769 129.326 137.273  0.00  0.00    +0.000 C 
ATOM     27  C   UNL     1     109.322 129.513 137.940  0.00  0.00    +0.000 C 
ATOM     28  C   UNL     1     109.560 129.245 138.683  0.00  0.00    +0.000 C 
ATOM     29  C   UNL     1     110.453 128.872 137.348  0.00  0.00    +0.000 C 
ATOM     30  C   UNL     1     110.244 128.791 138.758  0.00  0.00    +0.000 C 
ATOM     31  C   UNL     1     110.482 128.523 139.502  0.00  0.00    +0.000 C 
BRANCH  26  32
ATOM     32  O   UNL     1     109.531 129.594 136.529  0.00  0.00    +0.000 OA
BRANCH  32  37
ATOM     33  O   UNL     1     110.042 130.896 136.825  0.00  0.00    +0.000 OA
ATOM     34  O   UNL     1     108.838 130.179 135.151  0.00  0.00    +0.000 OA
ATOM     35  O   UNL     1     109.001 131.773 134.758  0.00  0.00    +0.000 OA
ATOM     36  O   UNL     1     109.858 132.782 135.743  0.00  0.00    +0.000 OA
ATOM     37  C   UNL     1     109.613 130.391 136.333  0.00  0.00    +0.000 C 
ATOM     38  C   UNL     1     109.267 130.684 135.644  0.00  0.00    +0.000 C 
ATOM     39  C   UNL     1     109.348 131.481 135.447  0.00  0.00    +0.000 C 
ATOM     40  C   UNL     1     109.776 131.985 135.940  0.00  0.00    +0.000 C 
ATOM     41  C   UNL     1     110.123 131.693 136.629  0.00  0.00    +0.000 C 
ENDBRANCH  32  37
ENDBRANCH  26  32
ENDBRANCH  22  29
ENDBRANCH   5  22
BRANCH  10  42
ATOM     42  C   UNL     1     113.118 125.611 136.300  0.00  0.00    +0.000 C 
BRANCH  42  43
ATOM     43  C   UNL     1     113.574 125.260 136.891  0.00  0.00    +0.000 C 
ATOM     44  C   UNL     1     114.395 125.234 136.817  0.00  0.00    +0.000 C 
ATOM     45  C   UNL     1     114.852 124.883 137.408  0.00  0.00    +0.000 C 
ATOM     46  C   UNL     1     114.761 125.559 136.152  0.00  0.00    +0.000 C 
ENDBRANCH  42  43
ENDBRANCH  10  42
TORSDOF 8
ENDMDL
MODEL 4
REMARK VINA RESULT:      -9.9      1.951      2.742
REMARK  Name = 10146160
REMARK  8 active torsions:
REMARK  status: ('A' for Active; 'I' for Inactive)
REMARK    1  A    between atoms: O_1  and  C_15
REMARK    2  A    between atoms: O_1  and  C_20
REMARK    3  A    between atoms: O_4  and  C_18
REMARK    4  A    between atoms: O_4  and  C_26
REMARK    5  A    between atoms: O_14  and  C_42
REMARK    6  A    between atoms: C_27  and  C_31
REMARK    7  A    between atoms: C_32  and  C_35
REMARK    8  A    between atoms: C_35  and  C_41
REMARK                            x       y       z     vdW  Elec       q    Type
REMARK                         _______ _______ _______ _____ _____    ______ ____
ROOT
ATOM      1  O   UNL     1     112.478 126.393 138.294  0.00  0.00    +0.000 OA
ATOM      2  O   UNL     1     110.094 127.023 138.092  0.00  0.00    +0.000 OA
ATOM      3  O   UNL     1     109.883 126.017 137.081  0.00  0.00    +0.000 OA
ATOM      4  O   UNL     1     112.128 124.340 136.258  0.00  0.00    +0.000 OA
ATOM      5  C   UNL     1     111.377 127.210 138.693  0.00  0.00    +0.000 A 
ATOM      6  C   UNL     1     112.171 127.000 138.760  0.00  0.00    +0.000 A 
ATOM      7  C   UNL     1     110.888 126.813 138.159  0.00  0.00    +0.000 A 
ATOM      8  C   UNL     1     111.195 126.206 137.693  0.00  0.00    +0.000 A 
ATOM      9  C   UNL     1     111.991 125.995 137.760  0.00  0.00    +0.000 A 
ATOM     10  C   UNL     1     112.322 125.364 137.280  0.00  0.00    +0.000 A 
ATOM     11  C   UNL     1     110.677 125.800 137.141  0.00  0.00    +0.000 A 
ATOM     12  C   UNL     1     111.818 124.947 136.723  0.00  0.00    +0.000 A 
ATOM     13  C   UNL     1     110.991 125.165 136.652  0.00  0.00    +0.000 A 
ENDROOT
BRANCH   6  14
ATOM     14  C   UNL     1     112.660 127.397 139.294  0.00  0.00    +0.000 A 
ATOM     15  C   UNL     1     112.992 128.123 139.086  0.00  0.00    +0.000 A 
ATOM     16  C   UNL     1     112.817 127.068 140.033  0.00  0.00    +0.000 A 
ATOM     17  C   UNL     1     113.480 128.521 139.619  0.00  0.00    +0.000 A 
ATOM     18  C   UNL     1     113.305 127.465 140.567  0.00  0.00    +0.000 A 
ATOM     19  C   UNL     1     113.637 128.192 140.359  0.00  0.00    +0.000 A 
BRANCH  19  20
ATOM     20  O   UNL     1     114.126 128.589 140.892  0.00  0.00    +0.000 OA
ATOM     21  C   UNL     1     114.102 129.414 140.937  0.00  0.00    +0.000 C 
ENDBRANCH  19  20
ENDBRANCH   6  14
BRANCH   5  22
ATOM     22  O   UNL     1     111.070 127.818 139.159  0.00  0.00    +0.000 OA
BRANCH  22  29
ATOM     23  O   UNL     1     110.352 126.953 140.040  0.00  0.00    +0.000 OA
ATOM     24  O   UNL     1     108.615 128.691 140.332  0.00  0.00    +0.000 OA
ATOM     25  O   UNL     1     108.476 127.246 141.117  0.00  0.00    +0.000 OA
ATOM     26  C   UNL     1     109.842 128.255 139.746  0.00  0.00    +0.000 C 
ATOM     27  C   UNL     1     109.194 128.112 140.235  0.00  0.00    +0.000 C 
ATOM     28  C   UNL     1     109.124 127.390 140.627  0.00  0.00    +0.000 C 
ATOM     29  C   UNL     1     110.421 127.675 139.649  0.00  0.00    +0.000 C 
ATOM     30  C   UNL     1     109.703 126.810 140.530  0.00  0.00    +0.000 C 
ATOM     31  C   UNL     1     109.634 126.087 140.922  0.00  0.00    +0.000 C 
BRANCH  26  32
ATOM     32  O   UNL     1     109.912 128.977 139.353  0.00  0.00    +0.000 OA
BRANCH  32  37
ATOM     33  O   UNL     1     110.330 129.598 140.571  0.00  0.00    +0.000 OA
ATOM     34  O   UNL     1     109.987 130.435 138.584  0.00  0.00    +0.000 OA
ATOM     35  O   UNL     1     110.443 131.785 139.417  0.00  0.00    +0.000 OA
ATOM     36  O   UNL     1     110.823 131.676 141.019  0.00  0.00    +0.000 OA
ATOM     37  C   UNL     1     110.140 129.652 139.770  0.00  0.00    +0.000 C 
ATOM     38  C   UNL     1     110.178 130.381 139.386  0.00  0.00    +0.000 C 
ATOM     39  C   UNL     1     110.405 131.056 139.802  0.00  0.00    +0.000 C 
ATOM     40  C   UNL     1     110.595 131.001 140.603  0.00  0.00    +0.000 C 
ATOM     41  C   UNL     1     110.558 130.273 140.988  0.00  0.00    +0.000 C 
ENDBRANCH  32  37
ENDBRANCH  26  32
ENDBRANCH  22  29
ENDBRANCH   5  22
BRANCH  10  42
ATOM     42  C   UNL     1     113.118 125.160 137.355  0.00  0.00    +0.000 C 
BRANCH  42  43
ATOM     43  C   UNL     1     113.645 125.328 136.743  0.00  0.00    +0.000 C 
ATOM     44  C   UNL     1     114.446 125.152 136.829  0.00  0.00    +0.000 C 
ATOM     45  C   UNL     1     114.974 125.319 136.217  0.00  0.00    +0.000 C 
ATOM     46  C   UNL     1     114.721 124.809 137.528  0.00  0.00    +0.000 C 
ENDBRANCH  42  43
ENDBRANCH  10  42
TORSDOF 8
ENDMDL
MODEL 5
REMARK VINA RESULT:      -9.8      1.558      5.126
REMARK  Name = 10146160
REMARK  8 active torsions:
REMARK  status: ('A' for Active; 'I' for Inactive)
REMARK    1  A    between atoms: O_1  and  C_15
REMARK    2  A    between atoms: O_1  and  C_20
REMARK    3  A    between atoms: O_4  and  C_18
REMARK    4  A    between atoms: O_4  and  C_26
REMARK    5  A    between atoms: O_14  and  C_42
REMARK    6  A    between atoms: C_27  and  C_31
REMARK    7  A    between atoms: C_32  and  C_35
REMARK    8  A    between atoms: C_35  and  C_41
REMARK                            x       y       z     vdW  Elec       q    Type
REMARK                         _______ _______ _______ _____ _____    ______ ____
ROOT
ATOM      1  O   UNL     1     111.416 129.652 137.016  0.00  0.00    +0.000 OA
ATOM      2  O   UNL     1     110.622 127.454 137.828  0.00  0.00    +0.000 OA
ATOM      3  O   UNL     1     109.512 128.074 138.510  0.00  0.00    +0.000 OA
ATOM      4  O   UNL     1     109.200 130.974 138.366  0.00  0.00    +0.000 OA
ATOM      5  C   UNL     1     111.564 128.233 137.089  0.00  0.00    +0.000 A 
ATOM      6  C   UNL     1     111.829 128.965 136.818  0.00  0.00    +0.000 A 
ATOM      7  C   UNL     1     110.886 128.186 137.558  0.00  0.00    +0.000 A 
ATOM      8  C   UNL     1     110.473 128.873 137.755  0.00  0.00    +0.000 A 
ATOM      9  C   UNL     1     110.738 129.606 137.484  0.00  0.00    +0.000 A 
ATOM     10  C   UNL     1     110.317 130.328 137.683  0.00  0.00    +0.000 A 
ATOM     11  C   UNL     1     109.770 128.811 138.243  0.00  0.00    +0.000 A 
ATOM     12  C   UNL     1     109.611 130.286 138.170  0.00  0.00    +0.000 A 
ATOM     13  C   UNL     1     109.335 129.523 138.453  0.00  0.00    +0.000 A 
ENDROOT
BRANCH   6  14
ATOM     14  C   UNL     1     112.506 129.012 136.350  0.00  0.00    +0.000 A 
ATOM     15  C   UNL     1     113.252 129.015 136.703  0.00  0.00    +0.000 A 
ATOM     16  C   UNL     1     112.439 129.057 135.529  0.00  0.00    +0.000 A 
ATOM     17  C   UNL     1     113.930 129.062 136.235  0.00  0.00    +0.000 A 
ATOM     18  C   UNL     1     113.116 129.104 135.061  0.00  0.00    +0.000 A 
ATOM     19  C   UNL     1     113.862 129.107 135.414  0.00  0.00    +0.000 A 
BRANCH  19  20
ATOM     20  O   UNL     1     114.540 129.154 134.946  0.00  0.00    +0.000 OA
ATOM     21  C   UNL     1     114.761 129.876 134.613  0.00  0.00    +0.000 C 
ENDBRANCH  19  20
ENDBRANCH   6  14
BRANCH   5  22
ATOM     22  O   UNL     1     111.977 127.547 136.892  0.00  0.00    +0.000 OA
BRANCH  22  29
ATOM     23  O   UNL     1     111.037 127.090 135.916  0.00  0.00    +0.000 OA
ATOM     24  O   UNL     1     111.526 124.746 136.545  0.00  0.00    +0.000 OA
ATOM     25  O   UNL     1     110.424 125.070 135.360  0.00  0.00    +0.000 OA
ATOM     26  C   UNL     1     111.751 126.146 136.718  0.00  0.00    +0.000 C 
ATOM     27  C   UNL     1     111.363 125.527 136.335  0.00  0.00    +0.000 C 
ATOM     28  C   UNL     1     110.812 125.689 135.744  0.00  0.00    +0.000 C 
ATOM     29  C   UNL     1     111.588 126.927 136.509  0.00  0.00    +0.000 C 
ATOM     30  C   UNL     1     110.650 126.470 135.534  0.00  0.00    +0.000 C 
ATOM     31  C   UNL     1     110.098 126.632 134.941  0.00  0.00    +0.000 C 
BRANCH  26  32
ATOM     32  O   UNL     1     112.302 125.984 137.311  0.00  0.00    +0.000 OA
BRANCH  32  37
ATOM     33  O   UNL     1     113.260 125.610 136.317  0.00  0.00    +0.000 OA
ATOM     34  O   UNL     1     113.429 125.738 138.490  0.00  0.00    +0.000 OA
ATOM     35  O   UNL     1     114.950 125.241 138.087  0.00  0.00    +0.000 OA
ATOM     36  O   UNL     1     115.344 124.989 136.505  0.00  0.00    +0.000 OA
ATOM     37  C   UNL     1     113.062 125.736 137.109  0.00  0.00    +0.000 C 
ATOM     38  C   UNL     1     113.626 125.612 137.698  0.00  0.00    +0.000 C 
ATOM     39  C   UNL     1     114.387 125.364 137.497  0.00  0.00    +0.000 C 
ATOM     40  C   UNL     1     114.583 125.238 136.706  0.00  0.00    +0.000 C 
ATOM     41  C   UNL     1     114.020 125.361 136.116  0.00  0.00    +0.000 C 
ENDBRANCH  32  37
ENDBRANCH  26  32
ENDBRANCH  22  29
ENDBRANCH   5  22
BRANCH  10  42
ATOM     42  C   UNL     1     110.589 131.056 137.407  0.00  0.00    +0.000 C 
BRANCH  42  43
ATOM     43  C   UNL     1     110.123 131.504 136.895  0.00  0.00    +0.000 C 
ATOM     44  C   UNL     1     110.393 132.234 136.623  0.00  0.00    +0.000 C 
ATOM     45  C   UNL     1     109.927 132.682 136.111  0.00  0.00    +0.000 C 
ATOM     46  C   UNL     1     111.131 132.517 136.862  0.00  0.00    +0.000 C 
ENDBRANCH  42  43
ENDBRANCH  10  42
TORSDOF 8
ENDMDL
MODEL 6
REMARK VINA RESULT:      -9.8      2.004      2.749
REMARK  Name = 10146160
REMARK  8 active torsions:
REMARK  status: ('A' for Active; 'I' for Inactive)
REMARK    1  A    between atoms: O_1  and  C_15
REMARK    2  A    between atoms: O_1  and  C_20
REMARK    3  A    between atoms: O_4  and  C_18
REMARK    4  A    between atoms: O_4  and  C_26
REMARK    5  A    between atoms: O_14  and  C_42
REMARK    6  A    between atoms: C_27  and  C_31
REMARK    7  A    between atoms: C_32  and  C_35
REMARK    8  A    between atoms: C_35  and  C_41
REMARK                            x       y       z     vdW  Elec       q    Type
REMARK                         _______ _______ _______ _____ _____    ______ ____
ROOT
ATOM      1  O   UNL     1     111.298 126.410 137.777  0.00  0.00    +0.000 OA
ATOM      2  O   UNL     1     109.130 127.603 137.828  0.00  0.00    +0.000 OA
ATOM      3  O   UNL     1     108.770 127.064 136.539  0.00  0.00    +0.000 OA
ATOM      4  O   UNL     1     110.639 125.284 135.173  0.00  0.00    +0.000 OA
ATOM      5  C   UNL     1     110.380 127.280 138.441  0.00  0.00    +0.000 A 
ATOM      6  C   UNL     1     111.102 126.883 138.424  0.00  0.00    +0.000 A 
ATOM      7  C   UNL     1     109.852 127.206 137.811  0.00  0.00    +0.000 A 
ATOM      8  C   UNL     1     110.048 126.733 137.164  0.00  0.00    +0.000 A 
ATOM      9  C   UNL     1     110.771 126.335 137.146  0.00  0.00    +0.000 A 
ATOM     10  C   UNL     1     110.986 125.840 136.478  0.00  0.00    +0.000 A 
ATOM     11  C   UNL     1     109.491 126.663 136.514  0.00  0.00    +0.000 A 
ATOM     12  C   UNL     1     110.441 125.758 135.819  0.00  0.00    +0.000 A 
ATOM     13  C   UNL     1     109.689 126.172 135.836  0.00  0.00    +0.000 A 
ENDROOT
BRANCH   6  14
ATOM     14  C   UNL     1     111.630 126.958 139.054  0.00  0.00    +0.000 A 
ATOM     15  C   UNL     1     111.535 126.492 139.728  0.00  0.00    +0.000 A 
ATOM     16  C   UNL     1     112.251 127.497 139.010  0.00  0.00    +0.000 A 
ATOM     17  C   UNL     1     112.062 126.565 140.359  0.00  0.00    +0.000 A 
ATOM     18  C   UNL     1     112.779 127.572 139.641  0.00  0.00    +0.000 A 
ATOM     19  C   UNL     1     112.684 127.106 140.315  0.00  0.00    +0.000 A 
BRANCH  19  20
ATOM     20  O   UNL     1     113.211 127.180 140.945  0.00  0.00    +0.000 OA
ATOM     21  C   UNL     1     114.024 127.191 140.803  0.00  0.00    +0.000 C 
ENDBRANCH  19  20
ENDBRANCH   6  14
BRANCH   5  22
ATOM     22  O   UNL     1     110.185 127.753 139.088  0.00  0.00    +0.000 OA
BRANCH  22  29
ATOM     23  O   UNL     1     110.405 129.000 138.425  0.00  0.00    +0.000 OA
ATOM     24  O   UNL     1     108.571 130.021 139.737  0.00  0.00    +0.000 OA
ATOM     25  O   UNL     1     109.402 130.927 138.637  0.00  0.00    +0.000 OA
ATOM     26  C   UNL     1     109.377 128.888 139.413  0.00  0.00    +0.000 C 
ATOM     27  C   UNL     1     109.182 129.681 139.300  0.00  0.00    +0.000 C 
ATOM     28  C   UNL     1     109.597 130.133 138.750  0.00  0.00    +0.000 C 
ATOM     29  C   UNL     1     109.989 128.547 138.975  0.00  0.00    +0.000 C 
ATOM     30  C   UNL     1     110.209 129.793 138.313  0.00  0.00    +0.000 C 
ATOM     31  C   UNL     1     110.625 130.246 137.762  0.00  0.00    +0.000 C 
BRANCH  26  32
ATOM     32  O   UNL     1     108.962 128.434 139.963  0.00  0.00    +0.000 OA
BRANCH  32  37
ATOM     33  O   UNL     1     109.727 129.017 141.020  0.00  0.00    +0.000 OA
ATOM     34  O   UNL     1     108.141 127.518 141.062  0.00  0.00    +0.000 OA
ATOM     35  O   UNL     1     108.495 127.643 142.669  0.00  0.00    +0.000 OA
ATOM     36  O   UNL     1     109.670 128.684 143.176  0.00  0.00    +0.000 OA
ATOM     37  C   UNL     1     109.139 128.496 140.766  0.00  0.00    +0.000 C 
ATOM     38  C   UNL     1     108.729 128.039 141.316  0.00  0.00    +0.000 C 
ATOM     39  C   UNL     1     108.906 128.101 142.119  0.00  0.00    +0.000 C 
ATOM     40  C   UNL     1     109.493 128.621 142.373  0.00  0.00    +0.000 C 
ATOM     41  C   UNL     1     109.904 129.080 141.823  0.00  0.00    +0.000 C 
ENDBRANCH  32  37
ENDBRANCH  26  32
ENDBRANCH  22  29
ENDBRANCH   5  22
BRANCH  10  42
ATOM     42  C   UNL     1     111.711 125.446 136.470  0.00  0.00    +0.000 C 
BRANCH  42  43
ATOM     43  C   UNL     1     111.739 124.631 136.598  0.00  0.00    +0.000 C 
ATOM     44  C   UNL     1     112.467 124.245 136.634  0.00  0.00    +0.000 C 
ATOM     45  C   UNL     1     112.496 123.430 136.763  0.00  0.00    +0.000 C 
ATOM     46  C   UNL     1     113.167 124.673 136.542  0.00  0.00    +0.000 C 
ENDBRANCH  42  43
ENDBRANCH  10  42
TORSDOF 8
ENDMDL
MODEL 7
REMARK VINA RESULT:      -9.7      1.895      2.436
REMARK  Name = 10146160
REMARK  8 active torsions:
REMARK  status: ('A' for Active; 'I' for Inactive)
REMARK    1  A    between atoms: O_1  and  C_15
REMARK    2  A    between atoms: O_1  and  C_20
REMARK    3  A    between atoms: O_4  and  C_18
REMARK    4  A    between atoms: O_4  and  C_26
REMARK    5  A    between atoms: O_14  and  C_42
REMARK    6  A    between atoms: C_27  and  C_31
REMARK    7  A    between atoms: C_32  and  C_35
REMARK    8  A    between atoms: C_35  and  C_41
REMARK                            x       y       z     vdW  Elec       q    Type
REMARK                         _______ _______ _______ _____ _____    ______ ____
ROOT
ATOM      1  O   UNL     1     112.573 126.172 138.251  0.00  0.00    +0.000 OA
ATOM      2  O   UNL     1     110.160 126.702 138.112  0.00  0.00    +0.000 OA
ATOM      3  O   UNL     1     109.978 125.733 137.059  0.00  0.00    +0.000 OA
ATOM      4  O   UNL     1     112.282 124.198 136.130  0.00  0.00    +0.000 OA
ATOM      5  C   UNL     1     111.443 126.920 138.702  0.00  0.00    +0.000 A 
ATOM      6  C   UNL     1     112.247 126.743 138.749  0.00  0.00    +0.000 A 
ATOM      7  C   UNL     1     110.964 126.525 138.158  0.00  0.00    +0.000 A 
ATOM      8  C   UNL     1     111.290 125.954 137.661  0.00  0.00    +0.000 A 
ATOM      9  C   UNL     1     112.095 125.777 137.707  0.00  0.00    +0.000 A 
ATOM     10  C   UNL     1     112.446 125.183 137.195  0.00  0.00    +0.000 A 
ATOM     11  C   UNL     1     110.782 125.550 137.099  0.00  0.00    +0.000 A 
ATOM     12  C   UNL     1     111.953 124.769 136.626  0.00  0.00    +0.000 A 
ATOM     13  C   UNL     1     111.115 124.953 136.577  0.00  0.00    +0.000 A 
ENDROOT
BRANCH   6  14
ATOM     14  C   UNL     1     112.726 127.138 139.293  0.00  0.00    +0.000 A 
ATOM     15  C   UNL     1     112.780 126.864 140.069  0.00  0.00    +0.000 A 
ATOM     16  C   UNL     1     113.151 127.805 139.061  0.00  0.00    +0.000 A 
ATOM     17  C   UNL     1     113.259 127.257 140.614  0.00  0.00    +0.000 A 
ATOM     18  C   UNL     1     113.630 128.199 139.605  0.00  0.00    +0.000 A 
ATOM     19  C   UNL     1     113.684 127.925 140.381  0.00  0.00    +0.000 A 
BRANCH  19  20
ATOM     20  O   UNL     1     114.163 128.319 140.926  0.00  0.00    +0.000 OA
ATOM     21  C   UNL     1     114.160 129.144 140.956  0.00  0.00    +0.000 C 
ENDBRANCH  19  20
ENDBRANCH   6  14
BRANCH   5  22
ATOM     22  O   UNL     1     111.117 127.492 139.200  0.00  0.00    +0.000 OA
BRANCH  22  29
ATOM     23  O   UNL     1     110.986 128.490 138.186  0.00  0.00    +0.000 OA
ATOM     24  O   UNL     1     108.957 129.360 139.305  0.00  0.00    +0.000 OA
ATOM     25  O   UNL     1     109.502 130.068 137.918  0.00  0.00    +0.000 OA
ATOM     26  C   UNL     1     110.037 128.426 139.252  0.00  0.00    +0.000 C 
ATOM     27  C   UNL     1     109.634 129.070 138.932  0.00  0.00    +0.000 C 
ATOM     28  C   UNL     1     109.906 129.424 138.239  0.00  0.00    +0.000 C 
ATOM     29  C   UNL     1     110.713 128.136 138.879  0.00  0.00    +0.000 C 
ATOM     30  C   UNL     1     110.582 129.134 137.866  0.00  0.00    +0.000 C 
ATOM     31  C   UNL     1     110.855 129.488 137.171  0.00  0.00    +0.000 C 
BRANCH  26  32
ATOM     32  O   UNL     1     109.765 128.072 139.946  0.00  0.00    +0.000 OA
BRANCH  32  37
ATOM     33  O   UNL     1     110.333 129.137 140.712  0.00  0.00    +0.000 OA
ATOM     34  O   UNL     1     109.247 127.349 141.336  0.00  0.00    +0.000 OA
ATOM     35  O   UNL     1     109.556 128.052 142.796  0.00  0.00    +0.000 OA
ATOM     36  O   UNL     1     110.382 129.479 142.867  0.00  0.00    +0.000 OA
ATOM     37  C   UNL     1     109.919 128.424 140.676  0.00  0.00    +0.000 C 
ATOM     38  C   UNL     1     109.661 128.063 141.371  0.00  0.00    +0.000 C 
ATOM     39  C   UNL     1     109.815 128.414 142.101  0.00  0.00    +0.000 C 
ATOM     40  C   UNL     1     110.228 129.127 142.136  0.00  0.00    +0.000 C 
ATOM     41  C   UNL     1     110.487 129.489 141.442  0.00  0.00    +0.000 C 
ENDBRANCH  32  37
ENDBRANCH  26  32
ENDBRANCH  22  29
ENDBRANCH   5  22
BRANCH  10  42
ATOM     42  C   UNL     1     113.252 125.013 137.248  0.00  0.00    +0.000 C 
BRANCH  42  43
ATOM     43  C   UNL     1     113.761 125.232 136.637  0.00  0.00    +0.000 C 
ATOM     44  C   UNL     1     114.572 125.101 136.710  0.00  0.00    +0.000 C 
ATOM     45  C   UNL     1     115.082 125.319 136.099  0.00  0.00    +0.000 C 
ATOM     46  C   UNL     1     114.874 124.751 137.393  0.00  0.00    +0.000 C 
ENDBRANCH  42  43
ENDBRANCH  10  42
TORSDOF 8
ENDMDL
MODEL 8
REMARK VINA RESULT:      -9.6      1.850      2.752
REMARK  Name = 10146160
REMARK  8 active torsions:
REMARK  status: ('A' for Active; 'I' for Inactive)
REMARK    1  A    between atoms: O_1  and  C_15
REMARK    2  A    between atoms: O_1  and  C_20
REMARK    3  A    between atoms: O_4  and  C_18
REMARK    4  A    between atoms: O_4  and  C_26
REMARK    5  A    between atoms: O_14  and  C_42
REMARK    6  A    between atoms: C_27  and  C_31
REMARK    7  A    between atoms: C_32  and  C_35
REMARK    8  A    between atoms: C_35  and  C_41
REMARK                            x       y       z     vdW  Elec       q    Type
REMARK                         _______ _______ _______ _____ _____    ______ ____
ROOT
ATOM      1  O   UNL     1     111.656 126.415 137.758  0.00  0.00    +0.000 OA
ATOM      2  O   UNL     1     110.699 128.626 137.195  0.00  0.00    +0.000 OA
ATOM      3  O   UNL     1     110.045 128.079 136.032  0.00  0.00    +0.000 OA
ATOM      4  O   UNL     1     110.364 125.240 135.427  0.00  0.00    +0.000 OA
ATOM      5  C   UNL     1     111.496 127.804 138.049  0.00  0.00    +0.000 A 
ATOM      6  C   UNL     1     111.815 127.067 138.237  0.00  0.00    +0.000 A 
ATOM      7  C   UNL     1     111.018 127.889 137.383  0.00  0.00    +0.000 A 
ATOM      8  C   UNL     1     110.858 127.237 136.903  0.00  0.00    +0.000 A 
ATOM      9  C   UNL     1     111.178 126.499 137.091  0.00  0.00    +0.000 A 
ATOM     10  C   UNL     1     111.019 125.812 136.600  0.00  0.00    +0.000 A 
ATOM     11  C   UNL     1     110.359 127.338 136.212  0.00  0.00    +0.000 A 
ATOM     12  C   UNL     1     110.522 125.894 135.904  0.00  0.00    +0.000 A 
ATOM     13  C   UNL     1     110.189 126.662 135.708  0.00  0.00    +0.000 A 
ENDROOT
BRANCH   6  14
ATOM     14  C   UNL     1     112.293 126.981 138.904  0.00  0.00    +0.000 A 
ATOM     15  C   UNL     1     111.950 126.863 139.645  0.00  0.00    +0.000 A 
ATOM     16  C   UNL     1     113.114 127.014 138.831  0.00  0.00    +0.000 A 
ATOM     17  C   UNL     1     112.427 126.778 140.312  0.00  0.00    +0.000 A 
ATOM     18  C   UNL     1     113.592 126.928 139.498  0.00  0.00    +0.000 A 
ATOM     19  C   UNL     1     113.249 126.810 140.239  0.00  0.00    +0.000 A 
BRANCH  19  20
ATOM     20  O   UNL     1     113.726 126.725 140.906  0.00  0.00    +0.000 OA
ATOM     21  C   UNL     1     114.406 127.185 140.988  0.00  0.00    +0.000 C 
ENDBRANCH  19  20
ENDBRANCH   6  14
BRANCH   5  22
ATOM     22  O   UNL     1     111.655 128.456 138.529  0.00  0.00    +0.000 OA
BRANCH  22  29
ATOM     23  O   UNL     1     112.579 129.055 137.618  0.00  0.00    +0.000 OA
ATOM     24  O   UNL     1     111.902 131.301 138.409  0.00  0.00    +0.000 OA
ATOM     25  O   UNL     1     113.052 131.152 137.235  0.00  0.00    +0.000 OA
ATOM     26  C   UNL     1     111.779 129.879 138.469  0.00  0.00    +0.000 C 
ATOM     27  C   UNL     1     112.128 130.552 138.145  0.00  0.00    +0.000 C 
ATOM     28  C   UNL     1     112.702 130.478 137.559  0.00  0.00    +0.000 C 
ATOM     29  C   UNL     1     112.005 129.131 138.205  0.00  0.00    +0.000 C 
ATOM     30  C   UNL     1     112.928 129.730 137.295  0.00  0.00    +0.000 C 
ATOM     31  C   UNL     1     113.504 129.655 136.708  0.00  0.00    +0.000 C 
BRANCH  26  32
ATOM     32  O   UNL     1     111.204 129.953 139.056  0.00  0.00    +0.000 OA
BRANCH  32  37
ATOM     33  O   UNL     1     112.226 130.196 140.025  0.00  0.00    +0.000 OA
ATOM     34  O   UNL     1     110.054 130.105 140.230  0.00  0.00    +0.000 OA
ATOM     35  O   UNL     1     110.501 130.424 141.786  0.00  0.00    +0.000 OA
ATOM     36  O   UNL     1     112.098 130.591 142.167  0.00  0.00    +0.000 OA
ATOM     37  C   UNL     1     111.427 130.113 139.834  0.00  0.00    +0.000 C 
ATOM     38  C   UNL     1     110.853 130.188 140.421  0.00  0.00    +0.000 C 
ATOM     39  C   UNL     1     111.077 130.348 141.199  0.00  0.00    +0.000 C 
ATOM     40  C   UNL     1     111.874 130.432 141.390  0.00  0.00    +0.000 C 
ATOM     41  C   UNL     1     112.450 130.356 140.803  0.00  0.00    +0.000 C 
ENDBRANCH  32  37
ENDBRANCH  26  32
ENDBRANCH  22  29
ENDBRANCH   5  22
BRANCH  10  42
ATOM     42  C   UNL     1     111.342 125.079 136.795  0.00  0.00    +0.000 C 
BRANCH  42  43
ATOM     43  C   UNL     1     112.019 124.809 136.408  0.00  0.00    +0.000 C 
ATOM     44  C   UNL     1     112.354 124.085 136.617  0.00  0.00    +0.000 C 
ATOM     45  C   UNL     1     113.031 123.816 136.230  0.00  0.00    +0.000 C 
ATOM     46  C   UNL     1     112.011 123.629 137.214  0.00  0.00    +0.000 C 
ENDBRANCH  42  43
ENDBRANCH  10  42
TORSDOF 8
ENDMDL
