MODEL 1
REMARK VINA RESULT:      -9.9      0.000      0.000
REMARK  Name = 131833088
REMARK  3 active torsions:
REMARK  status: ('A' for Active; 'I' for Inactive)
REMARK    1  A    between atoms: C_12  and  C_17
REMARK    2  A    between atoms: C_16  and  C_23
REMARK    3  A    between atoms: C_22  and  C_27
REMARK                            x       y       z     vdW  Elec       q    Type
REMARK                         _______ _______ _______ _____ _____    ______ ____
ROOT
ATOM      1  O   UNL     1     105.213 125.096 147.650  0.00  0.00    +0.000 OA
ATOM      2  O   UNL     1     104.367 124.416 149.609  0.00  0.00    +0.000 OA
ATOM      3  O   UNL     1     107.954 125.371 146.806  0.00  0.00    +0.000 OA
ATOM      4  O   UNL     1     107.384 124.450 149.452  0.00  0.00    +0.000 OA
ATOM      5  O   UNL     1     108.477 124.851 148.282  0.00  0.00    +0.000 OA
ATOM      6  C   UNL     1     106.599 125.230 147.237  0.00  0.00    +0.000 A 
ATOM      7  C   UNL     1     106.052 125.030 147.822  0.00  0.00    +0.000 A 
ATOM      8  C   UNL     1     106.314 124.769 148.560  0.00  0.00    +0.000 A 
ATOM      9  C   UNL     1     104.911 124.618 149.022  0.00  0.00    +0.000 C 
ATOM     10  C   UNL     1     105.754 124.558 149.176  0.00  0.00    +0.000 C 
ATOM     11  C   UNL     1     104.639 124.888 148.254  0.00  0.00    +0.000 C 
ATOM     12  C   UNL     1     107.407 125.171 147.391  0.00  0.00    +0.000 A 
ATOM     13  C   UNL     1     107.122 124.710 148.713  0.00  0.00    +0.000 A 
ATOM     14  C   UNL     1     107.668 124.910 148.129  0.00  0.00    +0.000 A 
ENDROOT
BRANCH   6  19
ATOM     15  O   UNL     1     106.129 124.943 145.919  0.00  0.00    +0.000 OA
ATOM     16  O   UNL     1     106.492 126.846 146.923  0.00  0.00    +0.000 OA
ATOM     17  O   UNL     1     105.969 127.366 145.447  0.00  0.00    +0.000 OA
ATOM     18  O   UNL     1     105.552 126.271 144.285  0.00  0.00    +0.000 OA
ATOM     19  C   UNL     1     106.337 125.490 146.500  0.00  0.00    +0.000 C 
ATOM     20  C   UNL     1     106.284 126.298 146.342  0.00  0.00    +0.000 C 
ATOM     21  C   UNL     1     106.022 126.558 145.604  0.00  0.00    +0.000 C 
ATOM     22  C   UNL     1     105.814 126.010 145.024  0.00  0.00    +0.000 C 
ATOM     23  C   UNL     1     105.868 125.203 145.181  0.00  0.00    +0.000 C 
BRANCH  23  25
ATOM     24  O   UNL     1     106.058 123.932 144.555  0.00  0.00    +0.000 OA
ATOM     25  C   UNL     1     105.660 124.654 144.601  0.00  0.00    +0.000 C 
ENDBRANCH  23  25
ENDBRANCH   6  19
BRANCH  11  27
ATOM     26  O   UNL     1     102.226 123.757 147.220  0.00  0.00    +0.000 OA
ATOM     27  C   UNL     1     103.831 124.949 148.098  0.00  0.00    +0.000 A 
ATOM     28  C   UNL     1     103.433 124.323 147.737  0.00  0.00    +0.000 A 
ATOM     29  C   UNL     1     103.421 125.635 148.302  0.00  0.00    +0.000 A 
ATOM     30  C   UNL     1     102.624 124.383 147.580  0.00  0.00    +0.000 A 
ATOM     31  C   UNL     1     102.613 125.695 148.145  0.00  0.00    +0.000 A 
ATOM     32  C   UNL     1     102.215 125.069 147.785  0.00  0.00    +0.000 A 
ENDBRANCH  11  27
TORSDOF 3
ENDMDL
MODEL 2
REMARK VINA RESULT:      -9.7     11.847     13.801
REMARK  Name = 131833088
REMARK  3 active torsions:
REMARK  status: ('A' for Active; 'I' for Inactive)
REMARK    1  A    between atoms: C_12  and  C_17
REMARK    2  A    between atoms: C_16  and  C_23
REMARK    3  A    between atoms: C_22  and  C_27
REMARK                            x       y       z     vdW  Elec       q    Type
REMARK                         _______ _______ _______ _____ _____    ______ ____
ROOT
ATOM      1  O   UNL     1     112.522 127.563 136.028  0.00  0.00    +0.000 OA
ATOM      2  O   UNL     1     111.847 129.251 134.720  0.00  0.00    +0.000 OA
ATOM      3  O   UNL     1     111.380 124.946 136.419  0.00  0.00    +0.000 OA
ATOM      4  O   UNL     1     110.125 126.771 134.612  0.00  0.00    +0.000 OA
ATOM      5  O   UNL     1     110.173 125.296 135.350  0.00  0.00    +0.000 OA
ATOM      6  C   UNL     1     111.936 126.247 136.216  0.00  0.00    +0.000 A 
ATOM      7  C   UNL     1     111.912 126.984 135.847  0.00  0.00    +0.000 A 
ATOM      8  C   UNL     1     111.308 127.159 135.313  0.00  0.00    +0.000 A 
ATOM      9  C   UNL     1     111.874 128.514 135.091  0.00  0.00    +0.000 C 
ATOM     10  C   UNL     1     111.273 127.924 134.922  0.00  0.00    +0.000 C 
ATOM     11  C   UNL     1     112.502 128.332 135.647  0.00  0.00    +0.000 C 
ATOM     12  C   UNL     1     111.356 125.684 136.050  0.00  0.00    +0.000 A 
ATOM     13  C   UNL     1     110.729 126.596 135.147  0.00  0.00    +0.000 A 
ATOM     14  C   UNL     1     110.753 125.859 135.515  0.00  0.00    +0.000 A 
ENDROOT
BRANCH   6  19
ATOM     15  O   UNL     1     113.269 125.803 136.475  0.00  0.00    +0.000 OA
ATOM     16  O   UNL     1     111.684 126.436 137.835  0.00  0.00    +0.000 OA
ATOM     17  O   UNL     1     112.891 126.087 138.904  0.00  0.00    +0.000 OA
ATOM     18  O   UNL     1     114.351 125.548 138.354  0.00  0.00    +0.000 OA
ATOM     19  C   UNL     1     112.539 126.072 136.750  0.00  0.00    +0.000 C 
ATOM     20  C   UNL     1     112.414 126.167 137.560  0.00  0.00    +0.000 C 
ATOM     21  C   UNL     1     113.018 125.992 138.094  0.00  0.00    +0.000 C 
ATOM     22  C   UNL     1     113.747 125.723 137.819  0.00  0.00    +0.000 C 
ATOM     23  C   UNL     1     113.873 125.628 137.010  0.00  0.00    +0.000 C 
BRANCH  23  25
ATOM     24  O   UNL     1     114.652 124.981 136.001  0.00  0.00    +0.000 OA
ATOM     25  C   UNL     1     114.602 125.359 136.733  0.00  0.00    +0.000 C 
ENDBRANCH  23  25
ENDBRANCH   6  19
BRANCH  11  27
ATOM     26  O   UNL     1     113.472 130.486 137.257  0.00  0.00    +0.000 OA
ATOM     27  C   UNL     1     113.083 128.893 135.815  0.00  0.00    +0.000 A 
ATOM     28  C   UNL     1     112.987 129.409 136.452  0.00  0.00    +0.000 A 
ATOM     29  C   UNL     1     113.760 128.939 135.346  0.00  0.00    +0.000 A 
ATOM     30  C   UNL     1     113.568 129.971 136.620  0.00  0.00    +0.000 A 
ATOM     31  C   UNL     1     114.342 129.501 135.514  0.00  0.00    +0.000 A 
ATOM     32  C   UNL     1     114.245 130.016 136.151  0.00  0.00    +0.000 A 
ENDBRANCH  11  27
TORSDOF 3
ENDMDL
MODEL 3
REMARK VINA RESULT:      -9.6     11.970     12.964
REMARK  Name = 131833088
REMARK  3 active torsions:
REMARK  status: ('A' for Active; 'I' for Inactive)
REMARK    1  A    between atoms: C_12  and  C_17
REMARK    2  A    between atoms: C_16  and  C_23
REMARK    3  A    between atoms: C_22  and  C_27
REMARK                            x       y       z     vdW  Elec       q    Type
REMARK                         _______ _______ _______ _____ _____    ______ ____
ROOT
ATOM      1  O   UNL     1     111.887 126.360 136.302  0.00  0.00    +0.000 OA
ATOM      2  O   UNL     1     110.493 124.851 135.409  0.00  0.00    +0.000 OA
ATOM      3  O   UNL     1     114.434 125.996 137.598  0.00  0.00    +0.000 OA
ATOM      4  O   UNL     1     113.021 123.715 136.612  0.00  0.00    +0.000 OA
ATOM      5  O   UNL     1     114.335 124.365 137.370  0.00  0.00    +0.000 OA
ATOM      6  C   UNL     1     113.170 126.163 136.953  0.00  0.00    +0.000 A 
ATOM      7  C   UNL     1     112.514 125.838 136.574  0.00  0.00    +0.000 A 
ATOM      8  C   UNL     1     112.464 125.022 136.460  0.00  0.00    +0.000 A 
ATOM      9  C   UNL     1     111.149 125.179 135.788  0.00  0.00    +0.000 C 
ATOM     10  C   UNL     1     111.784 124.673 136.067  0.00  0.00    +0.000 C 
ATOM     11  C   UNL     1     111.201 126.028 135.906  0.00  0.00    +0.000 C 
ATOM     12  C   UNL     1     113.777 125.671 137.218  0.00  0.00    +0.000 A 
ATOM     13  C   UNL     1     113.071 124.532 136.726  0.00  0.00    +0.000 A 
ATOM     14  C   UNL     1     113.727 124.856 137.104  0.00  0.00    +0.000 A 
ENDROOT
BRANCH   6  19
ATOM     15  O   UNL     1     113.492 127.464 136.458  0.00  0.00    +0.000 OA
ATOM     16  O   UNL     1     112.724 126.822 138.398  0.00  0.00    +0.000 OA
ATOM     17  O   UNL     1     112.823 128.453 138.625  0.00  0.00    +0.000 OA
ATOM     18  O   UNL     1     113.369 129.425 137.408  0.00  0.00    +0.000 OA
ATOM     19  C   UNL     1     113.220 126.978 137.067  0.00  0.00    +0.000 C 
ATOM     20  C   UNL     1     112.997 127.308 137.789  0.00  0.00    +0.000 C 
ATOM     21  C   UNL     1     113.046 128.124 137.902  0.00  0.00    +0.000 C 
ATOM     22  C   UNL     1     113.319 128.609 137.294  0.00  0.00    +0.000 C 
ATOM     23  C   UNL     1     113.542 128.279 136.572  0.00  0.00    +0.000 C 
BRANCH  23  25
ATOM     24  O   UNL     1     114.417 128.500 135.463  0.00  0.00    +0.000 OA
ATOM     25  C   UNL     1     113.815 128.764 135.963  0.00  0.00    +0.000 C 
ENDBRANCH  23  25
ENDBRANCH   6  19
BRANCH  11  27
ATOM     26  O   UNL     1     108.732 127.389 136.380  0.00  0.00    +0.000 OA
ATOM     27  C   UNL     1     110.595 126.522 135.642  0.00  0.00    +0.000 A 
ATOM     28  C   UNL     1     109.967 126.708 136.143  0.00  0.00    +0.000 A 
ATOM     29  C   UNL     1     110.616 126.829 134.877  0.00  0.00    +0.000 A 
ATOM     30  C   UNL     1     109.360 127.202 135.879  0.00  0.00    +0.000 A 
ATOM     31  C   UNL     1     110.010 127.322 134.612  0.00  0.00    +0.000 A 
ATOM     32  C   UNL     1     109.382 127.509 135.113  0.00  0.00    +0.000 A 
ENDBRANCH  11  27
TORSDOF 3
ENDMDL
MODEL 4
REMARK VINA RESULT:      -9.6     12.344     13.517
REMARK  Name = 131833088
REMARK  3 active torsions:
REMARK  status: ('A' for Active; 'I' for Inactive)
REMARK    1  A    between atoms: C_12  and  C_17
REMARK    2  A    between atoms: C_16  and  C_23
REMARK    3  A    between atoms: C_22  and  C_27
REMARK                            x       y       z     vdW  Elec       q    Type
REMARK                         _______ _______ _______ _____ _____    ______ ____
ROOT
ATOM      1  O   UNL     1     112.284 126.474 136.353  0.00  0.00    +0.000 OA
ATOM      2  O   UNL     1     112.210 124.237 136.251  0.00  0.00    +0.000 OA
ATOM      3  O   UNL     1     110.336 128.434 135.538  0.00  0.00    +0.000 OA
ATOM      4  O   UNL     1     109.761 125.655 135.193  0.00  0.00    +0.000 OA
ATOM      5  O   UNL     1     109.315 127.237 135.041  0.00  0.00    +0.000 OA
ATOM      6  C   UNL     1     111.294 127.452 135.938  0.00  0.00    +0.000 A 
ATOM      7  C   UNL     1     111.516 126.661 136.014  0.00  0.00    +0.000 A 
ATOM      8  C   UNL     1     111.006 126.063 135.766  0.00  0.00    +0.000 A 
ATOM      9  C   UNL     1     111.990 125.029 136.177  0.00  0.00    +0.000 C 
ATOM     10  C   UNL     1     111.227 125.235 135.840  0.00  0.00    +0.000 C 
ATOM     11  C   UNL     1     112.522 125.652 136.435  0.00  0.00    +0.000 C 
ATOM     12  C   UNL     1     110.560 127.643 135.614  0.00  0.00    +0.000 A 
ATOM     13  C   UNL     1     110.272 126.255 135.442  0.00  0.00    +0.000 A 
ATOM     14  C   UNL     1     110.049 127.044 135.366  0.00  0.00    +0.000 A 
ENDROOT
BRANCH   6  19
ATOM     15  O   UNL     1     112.402 128.316 135.685  0.00  0.00    +0.000 OA
ATOM     16  O   UNL     1     111.117 128.117 137.437  0.00  0.00    +0.000 OA
ATOM     17  O   UNL     1     112.138 129.314 137.933  0.00  0.00    +0.000 OA
ATOM     18  O   UNL     1     113.336 129.846 136.931  0.00  0.00    +0.000 OA
ATOM     19  C   UNL     1     111.804 128.050 136.186  0.00  0.00    +0.000 C 
ATOM     20  C   UNL     1     111.716 128.383 136.935  0.00  0.00    +0.000 C 
ATOM     21  C   UNL     1     112.227 128.982 137.183  0.00  0.00    +0.000 C 
ATOM     22  C   UNL     1     112.825 129.247 136.682  0.00  0.00    +0.000 C 
ATOM     23  C   UNL     1     112.913 128.914 135.933  0.00  0.00    +0.000 C 
BRANCH  23  25
ATOM     24  O   UNL     1     113.388 129.197 134.614  0.00  0.00    +0.000 OA
ATOM     25  C   UNL     1     113.512 129.180 135.431  0.00  0.00    +0.000 C 
ENDBRANCH  23  25
ENDBRANCH   6  19
BRANCH  11  27
ATOM     26  O   UNL     1     115.313 125.132 136.106  0.00  0.00    +0.000 OA
ATOM     27  C   UNL     1     113.256 125.463 136.759  0.00  0.00    +0.000 A 
ATOM     28  C   UNL     1     113.917 125.392 136.271  0.00  0.00    +0.000 A 
ATOM     29  C   UNL     1     113.331 125.345 137.572  0.00  0.00    +0.000 A 
ATOM     30  C   UNL     1     114.652 125.203 136.595  0.00  0.00    +0.000 A 
ATOM     31  C   UNL     1     114.065 125.156 137.897  0.00  0.00    +0.000 A 
ATOM     32  C   UNL     1     114.726 125.085 137.408  0.00  0.00    +0.000 A 
ENDBRANCH  11  27
TORSDOF 3
ENDMDL
MODEL 5
REMARK VINA RESULT:      -9.5      1.618      3.158
REMARK  Name = 131833088
REMARK  3 active torsions:
REMARK  status: ('A' for Active; 'I' for Inactive)
REMARK    1  A    between atoms: C_12  and  C_17
REMARK    2  A    between atoms: C_16  and  C_23
REMARK    3  A    between atoms: C_22  and  C_27
REMARK                            x       y       z     vdW  Elec       q    Type
REMARK                         _______ _______ _______ _____ _____    ______ ____
ROOT
ATOM      1  O   UNL     1     104.149 125.719 147.185  0.00  0.00    +0.000 OA
ATOM      2  O   UNL     1     102.517 126.008 148.692  0.00  0.00    +0.000 OA
ATOM      3  O   UNL     1     104.622 123.545 145.354  0.00  0.00    +0.000 OA
ATOM      4  O   UNL     1     102.363 123.442 147.104  0.00  0.00    +0.000 OA
ATOM      5  O   UNL     1     103.280 122.762 145.912  0.00  0.00    +0.000 OA
ATOM      6  C   UNL     1     104.376 124.616 146.267  0.00  0.00    +0.000 A 
ATOM      7  C   UNL     1     103.918 124.956 146.863  0.00  0.00    +0.000 A 
ATOM      8  C   UNL     1     103.247 124.565 147.142  0.00  0.00    +0.000 A 
ATOM      9  C   UNL     1     102.978 125.670 148.096  0.00  0.00    +0.000 C 
ATOM     10  C   UNL     1     102.762 124.909 147.762  0.00  0.00    +0.000 C 
ATOM     11  C   UNL     1     103.676 126.078 147.805  0.00  0.00    +0.000 C 
ATOM     12  C   UNL     1     104.163 123.885 145.951  0.00  0.00    +0.000 A 
ATOM     13  C   UNL     1     103.035 123.834 146.825  0.00  0.00    +0.000 A 
ATOM     14  C   UNL     1     103.492 123.494 146.230  0.00  0.00    +0.000 A 
ENDROOT
BRANCH   6  19
ATOM     15  O   UNL     1     104.972 125.595 145.415  0.00  0.00    +0.000 OA
ATOM     16  O   UNL     1     105.865 124.223 146.858  0.00  0.00    +0.000 OA
ATOM     17  O   UNL     1     107.206 125.005 146.300  0.00  0.00    +0.000 OA
ATOM     18  O   UNL     1     107.059 126.181 145.151  0.00  0.00    +0.000 OA
ATOM     19  C   UNL     1     105.046 125.007 145.988  0.00  0.00    +0.000 C 
ATOM     20  C   UNL     1     105.791 124.811 146.283  0.00  0.00    +0.000 C 
ATOM     21  C   UNL     1     106.462 125.202 146.004  0.00  0.00    +0.000 C 
ATOM     22  C   UNL     1     106.387 125.789 145.431  0.00  0.00    +0.000 C 
ATOM     23  C   UNL     1     105.643 125.986 145.136  0.00  0.00    +0.000 C 
BRANCH  23  25
ATOM     24  O   UNL     1     105.255 126.389 143.820  0.00  0.00    +0.000 OA
ATOM     25  C   UNL     1     105.568 126.574 144.561  0.00  0.00    +0.000 C 
ENDBRANCH  23  25
ENDBRANCH   6  19
BRANCH  11  27
ATOM     26  O   UNL     1     105.261 127.626 149.612  0.00  0.00    +0.000 OA
ATOM     27  C   UNL     1     103.891 126.809 148.121  0.00  0.00    +0.000 A 
ATOM     28  C   UNL     1     104.468 126.852 148.708  0.00  0.00    +0.000 A 
ATOM     29  C   UNL     1     103.529 127.499 147.849  0.00  0.00    +0.000 A 
ATOM     30  C   UNL     1     104.684 127.583 149.024  0.00  0.00    +0.000 A 
ATOM     31  C   UNL     1     103.744 128.230 148.164  0.00  0.00    +0.000 A 
ATOM     32  C   UNL     1     104.321 128.273 148.751  0.00  0.00    +0.000 A 
ENDBRANCH  11  27
TORSDOF 3
ENDMDL
MODEL 6
REMARK VINA RESULT:      -9.4     10.691     13.023
REMARK  Name = 131833088
REMARK  3 active torsions:
REMARK  status: ('A' for Active; 'I' for Inactive)
REMARK    1  A    between atoms: C_12  and  C_17
REMARK    2  A    between atoms: C_16  and  C_23
REMARK    3  A    between atoms: C_22  and  C_27
REMARK                            x       y       z     vdW  Elec       q    Type
REMARK                         _______ _______ _______ _____ _____    ______ ____
ROOT
ATOM      1  O   UNL     1     112.462 126.678 136.562  0.00  0.00    +0.000 OA
ATOM      2  O   UNL     1     114.591 127.273 136.200  0.00  0.00    +0.000 OA
ATOM      3  O   UNL     1     111.329 124.090 137.128  0.00  0.00    +0.000 OA
ATOM      4  O   UNL     1     114.151 124.333 136.737  0.00  0.00    +0.000 OA
ATOM      5  O   UNL     1     112.827 123.400 137.055  0.00  0.00    +0.000 OA
ATOM      6  C   UNL     1     111.904 125.367 136.846  0.00  0.00    +0.000 A 
ATOM      7  C   UNL     1     112.566 125.833 136.688  0.00  0.00    +0.000 A 
ATOM      8  C   UNL     1     113.314 125.489 136.651  0.00  0.00    +0.000 A 
ATOM      9  C   UNL     1     113.927 126.810 136.358  0.00  0.00    +0.000 C 
ATOM     10  C   UNL     1     114.011 125.965 136.487  0.00  0.00    +0.000 C 
ATOM     11  C   UNL     1     113.147 127.168 136.396  0.00  0.00    +0.000 C 
ATOM     12  C   UNL     1     111.991 124.556 136.969  0.00  0.00    +0.000 A 
ATOM     13  C   UNL     1     113.401 124.678 136.774  0.00  0.00    +0.000 A 
ATOM     14  C   UNL     1     112.740 124.212 136.932  0.00  0.00    +0.000 A 
ENDROOT
BRANCH   6  19
ATOM     15  O   UNL     1     110.729 125.845 136.190  0.00  0.00    +0.000 OA
ATOM     16  O   UNL     1     111.261 125.790 138.306  0.00  0.00    +0.000 OA
ATOM     17  O   UNL     1     109.764 126.480 138.378  0.00  0.00    +0.000 OA
ATOM     18  O   UNL     1     108.909 126.746 136.992  0.00  0.00    +0.000 OA
ATOM     19  C   UNL     1     111.156 125.712 136.883  0.00  0.00    +0.000 C 
ATOM     20  C   UNL     1     110.834 125.924 137.612  0.00  0.00    +0.000 C 
ATOM     21  C   UNL     1     110.085 126.268 137.648  0.00  0.00    +0.000 C 
ATOM     22  C   UNL     1     109.659 126.401 136.955  0.00  0.00    +0.000 C 
ATOM     23  C   UNL     1     109.980 126.189 136.226  0.00  0.00    +0.000 C 
BRANCH  23  25
ATOM     24  O   UNL     1     109.691 125.852 134.867  0.00  0.00    +0.000 OA
ATOM     25  C   UNL     1     109.553 126.322 135.532  0.00  0.00    +0.000 C 
ENDBRANCH  23  25
ENDBRANCH   6  19
BRANCH  11  27
ATOM     26  O   UNL     1     112.602 129.363 134.647  0.00  0.00    +0.000 OA
ATOM     27  C   UNL     1     113.057 127.979 136.274  0.00  0.00    +0.000 A 
ATOM     28  C   UNL     1     112.875 128.266 135.522  0.00  0.00    +0.000 A 
ATOM     29  C   UNL     1     113.150 128.504 136.903  0.00  0.00    +0.000 A 
ATOM     30  C   UNL     1     112.785 129.077 135.399  0.00  0.00    +0.000 A 
ATOM     31  C   UNL     1     113.060 129.315 136.781  0.00  0.00    +0.000 A 
ATOM     32  C   UNL     1     112.877 129.602 136.029  0.00  0.00    +0.000 A 
ENDBRANCH  11  27
TORSDOF 3
ENDMDL
MODEL 7
REMARK VINA RESULT:      -9.3      1.429      3.255
REMARK  Name = 131833088
REMARK  3 active torsions:
REMARK  status: ('A' for Active; 'I' for Inactive)
REMARK    1  A    between atoms: C_12  and  C_17
REMARK    2  A    between atoms: C_16  and  C_23
REMARK    3  A    between atoms: C_22  and  C_27
REMARK                            x       y       z     vdW  Elec       q    Type
REMARK                         _______ _______ _______ _____ _____    ______ ____
ROOT
ATOM      1  O   UNL     1     103.807 124.451 147.135  0.00  0.00    +0.000 OA
ATOM      2  O   UNL     1     102.313 123.191 146.041  0.00  0.00    +0.000 OA
ATOM      3  O   UNL     1     106.423 125.349 146.329  0.00  0.00    +0.000 OA
ATOM      4  O   UNL     1     104.881 123.734 144.544  0.00  0.00    +0.000 OA
ATOM      5  O   UNL     1     106.261 124.574 144.881  0.00  0.00    +0.000 OA
ATOM      6  C   UNL     1     105.124 124.897 146.716  0.00  0.00    +0.000 A 
ATOM      7  C   UNL     1     104.435 124.477 146.548  0.00  0.00    +0.000 A 
ATOM      8  C   UNL     1     104.353 124.090 145.824  0.00  0.00    +0.000 A 
ATOM      9  C   UNL     1     103.002 123.612 146.212  0.00  0.00    +0.000 C 
ATOM     10  C   UNL     1     103.639 123.649 145.638  0.00  0.00    +0.000 C 
ATOM     11  C   UNL     1     103.087 124.016 146.966  0.00  0.00    +0.000 C 
ATOM     12  C   UNL     1     105.733 124.929 146.160  0.00  0.00    +0.000 A 
ATOM     13  C   UNL     1     104.962 124.122 145.269  0.00  0.00    +0.000 A 
ATOM     14  C   UNL     1     105.652 124.541 145.437  0.00  0.00    +0.000 A 
ENDROOT
BRANCH   6  19
ATOM     15  O   UNL     1     104.880 126.034 147.545  0.00  0.00    +0.000 OA
ATOM     16  O   UNL     1     105.939 124.171 147.953  0.00  0.00    +0.000 OA
ATOM     17  O   UNL     1     106.102 124.946 149.401  0.00  0.00    +0.000 OA
ATOM     18  O   UNL     1     105.450 126.447 149.612  0.00  0.00    +0.000 OA
ATOM     19  C   UNL     1     105.206 125.284 147.439  0.00  0.00    +0.000 C 
ATOM     20  C   UNL     1     105.613 124.922 148.058  0.00  0.00    +0.000 C 
ATOM     21  C   UNL     1     105.694 125.309 148.782  0.00  0.00    +0.000 C 
ATOM     22  C   UNL     1     105.368 126.059 148.887  0.00  0.00    +0.000 C 
ATOM     23  C   UNL     1     104.961 126.422 148.269  0.00  0.00    +0.000 C 
BRANCH  23  25
ATOM     24  O   UNL     1     104.346 127.591 147.722  0.00  0.00    +0.000 OA
ATOM     25  C   UNL     1     104.635 127.173 148.373  0.00  0.00    +0.000 C 
ENDBRANCH  23  25
ENDBRANCH   6  19
BRANCH  11  27
ATOM     26  O   UNL     1     101.844 122.745 149.205  0.00  0.00    +0.000 OA
ATOM     27  C   UNL     1     102.479 123.985 147.524  0.00  0.00    +0.000 A 
ATOM     28  C   UNL     1     102.465 123.381 148.085  0.00  0.00    +0.000 A 
ATOM     29  C   UNL     1     101.886 124.558 147.520  0.00  0.00    +0.000 A 
ATOM     30  C   UNL     1     101.858 123.350 148.643  0.00  0.00    +0.000 A 
ATOM     31  C   UNL     1     101.279 124.527 148.078  0.00  0.00    +0.000 A 
ATOM     32  C   UNL     1     101.265 123.923 148.639  0.00  0.00    +0.000 A 
ENDBRANCH  11  27
TORSDOF 3
ENDMDL
MODEL 8
REMARK VINA RESULT:      -9.1      9.355     11.810
REMARK  Name = 131833088
REMARK  3 active torsions:
REMARK  status: ('A' for Active; 'I' for Inactive)
REMARK    1  A    between atoms: C_12  and  C_17
REMARK    2  A    between atoms: C_16  and  C_23
REMARK    3  A    between atoms: C_22  and  C_27
REMARK                            x       y       z     vdW  Elec       q    Type
REMARK                         _______ _______ _______ _____ _____    ______ ____
ROOT
ATOM      1  O   UNL     1     111.186 125.958 137.363  0.00  0.00    +0.000 OA
ATOM      2  O   UNL     1     110.888 125.050 135.337  0.00  0.00    +0.000 OA
ATOM      3  O   UNL     1     109.883 128.212 138.597  0.00  0.00    +0.000 OA
ATOM      4  O   UNL     1     109.136 127.434 135.949  0.00  0.00    +0.000 OA
ATOM      5  O   UNL     1     108.959 128.437 137.248  0.00  0.00    +0.000 OA
ATOM      6  C   UNL     1     110.521 127.096 137.973  0.00  0.00    +0.000 A 
ATOM      7  C   UNL     1     110.609 126.595 137.324  0.00  0.00    +0.000 A 
ATOM      8  C   UNL     1     110.148 126.708 136.650  0.00  0.00    +0.000 A 
ATOM      9  C   UNL     1     110.802 125.550 135.988  0.00  0.00    +0.000 C 
ATOM     10  C   UNL     1     110.231 126.191 135.967  0.00  0.00    +0.000 C 
ATOM     11  C   UNL     1     111.283 125.433 136.690  0.00  0.00    +0.000 C 
ATOM     12  C   UNL     1     109.971 127.710 137.947  0.00  0.00    +0.000 A 
ATOM     13  C   UNL     1     109.598 127.321 136.625  0.00  0.00    +0.000 A 
ATOM     14  C   UNL     1     109.509 127.823 137.273  0.00  0.00    +0.000 A 
ENDROOT
BRANCH   6  19
ATOM     15  O   UNL     1     111.743 127.301 138.685  0.00  0.00    +0.000 OA
ATOM     16  O   UNL     1     109.923 126.236 139.247  0.00  0.00    +0.000 OA
ATOM     17  O   UNL     1     110.846 126.011 140.596  0.00  0.00    +0.000 OA
ATOM     18  O   UNL     1     112.368 126.646 140.671  0.00  0.00    +0.000 OA
ATOM     19  C   UNL     1     110.982 126.984 138.647  0.00  0.00    +0.000 C 
ATOM     20  C   UNL     1     110.684 126.554 139.285  0.00  0.00    +0.000 C 
ATOM     21  C   UNL     1     111.146 126.441 139.959  0.00  0.00    +0.000 C 
ATOM     22  C   UNL     1     111.906 126.758 139.996  0.00  0.00    +0.000 C 
ATOM     23  C   UNL     1     112.205 127.188 139.359  0.00  0.00    +0.000 C 
BRANCH  23  25
ATOM     24  O   UNL     1     113.170 128.143 138.911  0.00  0.00    +0.000 OA
ATOM     25  C   UNL     1     112.965 127.506 139.396  0.00  0.00    +0.000 C 
ENDBRANCH  23  25
ENDBRANCH   6  19
BRANCH  11  27
ATOM     26  O   UNL     1     111.955 122.739 137.370  0.00  0.00    +0.000 OA
ATOM     27  C   UNL     1     111.834 124.820 136.718  0.00  0.00    +0.000 A 
ATOM     28  C   UNL     1     111.619 124.086 137.030  0.00  0.00    +0.000 A 
ATOM     29  C   UNL     1     112.599 124.938 136.435  0.00  0.00    +0.000 A 
ATOM     30  C   UNL     1     112.170 123.472 137.058  0.00  0.00    +0.000 A 
ATOM     31  C   UNL     1     113.150 124.325 136.463  0.00  0.00    +0.000 A 
ATOM     32  C   UNL     1     112.935 123.592 136.775  0.00  0.00    +0.000 A 
ENDBRANCH  11  27
TORSDOF 3
ENDMDL
MODEL 9
REMARK VINA RESULT:      -9.1      9.809     12.359
REMARK  Name = 131833088
REMARK  3 active torsions:
REMARK  status: ('A' for Active; 'I' for Inactive)
REMARK    1  A    between atoms: C_12  and  C_17
REMARK    2  A    between atoms: C_16  and  C_23
REMARK    3  A    between atoms: C_22  and  C_27
REMARK                            x       y       z     vdW  Elec       q    Type
REMARK                         _______ _______ _______ _____ _____    ______ ____
ROOT
ATOM      1  O   UNL     1     113.015 126.969 137.912  0.00  0.00    +0.000 OA
ATOM      2  O   UNL     1     114.022 126.864 135.914  0.00  0.00    +0.000 OA
ATOM      3  O   UNL     1     111.728 129.186 139.229  0.00  0.00    +0.000 OA
ATOM      4  O   UNL     1     112.882 129.566 136.641  0.00  0.00    +0.000 OA
ATOM      5  O   UNL     1     112.070 130.166 137.947  0.00  0.00    +0.000 OA
ATOM      6  C   UNL     1     112.370 128.095 138.565  0.00  0.00    +0.000 A 
ATOM      7  C   UNL     1     112.775 127.795 137.912  0.00  0.00    +0.000 A 
ATOM      8  C   UNL     1     112.946 128.285 137.271  0.00  0.00    +0.000 A 
ATOM      9  C   UNL     1     113.616 127.162 136.568  0.00  0.00    +0.000 C 
ATOM     10  C   UNL     1     113.368 127.984 136.586  0.00  0.00    +0.000 C 
ATOM     11  C   UNL     1     113.438 126.651 137.236  0.00  0.00    +0.000 C 
ATOM     12  C   UNL     1     112.135 128.885 138.576  0.00  0.00    +0.000 A 
ATOM     13  C   UNL     1     112.711 129.075 137.283  0.00  0.00    +0.000 A 
ATOM     14  C   UNL     1     112.305 129.376 137.935  0.00  0.00    +0.000 A 
ENDROOT
BRANCH   6  19
ATOM     15  O   UNL     1     112.762 127.487 139.797  0.00  0.00    +0.000 OA
ATOM     16  O   UNL     1     110.901 127.349 138.665  0.00  0.00    +0.000 OA
ATOM     17  O   UNL     1     110.560 126.369 139.947  0.00  0.00    +0.000 OA
ATOM     18  O   UNL     1     111.687 126.133 141.130  0.00  0.00    +0.000 OA
ATOM     19  C   UNL     1     112.199 127.605 139.205  0.00  0.00    +0.000 C 
ATOM     20  C   UNL     1     111.465 127.232 139.256  0.00  0.00    +0.000 C 
ATOM     21  C   UNL     1     111.295 126.741 139.897  0.00  0.00    +0.000 C 
ATOM     22  C   UNL     1     111.858 126.624 140.488  0.00  0.00    +0.000 C 
ATOM     23  C   UNL     1     112.592 126.997 140.438  0.00  0.00    +0.000 C 
BRANCH  23  25
ATOM     24  O   UNL     1     113.883 127.268 140.987  0.00  0.00    +0.000 OA
ATOM     25  C   UNL     1     113.156 126.880 141.028  0.00  0.00    +0.000 C 
ENDBRANCH  23  25
ENDBRANCH   6  19
BRANCH  11  27
ATOM     26  O   UNL     1     112.886 123.913 136.627  0.00  0.00    +0.000 OA
ATOM     27  C   UNL     1     113.672 125.860 137.227  0.00  0.00    +0.000 A 
ATOM     28  C   UNL     1     113.162 125.282 136.932  0.00  0.00    +0.000 A 
ATOM     29  C   UNL     1     114.415 125.646 137.514  0.00  0.00    +0.000 A 
ATOM     30  C   UNL     1     113.396 124.491 136.923  0.00  0.00    +0.000 A 
ATOM     31  C   UNL     1     114.649 124.855 137.505  0.00  0.00    +0.000 A 
ATOM     32  C   UNL     1     114.140 124.277 137.209  0.00  0.00    +0.000 A 
ENDBRANCH  11  27
TORSDOF 3
ENDMDL
