MODEL 1
REMARK VINA RESULT:      -8.6      0.000      0.000
REMARK  Name = 42607637
REMARK  7 active torsions:
REMARK  status: ('A' for Active; 'I' for Inactive)
REMARK    1  A    between atoms: O_2  and  C_15
REMARK    2  A    between atoms: O_2  and  C_17
REMARK    3  A    between atoms: C_14  and  C_16
REMARK    4  A    between atoms: C_18  and  C_21
REMARK    5  A    between atoms: C_21  and  C_24
REMARK    6  A    between atoms: C_24  and  C_25
REMARK    7  A    between atoms: C_25  and  C_26
REMARK                            x       y       z     vdW  Elec       q    Type
REMARK                         _______ _______ _______ _____ _____    ______ ____
ROOT
ATOM      1  O   UNL     1     108.465 125.383 147.633  0.00  0.00    +0.000 OA
ATOM      2  O   UNL     1     107.082 123.855 149.612  0.00  0.00    +0.000 OA
ATOM      3  C   UNL     1     106.356 124.848 147.809  0.00  0.00    +0.000 A 
ATOM      4  C   UNL     1     107.057 125.173 147.518  0.00  0.00    +0.000 A 
ATOM      5  C   UNL     1     106.365 124.409 148.507  0.00  0.00    +0.000 A 
ATOM      6  C   UNL     1     107.766 125.058 147.925  0.00  0.00    +0.000 A 
ATOM      7  C   UNL     1     107.074 124.294 148.914  0.00  0.00    +0.000 A 
ATOM      8  C   UNL     1     107.773 124.619 148.623  0.00  0.00    +0.000 A 
ENDROOT
BRANCH   4  10
ATOM      9  O   UNL     1     107.082 125.229 146.090  0.00  0.00    +0.000 OA
ATOM     10  C   UNL     1     107.049 125.612 146.820  0.00  0.00    +0.000 C 
BRANCH  10  11
ATOM     11  C   UNL     1     107.006 126.436 146.852  0.00  0.00    +0.000 C 
BRANCH  11  13
ATOM     12  O   UNL     1     107.063 126.495 145.425  0.00  0.00    +0.000 OA
ATOM     13  C   UNL     1     106.991 126.875 146.153  0.00  0.00    +0.000 C 
BRANCH  13  14
ATOM     14  C   UNL     1     106.903 127.696 146.184  0.00  0.00    +0.000 A 
ATOM     15  C   UNL     1     106.156 128.027 146.298  0.00  0.00    +0.000 A 
ATOM     16  C   UNL     1     107.563 128.183 146.101  0.00  0.00    +0.000 A 
ATOM     17  C   UNL     1     106.070 128.846 146.328  0.00  0.00    +0.000 A 
ATOM     18  C   UNL     1     107.476 129.004 146.132  0.00  0.00    +0.000 A 
ATOM     19  C   UNL     1     106.729 129.335 146.245  0.00  0.00    +0.000 A 
ENDBRANCH  13  14
ENDBRANCH  11  13
ENDBRANCH  10  11
ENDBRANCH   4  10
BRANCH   3  20
ATOM     20  O   UNL     1     105.648 124.963 147.402  0.00  0.00    +0.000 OA
BRANCH  20  29
ATOM     21  O   UNL     1     104.816 125.495 148.434  0.00  0.00    +0.000 OA
ATOM     22  O   UNL     1     103.020 123.915 147.801  0.00  0.00    +0.000 OA
ATOM     23  O   UNL     1     102.786 124.974 149.044  0.00  0.00    +0.000 OA
ATOM     24  O   UNL     1     104.450 123.910 146.980  0.00  0.00    +0.000 OA
ATOM     25  C   UNL     1     103.619 124.442 148.012  0.00  0.00    +0.000 C 
ATOM     26  C   UNL     1     103.502 124.972 148.634  0.00  0.00    +0.000 C 
ATOM     27  C   UNL     1     104.334 124.439 147.602  0.00  0.00    +0.000 C 
ATOM     28  C   UNL     1     104.101 125.499 148.845  0.00  0.00    +0.000 C 
ATOM     29  C   UNL     1     104.933 124.966 147.813  0.00  0.00    +0.000 C 
BRANCH  28  31
ATOM     30  O   UNL     1     104.228 126.813 149.392  0.00  0.00    +0.000 OA
ATOM     31  C   UNL     1     103.984 126.028 149.466  0.00  0.00    +0.000 C 
ENDBRANCH  28  31
ENDBRANCH  20  29
ENDBRANCH   3  20
TORSDOF 7
ENDMDL
MODEL 2
REMARK VINA RESULT:      -8.5     12.020     13.844
REMARK  Name = 42607637
REMARK  7 active torsions:
REMARK  status: ('A' for Active; 'I' for Inactive)
REMARK    1  A    between atoms: O_2  and  C_15
REMARK    2  A    between atoms: O_2  and  C_17
REMARK    3  A    between atoms: C_14  and  C_16
REMARK    4  A    between atoms: C_18  and  C_21
REMARK    5  A    between atoms: C_21  and  C_24
REMARK    6  A    between atoms: C_24  and  C_25
REMARK    7  A    between atoms: C_25  and  C_26
REMARK                            x       y       z     vdW  Elec       q    Type
REMARK                         _______ _______ _______ _____ _____    ______ ____
ROOT
ATOM      1  O   UNL     1     114.556 128.548 134.853  0.00  0.00    +0.000 OA
ATOM      2  O   UNL     1     114.904 131.150 135.980  0.00  0.00    +0.000 OA
ATOM      3  C   UNL     1     113.650 129.478 136.608  0.00  0.00    +0.000 A 
ATOM      4  C   UNL     1     113.834 128.920 136.028  0.00  0.00    +0.000 A 
ATOM      5  C   UNL     1     114.008 130.221 136.591  0.00  0.00    +0.000 A 
ATOM      6  C   UNL     1     114.374 129.105 135.432  0.00  0.00    +0.000 A 
ATOM      7  C   UNL     1     114.548 130.407 135.996  0.00  0.00    +0.000 A 
ATOM      8  C   UNL     1     114.730 129.849 135.417  0.00  0.00    +0.000 A 
ENDROOT
BRANCH   4  10
ATOM      9  O   UNL     1     112.751 128.059 135.670  0.00  0.00    +0.000 OA
ATOM     10  C   UNL     1     113.476 128.177 136.044  0.00  0.00    +0.000 C 
BRANCH  10  11
ATOM     11  C   UNL     1     113.846 127.550 136.435  0.00  0.00    +0.000 C 
BRANCH  11  13
ATOM     12  O   UNL     1     112.726 126.710 136.149  0.00  0.00    +0.000 OA
ATOM     13  C   UNL     1     113.480 126.812 136.467  0.00  0.00    +0.000 C 
BRANCH  13  14
ATOM     14  C   UNL     1     113.870 126.173 136.817  0.00  0.00    +0.000 A 
ATOM     15  C   UNL     1     114.311 125.654 136.352  0.00  0.00    +0.000 A 
ATOM     16  C   UNL     1     113.818 126.056 137.632  0.00  0.00    +0.000 A 
ATOM     17  C   UNL     1     114.700 125.017 136.702  0.00  0.00    +0.000 A 
ATOM     18  C   UNL     1     114.208 125.418 137.982  0.00  0.00    +0.000 A 
ATOM     19  C   UNL     1     114.649 124.898 137.517  0.00  0.00    +0.000 A 
ENDBRANCH  13  14
ENDBRANCH  11  13
ENDBRANCH  10  11
ENDBRANCH   4  10
BRANCH   3  20
ATOM     20  O   UNL     1     113.110 129.293 137.203  0.00  0.00    +0.000 OA
BRANCH  20  29
ATOM     21  O   UNL     1     112.120 130.306 137.027  0.00  0.00    +0.000 OA
ATOM     22  O   UNL     1     112.192 130.797 139.452  0.00  0.00    +0.000 OA
ATOM     23  O   UNL     1     111.176 131.647 138.468  0.00  0.00    +0.000 OA
ATOM     24  O   UNL     1     113.159 129.620 138.820  0.00  0.00    +0.000 OA
ATOM     25  C   UNL     1     112.168 130.633 138.644  0.00  0.00    +0.000 C 
ATOM     26  C   UNL     1     111.660 131.059 138.151  0.00  0.00    +0.000 C 
ATOM     27  C   UNL     1     112.651 130.045 138.327  0.00  0.00    +0.000 C 
ATOM     28  C   UNL     1     111.636 130.895 137.343  0.00  0.00    +0.000 C 
ATOM     29  C   UNL     1     112.627 129.881 137.519  0.00  0.00    +0.000 C 
BRANCH  28  31
ATOM     30  O   UNL     1     110.715 130.933 136.250  0.00  0.00    +0.000 OA
ATOM     31  C   UNL     1     111.128 131.320 136.852  0.00  0.00    +0.000 C 
ENDBRANCH  28  31
ENDBRANCH  20  29
ENDBRANCH   3  20
TORSDOF 7
ENDMDL
MODEL 3
REMARK VINA RESULT:      -8.3      9.008     11.085
REMARK  Name = 42607637
REMARK  7 active torsions:
REMARK  status: ('A' for Active; 'I' for Inactive)
REMARK    1  A    between atoms: O_2  and  C_15
REMARK    2  A    between atoms: O_2  and  C_17
REMARK    3  A    between atoms: C_14  and  C_16
REMARK    4  A    between atoms: C_18  and  C_21
REMARK    5  A    between atoms: C_21  and  C_24
REMARK    6  A    between atoms: C_24  and  C_25
REMARK    7  A    between atoms: C_25  and  C_26
REMARK                            x       y       z     vdW  Elec       q    Type
REMARK                         _______ _______ _______ _____ _____    ______ ____
ROOT
ATOM      1  O   UNL     1     110.443 125.366 136.234  0.00  0.00    +0.000 OA
ATOM      2  O   UNL     1     109.139 127.480 137.647  0.00  0.00    +0.000 OA
ATOM      3  C   UNL     1     110.734 126.123 138.261  0.00  0.00    +0.000 A 
ATOM      4  C   UNL     1     110.824 125.670 137.577  0.00  0.00    +0.000 A 
ATOM      5  C   UNL     1     110.172 126.727 138.283  0.00  0.00    +0.000 A 
ATOM      6  C   UNL     1     110.353 125.820 136.917  0.00  0.00    +0.000 A 
ATOM      7  C   UNL     1     109.700 126.877 137.623  0.00  0.00    +0.000 A 
ATOM      8  C   UNL     1     109.791 126.423 136.941  0.00  0.00    +0.000 A 
ENDROOT
BRANCH   4  10
ATOM      9  O   UNL     1     111.201 124.318 137.847  0.00  0.00    +0.000 OA
ATOM     10  C   UNL     1     111.386 125.066 137.554  0.00  0.00    +0.000 C 
BRANCH  10  11
ATOM     11  C   UNL     1     112.135 125.212 137.238  0.00  0.00    +0.000 C 
BRANCH  11  13
ATOM     12  O   UNL     1     112.445 123.818 137.287  0.00  0.00    +0.000 OA
ATOM     13  C   UNL     1     112.686 124.600 137.185  0.00  0.00    +0.000 C 
BRANCH  13  14
ATOM     14  C   UNL     1     113.478 124.772 137.029  0.00  0.00    +0.000 A 
ATOM     15  C   UNL     1     113.736 124.862 136.251  0.00  0.00    +0.000 A 
ATOM     16  C   UNL     1     114.012 124.852 137.653  0.00  0.00    +0.000 A 
ATOM     17  C   UNL     1     114.527 125.033 136.096  0.00  0.00    +0.000 A 
ATOM     18  C   UNL     1     114.805 125.023 137.497  0.00  0.00    +0.000 A 
ATOM     19  C   UNL     1     115.062 125.114 136.719  0.00  0.00    +0.000 A 
ENDBRANCH  13  14
ENDBRANCH  11  13
ENDBRANCH  10  11
ENDBRANCH   4  10
BRANCH   3  20
ATOM     20  O   UNL     1     111.206 125.973 138.921  0.00  0.00    +0.000 OA
BRANCH  20  29
ATOM     21  O   UNL     1     110.222 125.772 139.935  0.00  0.00    +0.000 OA
ATOM     22  O   UNL     1     111.447 127.316 141.431  0.00  0.00    +0.000 OA
ATOM     23  O   UNL     1     110.054 126.599 141.948  0.00  0.00    +0.000 OA
ATOM     24  O   UNL     1     112.023 127.003 139.918  0.00  0.00    +0.000 OA
ATOM     25  C   UNL     1     111.039 126.801 140.933  0.00  0.00    +0.000 C 
ATOM     26  C   UNL     1     110.341 126.442 141.191  0.00  0.00    +0.000 C 
ATOM     27  C   UNL     1     111.326 126.644 140.176  0.00  0.00    +0.000 C 
ATOM     28  C   UNL     1     109.933 125.928 140.693  0.00  0.00    +0.000 C 
ATOM     29  C   UNL     1     110.918 126.130 139.677  0.00  0.00    +0.000 C 
BRANCH  28  31
ATOM     30  O   UNL     1     109.159 124.748 140.922  0.00  0.00    +0.000 OA
ATOM     31  C   UNL     1     109.237 125.569 140.951  0.00  0.00    +0.000 C 
ENDBRANCH  28  31
ENDBRANCH  20  29
ENDBRANCH   3  20
TORSDOF 7
ENDMDL
MODEL 4
REMARK VINA RESULT:      -8.3      1.659      4.852
REMARK  Name = 42607637
REMARK  7 active torsions:
REMARK  status: ('A' for Active; 'I' for Inactive)
REMARK    1  A    between atoms: O_2  and  C_15
REMARK    2  A    between atoms: O_2  and  C_17
REMARK    3  A    between atoms: C_14  and  C_16
REMARK    4  A    between atoms: C_18  and  C_21
REMARK    5  A    between atoms: C_21  and  C_24
REMARK    6  A    between atoms: C_24  and  C_25
REMARK    7  A    between atoms: C_25  and  C_26
REMARK                            x       y       z     vdW  Elec       q    Type
REMARK                         _______ _______ _______ _____ _____    ______ ____
ROOT
ATOM      1  O   UNL     1     102.559 125.613 149.210  0.00  0.00    +0.000 OA
ATOM      2  O   UNL     1     104.532 127.608 148.673  0.00  0.00    +0.000 OA
ATOM      3  C   UNL     1     104.307 125.578 147.903  0.00  0.00    +0.000 A 
ATOM      4  C   UNL     1     103.623 125.337 148.298  0.00  0.00    +0.000 A 
ATOM      5  C   UNL     1     104.610 126.335 148.029  0.00  0.00    +0.000 A 
ATOM      6  C   UNL     1     103.242 125.853 148.817  0.00  0.00    +0.000 A 
ATOM      7  C   UNL     1     104.229 126.851 148.548  0.00  0.00    +0.000 A 
ATOM      8  C   UNL     1     103.546 126.610 148.941  0.00  0.00    +0.000 A 
ENDROOT
BRANCH   4  10
ATOM      9  O   UNL     1     103.540 123.960 148.669  0.00  0.00    +0.000 OA
ATOM     10  C   UNL     1     103.320 124.580 148.172  0.00  0.00    +0.000 C 
BRANCH  10  11
ATOM     11  C   UNL     1     102.797 124.444 147.548  0.00  0.00    +0.000 C 
BRANCH  11  13
ATOM     12  O   UNL     1     102.490 123.149 148.068  0.00  0.00    +0.000 OA
ATOM     13  C   UNL     1     102.449 123.701 147.457  0.00  0.00    +0.000 C 
BRANCH  13  14
ATOM     14  C   UNL     1     102.061 123.511 146.754  0.00  0.00    +0.000 A 
ATOM     15  C   UNL     1     101.315 123.826 146.596  0.00  0.00    +0.000 A 
ATOM     16  C   UNL     1     102.420 123.007 146.209  0.00  0.00    +0.000 A 
ATOM     17  C   UNL     1     100.927 123.637 145.894  0.00  0.00    +0.000 A 
ATOM     18  C   UNL     1     102.031 122.817 145.505  0.00  0.00    +0.000 A 
ATOM     19  C   UNL     1     101.285 123.132 145.348  0.00  0.00    +0.000 A 
ENDBRANCH  13  14
ENDBRANCH  11  13
ENDBRANCH  10  11
ENDBRANCH   4  10
BRANCH   3  20
ATOM     20  O   UNL     1     104.688 125.062 147.384  0.00  0.00    +0.000 OA
BRANCH  20  29
ATOM     21  O   UNL     1     105.998 124.980 147.946  0.00  0.00    +0.000 OA
ATOM     22  O   UNL     1     106.980 125.438 145.720  0.00  0.00    +0.000 OA
ATOM     23  O   UNL     1     107.964 125.203 147.024  0.00  0.00    +0.000 OA
ATOM     24  O   UNL     1     105.342 125.367 145.901  0.00  0.00    +0.000 OA
ATOM     25  C   UNL     1     106.653 125.285 146.462  0.00  0.00    +0.000 C 
ATOM     26  C   UNL     1     107.145 125.168 147.114  0.00  0.00    +0.000 C 
ATOM     27  C   UNL     1     105.833 125.250 146.553  0.00  0.00    +0.000 C 
ATOM     28  C   UNL     1     106.818 125.015 147.856  0.00  0.00    +0.000 C 
ATOM     29  C   UNL     1     105.506 125.097 147.294  0.00  0.00    +0.000 C 
BRANCH  28  31
ATOM     30  O   UNL     1     107.202 124.240 148.993  0.00  0.00    +0.000 OA
ATOM     31  C   UNL     1     107.310 124.898 148.507  0.00  0.00    +0.000 C 
ENDBRANCH  28  31
ENDBRANCH  20  29
ENDBRANCH   3  20
TORSDOF 7
ENDMDL
MODEL 5
REMARK VINA RESULT:      -8.2      1.825      4.734
REMARK  Name = 42607637
REMARK  7 active torsions:
REMARK  status: ('A' for Active; 'I' for Inactive)
REMARK    1  A    between atoms: O_2  and  C_15
REMARK    2  A    between atoms: O_2  and  C_17
REMARK    3  A    between atoms: C_14  and  C_16
REMARK    4  A    between atoms: C_18  and  C_21
REMARK    5  A    between atoms: C_21  and  C_24
REMARK    6  A    between atoms: C_24  and  C_25
REMARK    7  A    between atoms: C_25  and  C_26
REMARK                            x       y       z     vdW  Elec       q    Type
REMARK                         _______ _______ _______ _____ _____    ______ ____
ROOT
ATOM      1  O   UNL     1     104.094 124.936 149.333  0.00  0.00    +0.000 OA
ATOM      2  O   UNL     1     106.775 124.458 148.468  0.00  0.00    +0.000 OA
ATOM      3  C   UNL     1     104.949 124.814 147.328  0.00  0.00    +0.000 A 
ATOM      4  C   UNL     1     104.400 124.904 147.938  0.00  0.00    +0.000 A 
ATOM      5  C   UNL     1     105.740 124.665 147.505  0.00  0.00    +0.000 A 
ATOM      6  C   UNL     1     104.643 124.846 148.724  0.00  0.00    +0.000 A 
ATOM      7  C   UNL     1     105.983 124.606 148.292  0.00  0.00    +0.000 A 
ATOM      8  C   UNL     1     105.435 124.697 148.900  0.00  0.00    +0.000 A 
ENDROOT
BRANCH   4  10
ATOM      9  O   UNL     1     103.332 125.830 147.722  0.00  0.00    +0.000 OA
ATOM     10  C   UNL     1     103.608 125.053 147.760  0.00  0.00    +0.000 C 
BRANCH  10  11
ATOM     11  C   UNL     1     103.092 124.424 147.621  0.00  0.00    +0.000 C 
BRANCH  11  13
ATOM     12  O   UNL     1     101.966 125.300 147.714  0.00  0.00    +0.000 OA
ATOM     13  C   UNL     1     102.287 124.569 147.507  0.00  0.00    +0.000 C 
BRANCH  13  14
ATOM     14  C   UNL     1     101.804 123.981 147.187  0.00  0.00    +0.000 A 
ATOM     15  C   UNL     1     101.559 124.032 146.401  0.00  0.00    +0.000 A 
ATOM     16  C   UNL     1     101.566 123.344 147.653  0.00  0.00    +0.000 A 
ATOM     17  C   UNL     1     101.076 123.445 146.081  0.00  0.00    +0.000 A 
ATOM     18  C   UNL     1     101.083 122.756 147.333  0.00  0.00    +0.000 A 
ATOM     19  C   UNL     1     100.838 122.807 146.547  0.00  0.00    +0.000 A 
ENDBRANCH  13  14
ENDBRANCH  11  13
ENDBRANCH  10  11
ENDBRANCH   4  10
BRANCH   3  20
ATOM     20  O   UNL     1     104.706 124.872 146.542  0.00  0.00    +0.000 OA
BRANCH  20  29
ATOM     21  O   UNL     1     105.519 125.945 146.065  0.00  0.00    +0.000 OA
ATOM     22  O   UNL     1     106.146 124.591 144.090  0.00  0.00    +0.000 OA
ATOM     23  O   UNL     1     106.751 126.116 144.271  0.00  0.00    +0.000 OA
ATOM     24  O   UNL     1     105.124 123.970 145.225  0.00  0.00    +0.000 OA
ATOM     25  C   UNL     1     105.937 125.042 144.748  0.00  0.00    +0.000 C 
ATOM     26  C   UNL     1     106.240 125.805 144.839  0.00  0.00    +0.000 C 
ATOM     27  C   UNL     1     105.426 124.732 145.316  0.00  0.00    +0.000 C 
ATOM     28  C   UNL     1     106.031 126.256 145.497  0.00  0.00    +0.000 C 
ATOM     29  C   UNL     1     105.217 125.183 145.974  0.00  0.00    +0.000 C 
BRANCH  28  31
ATOM     30  O   UNL     1     105.831 127.641 145.787  0.00  0.00    +0.000 OA
ATOM     31  C   UNL     1     106.333 127.018 145.588  0.00  0.00    +0.000 C 
ENDBRANCH  28  31
ENDBRANCH  20  29
ENDBRANCH   3  20
TORSDOF 7
ENDMDL
MODEL 6
REMARK VINA RESULT:      -8.1     10.088     12.212
REMARK  Name = 42607637
REMARK  7 active torsions:
REMARK  status: ('A' for Active; 'I' for Inactive)
REMARK    1  A    between atoms: O_2  and  C_15
REMARK    2  A    between atoms: O_2  and  C_17
REMARK    3  A    between atoms: C_14  and  C_16
REMARK    4  A    between atoms: C_18  and  C_21
REMARK    5  A    between atoms: C_21  and  C_24
REMARK    6  A    between atoms: C_24  and  C_25
REMARK    7  A    between atoms: C_25  and  C_26
REMARK                            x       y       z     vdW  Elec       q    Type
REMARK                         _______ _______ _______ _____ _____    ______ ____
ROOT
ATOM      1  O   UNL     1     113.454 124.422 136.122  0.00  0.00    +0.000 OA
ATOM      2  O   UNL     1     114.994 125.545 138.250  0.00  0.00    +0.000 OA
ATOM      3  C   UNL     1     112.844 125.563 137.880  0.00  0.00    +0.000 A 
ATOM      4  C   UNL     1     112.804 125.137 137.174  0.00  0.00    +0.000 A 
ATOM      5  C   UNL     1     113.574 125.698 138.238  0.00  0.00    +0.000 A 
ATOM      6  C   UNL     1     113.494 124.847 136.827  0.00  0.00    +0.000 A 
ATOM      7  C   UNL     1     114.264 125.409 137.891  0.00  0.00    +0.000 A 
ATOM      8  C   UNL     1     114.224 124.984 137.186  0.00  0.00    +0.000 A 
ENDROOT
BRANCH   4  10
ATOM      9  O   UNL     1     111.612 124.358 137.049  0.00  0.00    +0.000 OA
ATOM     10  C   UNL     1     112.073 125.001 136.815  0.00  0.00    +0.000 C 
BRANCH  10  11
ATOM     11  C   UNL     1     111.804 125.509 136.223  0.00  0.00    +0.000 C 
BRANCH  11  13
ATOM     12  O   UNL     1     110.834 124.569 135.758  0.00  0.00    +0.000 OA
ATOM     13  C   UNL     1     111.096 125.347 135.832  0.00  0.00    +0.000 C 
BRANCH  13  14
ATOM     14  C   UNL     1     110.650 125.965 135.514  0.00  0.00    +0.000 A 
ATOM     15  C   UNL     1     109.881 126.098 135.779  0.00  0.00    +0.000 A 
ATOM     16  C   UNL     1     110.975 126.450 134.931  0.00  0.00    +0.000 A 
ATOM     17  C   UNL     1     109.436 126.715 135.461  0.00  0.00    +0.000 A 
ATOM     18  C   UNL     1     110.529 127.068 134.613  0.00  0.00    +0.000 A 
ATOM     19  C   UNL     1     109.760 127.200 134.878  0.00  0.00    +0.000 A 
ENDBRANCH  13  14
ENDBRANCH  11  13
ENDBRANCH  10  11
ENDBRANCH   4  10
BRANCH   3  20
ATOM     20  O   UNL     1     112.153 125.852 138.227  0.00  0.00    +0.000 OA
BRANCH  20  29
ATOM     21  O   UNL     1     112.413 127.256 138.260  0.00  0.00    +0.000 OA
ATOM     22  O   UNL     1     111.717 127.328 140.634  0.00  0.00    +0.000 OA
ATOM     23  O   UNL     1     112.209 128.709 139.877  0.00  0.00    +0.000 OA
ATOM     24  O   UNL     1     111.689 125.900 139.809  0.00  0.00    +0.000 OA
ATOM     25  C   UNL     1     111.949 127.304 139.843  0.00  0.00    +0.000 C 
ATOM     26  C   UNL     1     112.195 127.995 139.464  0.00  0.00    +0.000 C 
ATOM     27  C   UNL     1     111.935 126.590 139.430  0.00  0.00    +0.000 C 
ATOM     28  C   UNL     1     112.427 127.971 138.673  0.00  0.00    +0.000 C 
ATOM     29  C   UNL     1     112.167 126.566 138.639  0.00  0.00    +0.000 C 
BRANCH  28  31
ATOM     30  O   UNL     1     112.378 128.851 137.548  0.00  0.00    +0.000 OA
ATOM     31  C   UNL     1     112.673 128.661 138.294  0.00  0.00    +0.000 C 
ENDBRANCH  28  31
ENDBRANCH  20  29
ENDBRANCH   3  20
TORSDOF 7
ENDMDL
MODEL 7
REMARK VINA RESULT:      -8.1     10.973     12.442
REMARK  Name = 42607637
REMARK  7 active torsions:
REMARK  status: ('A' for Active; 'I' for Inactive)
REMARK    1  A    between atoms: O_2  and  C_15
REMARK    2  A    between atoms: O_2  and  C_17
REMARK    3  A    between atoms: C_14  and  C_16
REMARK    4  A    between atoms: C_18  and  C_21
REMARK    5  A    between atoms: C_21  and  C_24
REMARK    6  A    between atoms: C_24  and  C_25
REMARK    7  A    between atoms: C_25  and  C_26
REMARK                            x       y       z     vdW  Elec       q    Type
REMARK                         _______ _______ _______ _____ _____    ______ ____
ROOT
ATOM      1  O   UNL     1     114.304 126.868 140.603  0.00  0.00    +0.000 OA
ATOM      2  O   UNL     1     114.254 129.686 141.075  0.00  0.00    +0.000 OA
ATOM      3  C   UNL     1     113.173 128.461 139.628  0.00  0.00    +0.000 A 
ATOM      4  C   UNL     1     113.462 127.710 139.813  0.00  0.00    +0.000 A 
ATOM      5  C   UNL     1     113.437 129.119 140.049  0.00  0.00    +0.000 A 
ATOM      6  C   UNL     1     114.015 127.618 140.419  0.00  0.00    +0.000 A 
ATOM      7  C   UNL     1     113.990 129.027 140.655  0.00  0.00    +0.000 A 
ATOM      8  C   UNL     1     114.279 128.277 140.839  0.00  0.00    +0.000 A 
ENDROOT
BRANCH   4  10
ATOM      9  O   UNL     1     112.483 126.692 139.594  0.00  0.00    +0.000 OA
ATOM     10  C   UNL     1     113.198 127.052 139.392  0.00  0.00    +0.000 C 
BRANCH  10  11
ATOM     11  C   UNL     1     113.649 126.753 138.769  0.00  0.00    +0.000 C 
BRANCH  11  13
ATOM     12  O   UNL     1     112.657 125.752 138.532  0.00  0.00    +0.000 OA
ATOM     13  C   UNL     1     113.379 126.103 138.339  0.00  0.00    +0.000 C 
BRANCH  13  14
ATOM     14  C   UNL     1     113.831 125.803 137.717  0.00  0.00    +0.000 A 
ATOM     15  C   UNL     1     113.811 126.170 136.978  0.00  0.00    +0.000 A 
ATOM     16  C   UNL     1     114.302 125.136 137.834  0.00  0.00    +0.000 A 
ATOM     17  C   UNL     1     114.263 125.871 136.357  0.00  0.00    +0.000 A 
ATOM     18  C   UNL     1     114.754 124.836 137.211  0.00  0.00    +0.000 A 
ATOM     19  C   UNL     1     114.734 125.203 136.473  0.00  0.00    +0.000 A 
ENDBRANCH  13  14
ENDBRANCH  11  13
ENDBRANCH  10  11
ENDBRANCH   4  10
BRANCH   3  20
ATOM     20  O   UNL     1     112.620 128.552 139.023  0.00  0.00    +0.000 OA
BRANCH  20  29
ATOM     21  O   UNL     1     113.237 129.517 138.169  0.00  0.00    +0.000 OA
ATOM     22  O   UNL     1     111.166 130.871 138.202  0.00  0.00    +0.000 OA
ATOM     23  O   UNL     1     112.474 131.385 137.337  0.00  0.00    +0.000 OA
ATOM     24  O   UNL     1     111.239 129.456 139.044  0.00  0.00    +0.000 OA
ATOM     25  C   UNL     1     111.857 130.420 138.191  0.00  0.00    +0.000 C 
ATOM     26  C   UNL     1     112.511 130.676 137.758  0.00  0.00    +0.000 C 
ATOM     27  C   UNL     1     111.893 129.712 138.612  0.00  0.00    +0.000 C 
ATOM     28  C   UNL     1     113.202 130.225 137.747  0.00  0.00    +0.000 C 
ATOM     29  C   UNL     1     112.584 129.260 138.602  0.00  0.00    +0.000 C 
BRANCH  28  31
ATOM     30  O   UNL     1     114.255 129.957 136.819  0.00  0.00    +0.000 OA
ATOM     31  C   UNL     1     113.855 130.481 137.315  0.00  0.00    +0.000 C 
ENDBRANCH  28  31
ENDBRANCH  20  29
ENDBRANCH   3  20
TORSDOF 7
ENDMDL
MODEL 8
REMARK VINA RESULT:      -8.0     10.914     12.555
REMARK  Name = 42607637
REMARK  7 active torsions:
REMARK  status: ('A' for Active; 'I' for Inactive)
REMARK    1  A    between atoms: O_2  and  C_15
REMARK    2  A    between atoms: O_2  and  C_17
REMARK    3  A    between atoms: C_14  and  C_16
REMARK    4  A    between atoms: C_18  and  C_21
REMARK    5  A    between atoms: C_21  and  C_24
REMARK    6  A    between atoms: C_24  and  C_25
REMARK    7  A    between atoms: C_25  and  C_26
REMARK                            x       y       z     vdW  Elec       q    Type
REMARK                         _______ _______ _______ _____ _____    ______ ____
ROOT
ATOM      1  O   UNL     1     113.343 128.768 138.317  0.00  0.00    +0.000 OA
ATOM      2  O   UNL     1     110.714 129.385 139.250  0.00  0.00    +0.000 OA
ATOM      3  C   UNL     1     111.383 128.157 137.575  0.00  0.00    +0.000 A 
ATOM      4  C   UNL     1     112.202 128.233 137.644  0.00  0.00    +0.000 A 
ATOM      5  C   UNL     1     110.887 128.542 138.111  0.00  0.00    +0.000 A 
ATOM      6  C   UNL     1     112.525 128.692 138.248  0.00  0.00    +0.000 A 
ATOM      7  C   UNL     1     111.210 129.001 138.715  0.00  0.00    +0.000 A 
ATOM      8  C   UNL     1     112.028 129.077 138.784  0.00  0.00    +0.000 A 
ENDROOT
BRANCH   4  10
ATOM      9  O   UNL     1     112.913 128.220 136.404  0.00  0.00    +0.000 OA
ATOM     10  C   UNL     1     112.698 127.848 137.108  0.00  0.00    +0.000 C 
BRANCH  10  11
ATOM     11  C   UNL     1     112.978 127.090 137.277  0.00  0.00    +0.000 C 
BRANCH  11  13
ATOM     12  O   UNL     1     113.815 127.136 136.119  0.00  0.00    +0.000 OA
ATOM     13  C   UNL     1     113.500 126.719 136.757  0.00  0.00    +0.000 C 
BRANCH  13  14
ATOM     14  C   UNL     1     113.707 125.928 136.876  0.00  0.00    +0.000 A 
ATOM     15  C   UNL     1     114.346 125.738 137.362  0.00  0.00    +0.000 A 
ATOM     16  C   UNL     1     113.275 125.330 136.508  0.00  0.00    +0.000 A 
ATOM     17  C   UNL     1     114.553 124.948 137.480  0.00  0.00    +0.000 A 
ATOM     18  C   UNL     1     113.482 124.539 136.627  0.00  0.00    +0.000 A 
ATOM     19  C   UNL     1     114.121 124.349 137.113  0.00  0.00    +0.000 A 
ENDBRANCH  13  14
ENDBRANCH  11  13
ENDBRANCH  10  11
ENDBRANCH   4  10
BRANCH   3  20
ATOM     20  O   UNL     1     111.060 127.697 136.971  0.00  0.00    +0.000 OA
BRANCH  20  29
ATOM     21  O   UNL     1     110.216 128.633 136.299  0.00  0.00    +0.000 OA
ATOM     22  O   UNL     1     108.350 127.010 136.384  0.00  0.00    +0.000 OA
ATOM     23  O   UNL     1     108.127 128.487 135.684  0.00  0.00    +0.000 OA
ATOM     24  O   UNL     1     109.816 126.615 137.027  0.00  0.00    +0.000 OA
ATOM     25  C   UNL     1     108.972 127.551 136.356  0.00  0.00    +0.000 C 
ATOM     26  C   UNL     1     108.861 128.290 136.005  0.00  0.00    +0.000 C 
ATOM     27  C   UNL     1     109.705 127.354 136.677  0.00  0.00    +0.000 C 
ATOM     28  C   UNL     1     109.483 128.831 135.977  0.00  0.00    +0.000 C 
ATOM     29  C   UNL     1     110.328 127.895 136.649  0.00  0.00    +0.000 C 
BRANCH  28  31
ATOM     30  O   UNL     1     109.968 129.902 135.164  0.00  0.00    +0.000 OA
ATOM     31  C   UNL     1     109.371 129.569 135.627  0.00  0.00    +0.000 C 
ENDBRANCH  28  31
ENDBRANCH  20  29
ENDBRANCH   3  20
TORSDOF 7
ENDMDL
MODEL 9
REMARK VINA RESULT:      -8.0     11.180     13.469
REMARK  Name = 42607637
REMARK  7 active torsions:
REMARK  status: ('A' for Active; 'I' for Inactive)
REMARK    1  A    between atoms: O_2  and  C_15
REMARK    2  A    between atoms: O_2  and  C_17
REMARK    3  A    between atoms: C_14  and  C_16
REMARK    4  A    between atoms: C_18  and  C_21
REMARK    5  A    between atoms: C_21  and  C_24
REMARK    6  A    between atoms: C_24  and  C_25
REMARK    7  A    between atoms: C_25  and  C_26
REMARK                            x       y       z     vdW  Elec       q    Type
REMARK                         _______ _______ _______ _____ _____    ______ ____
ROOT
ATOM      1  O   UNL     1     111.619 129.189 137.418  0.00  0.00    +0.000 OA
ATOM      2  O   UNL     1     111.920 127.095 139.338  0.00  0.00    +0.000 OA
ATOM      3  C   UNL     1     112.676 127.282 137.300  0.00  0.00    +0.000 A 
ATOM      4  C   UNL     1     112.374 128.021 137.090  0.00  0.00    +0.000 A 
ATOM      5  C   UNL     1     112.524 126.974 138.050  0.00  0.00    +0.000 A 
ATOM      6  C   UNL     1     111.921 128.451 137.629  0.00  0.00    +0.000 A 
ATOM      7  C   UNL     1     112.071 127.403 138.589  0.00  0.00    +0.000 A 
ATOM      8  C   UNL     1     111.770 128.141 138.379  0.00  0.00    +0.000 A 
ENDROOT
BRANCH   4  10
ATOM      9  O   UNL     1     112.005 128.178 135.718  0.00  0.00    +0.000 OA
ATOM     10  C   UNL     1     112.526 128.330 136.340  0.00  0.00    +0.000 C 
BRANCH  10  11
ATOM     11  C   UNL     1     113.199 128.791 136.212  0.00  0.00    +0.000 C 
BRANCH  11  13
ATOM     12  O   UNL     1     112.724 129.125 134.906  0.00  0.00    +0.000 OA
ATOM     13  C   UNL     1     113.312 129.162 135.484  0.00  0.00    +0.000 C 
BRANCH  13  14
ATOM     14  C   UNL     1     114.013 129.572 135.335  0.00  0.00    +0.000 A 
ATOM     15  C   UNL     1     114.561 129.270 134.798  0.00  0.00    +0.000 A 
ATOM     16  C   UNL     1     114.164 130.284 135.724  0.00  0.00    +0.000 A 
ATOM     17  C   UNL     1     115.261 129.680 134.649  0.00  0.00    +0.000 A 
ATOM     18  C   UNL     1     114.865 130.694 135.574  0.00  0.00    +0.000 A 
ATOM     19  C   UNL     1     115.413 130.392 135.037  0.00  0.00    +0.000 A 
ENDBRANCH  13  14
ENDBRANCH  11  13
ENDBRANCH  10  11
ENDBRANCH   4  10
BRANCH   3  20
ATOM     20  O   UNL     1     113.129 126.853 136.761  0.00  0.00    +0.000 OA
BRANCH  20  29
ATOM     21  O   UNL     1     112.379 125.647 136.614  0.00  0.00    +0.000 OA
ATOM     22  O   UNL     1     114.426 124.322 137.035  0.00  0.00    +0.000 OA
ATOM     23  O   UNL     1     112.993 123.557 136.747  0.00  0.00    +0.000 OA
ATOM     24  O   UNL     1     114.494 125.969 137.041  0.00  0.00    +0.000 OA
ATOM     25  C   UNL     1     113.744 124.763 136.894  0.00  0.00    +0.000 C 
ATOM     26  C   UNL     1     113.026 124.381 136.751  0.00  0.00    +0.000 C 
ATOM     27  C   UNL     1     113.777 125.588 136.898  0.00  0.00    +0.000 C 
ATOM     28  C   UNL     1     112.344 124.823 136.610  0.00  0.00    +0.000 C 
ATOM     29  C   UNL     1     113.095 126.029 136.757  0.00  0.00    +0.000 C 
BRANCH  28  31
ATOM     30  O   UNL     1     111.119 124.722 135.881  0.00  0.00    +0.000 OA
ATOM     31  C   UNL     1     111.628 124.440 136.467  0.00  0.00    +0.000 C 
ENDBRANCH  28  31
ENDBRANCH  20  29
ENDBRANCH   3  20
TORSDOF 7
ENDMDL
MODEL 10
REMARK VINA RESULT:      -7.9     11.696     12.923
REMARK  Name = 42607637
REMARK  7 active torsions:
REMARK  status: ('A' for Active; 'I' for Inactive)
REMARK    1  A    between atoms: O_2  and  C_15
REMARK    2  A    between atoms: O_2  and  C_17
REMARK    3  A    between atoms: C_14  and  C_16
REMARK    4  A    between atoms: C_18  and  C_21
REMARK    5  A    between atoms: C_21  and  C_24
REMARK    6  A    between atoms: C_24  and  C_25
REMARK    7  A    between atoms: C_25  and  C_26
REMARK                            x       y       z     vdW  Elec       q    Type
REMARK                         _______ _______ _______ _____ _____    ______ ____
ROOT
ATOM      1  O   UNL     1     113.776 127.881 136.389  0.00  0.00    +0.000 OA
ATOM      2  O   UNL     1     112.319 129.578 134.612  0.00  0.00    +0.000 OA
ATOM      3  C   UNL     1     111.628 128.152 136.112  0.00  0.00    +0.000 A 
ATOM      4  C   UNL     1     112.348 127.872 136.403  0.00  0.00    +0.000 A 
ATOM      5  C   UNL     1     111.619 128.721 135.515  0.00  0.00    +0.000 A 
ATOM      6  C   UNL     1     113.058 128.161 136.097  0.00  0.00    +0.000 A 
ATOM      7  C   UNL     1     112.329 129.010 135.209  0.00  0.00    +0.000 A 
ATOM      8  C   UNL     1     113.047 128.730 135.500  0.00  0.00    +0.000 A 
ENDROOT
BRANCH   4  10
ATOM      9  O   UNL     1     112.325 127.534 137.792  0.00  0.00    +0.000 OA
ATOM     10  C   UNL     1     112.357 127.303 137.001  0.00  0.00    +0.000 C 
BRANCH  10  11
ATOM     11  C   UNL     1     112.399 126.501 136.806  0.00  0.00    +0.000 C 
BRANCH  11  13
ATOM     12  O   UNL     1     112.460 126.168 138.194  0.00  0.00    +0.000 OA
ATOM     13  C   UNL     1     112.437 125.934 137.403  0.00  0.00    +0.000 C 
BRANCH  13  14
ATOM     14  C   UNL     1     112.453 125.132 137.209  0.00  0.00    +0.000 A 
ATOM     15  C   UNL     1     113.171 124.762 137.041  0.00  0.00    +0.000 A 
ATOM     16  C   UNL     1     111.750 124.700 137.184  0.00  0.00    +0.000 A 
ATOM     17  C   UNL     1     113.186 123.960 136.847  0.00  0.00    +0.000 A 
ATOM     18  C   UNL     1     111.765 123.898 136.990  0.00  0.00    +0.000 A 
ATOM     19  C   UNL     1     112.483 123.528 136.821  0.00  0.00    +0.000 A 
ENDBRANCH  13  14
ENDBRANCH  11  13
ENDBRANCH  10  11
ENDBRANCH   4  10
BRANCH   3  20
ATOM     20  O   UNL     1     110.919 127.863 136.418  0.00  0.00    +0.000 OA
BRANCH  20  29
ATOM     21  O   UNL     1     110.301 129.057 136.898  0.00  0.00    +0.000 OA
ATOM     22  O   UNL     1     108.199 128.431 135.752  0.00  0.00    +0.000 OA
ATOM     23  O   UNL     1     108.281 129.835 136.614  0.00  0.00    +0.000 OA
ATOM     24  O   UNL     1     109.517 127.445 135.654  0.00  0.00    +0.000 OA
ATOM     25  C   UNL     1     108.900 128.640 136.134  0.00  0.00    +0.000 C 
ATOM     26  C   UNL     1     108.941 129.342 136.565  0.00  0.00    +0.000 C 
ATOM     27  C   UNL     1     109.559 128.147 136.085  0.00  0.00    +0.000 C 
ATOM     28  C   UNL     1     109.642 129.551 136.947  0.00  0.00    +0.000 C 
ATOM     29  C   UNL     1     110.260 128.356 136.467  0.00  0.00    +0.000 C 
BRANCH  28  31
ATOM     30  O   UNL     1     110.048 130.263 138.118  0.00  0.00    +0.000 OA
ATOM     31  C   UNL     1     109.683 130.253 137.378  0.00  0.00    +0.000 C 
ENDBRANCH  28  31
ENDBRANCH  20  29
ENDBRANCH   3  20
TORSDOF 7
ENDMDL
