MODEL 1
REMARK VINA RESULT:      -8.4      0.000      0.000
REMARK  Name = 4789
REMARK  7 active torsions:
REMARK  status: ('A' for Active; 'I' for Inactive)
REMARK    1  A    between atoms: O_2  and  C_15
REMARK    2  A    between atoms: O_2  and  C_17
REMARK    3  A    between atoms: C_14  and  C_16
REMARK    4  A    between atoms: C_18  and  C_20
REMARK    5  A    between atoms: C_20  and  C_22
REMARK    6  A    between atoms: C_22  and  C_24
REMARK    7  A    between atoms: C_24  and  C_26
REMARK                            x       y       z     vdW  Elec       q    Type
REMARK                         _______ _______ _______ _____ _____    ______ ____
ROOT
ATOM      1  O   UNL     1     108.457 125.433 147.668  0.00  0.00    +0.000 OA
ATOM      2  O   UNL     1     107.066 123.869 149.612  0.00  0.00    +0.000 OA
ATOM      3  C   UNL     1     106.351 124.879 147.815  0.00  0.00    +0.000 A 
ATOM      4  C   UNL     1     107.052 125.213 147.535  0.00  0.00    +0.000 A 
ATOM      5  C   UNL     1     106.356 124.431 148.507  0.00  0.00    +0.000 A 
ATOM      6  C   UNL     1     107.757 125.099 147.947  0.00  0.00    +0.000 A 
ATOM      7  C   UNL     1     107.061 124.317 148.920  0.00  0.00    +0.000 A 
ATOM      8  C   UNL     1     107.761 124.651 148.640  0.00  0.00    +0.000 A 
ENDROOT
BRANCH   4  10
ATOM      9  O   UNL     1     107.101 125.288 146.108  0.00  0.00    +0.000 OA
ATOM     10  C   UNL     1     107.046 125.661 146.842  0.00  0.00    +0.000 C 
BRANCH  10  11
ATOM     11  C   UNL     1     106.986 126.484 146.884  0.00  0.00    +0.000 C 
BRANCH  11  12
ATOM     12  C   UNL     1     106.917 126.927 146.192  0.00  0.00    +0.000 C 
BRANCH  12  14
ATOM     13  O   UNL     1     106.722 130.217 146.356  0.00  0.00    +0.000 OA
ATOM     14  C   UNL     1     106.868 127.750 146.233  0.00  0.00    +0.000 A 
ATOM     15  C   UNL     1     106.170 128.110 146.487  0.00  0.00    +0.000 A 
ATOM     16  C   UNL     1     107.517 128.213 146.020  0.00  0.00    +0.000 A 
ATOM     17  C   UNL     1     106.122 128.932 146.528  0.00  0.00    +0.000 A 
ATOM     18  C   UNL     1     107.468 129.036 146.061  0.00  0.00    +0.000 A 
ATOM     19  C   UNL     1     106.771 129.396 146.315  0.00  0.00    +0.000 A 
ENDBRANCH  12  14
ENDBRANCH  11  12
ENDBRANCH  10  11
ENDBRANCH   4  10
BRANCH   3  20
ATOM     20  O   UNL     1     105.646 124.993 147.402  0.00  0.00    +0.000 OA
BRANCH  20  29
ATOM     21  O   UNL     1     104.791 125.472 148.441  0.00  0.00    +0.000 OA
ATOM     22  O   UNL     1     103.031 123.887 147.725  0.00  0.00    +0.000 OA
ATOM     23  O   UNL     1     102.763 124.895 149.004  0.00  0.00    +0.000 OA
ATOM     24  O   UNL     1     104.472 123.937 146.924  0.00  0.00    +0.000 OA
ATOM     25  C   UNL     1     103.618 124.415 147.964  0.00  0.00    +0.000 C 
ATOM     26  C   UNL     1     103.484 124.920 148.604  0.00  0.00    +0.000 C 
ATOM     27  C   UNL     1     104.338 124.440 147.563  0.00  0.00    +0.000 C 
ATOM     28  C   UNL     1     104.070 125.448 148.842  0.00  0.00    +0.000 C 
ATOM     29  C   UNL     1     104.925 124.969 147.802  0.00  0.00    +0.000 C 
BRANCH  28  31
ATOM     30  O   UNL     1     104.204 126.731 149.456  0.00  0.00    +0.000 OA
ATOM     31  C   UNL     1     103.936 125.951 149.481  0.00  0.00    +0.000 C 
ENDBRANCH  28  31
ENDBRANCH  20  29
ENDBRANCH   3  20
TORSDOF 7
ENDMDL
MODEL 2
REMARK VINA RESULT:      -8.4     12.013     13.969
REMARK  Name = 4789
REMARK  7 active torsions:
REMARK  status: ('A' for Active; 'I' for Inactive)
REMARK    1  A    between atoms: O_2  and  C_15
REMARK    2  A    between atoms: O_2  and  C_17
REMARK    3  A    between atoms: C_14  and  C_16
REMARK    4  A    between atoms: C_18  and  C_20
REMARK    5  A    between atoms: C_20  and  C_22
REMARK    6  A    between atoms: C_22  and  C_24
REMARK    7  A    between atoms: C_24  and  C_26
REMARK                            x       y       z     vdW  Elec       q    Type
REMARK                         _______ _______ _______ _____ _____    ______ ____
ROOT
ATOM      1  O   UNL     1     114.559 128.720 134.781  0.00  0.00    +0.000 OA
ATOM      2  O   UNL     1     114.943 131.258 136.033  0.00  0.00    +0.000 OA
ATOM      3  C   UNL     1     113.675 129.571 136.586  0.00  0.00    +0.000 A 
ATOM      4  C   UNL     1     113.848 129.040 135.977  0.00  0.00    +0.000 A 
ATOM      5  C   UNL     1     114.040 130.310 136.604  0.00  0.00    +0.000 A 
ATOM      6  C   UNL     1     114.386 129.250 135.388  0.00  0.00    +0.000 A 
ATOM      7  C   UNL     1     114.579 130.519 136.015  0.00  0.00    +0.000 A 
ATOM      8  C   UNL     1     114.751 129.989 135.407  0.00  0.00    +0.000 A 
ENDROOT
BRANCH   4  10
ATOM      9  O   UNL     1     112.757 128.208 135.578  0.00  0.00    +0.000 OA
ATOM     10  C   UNL     1     113.482 128.301 135.959  0.00  0.00    +0.000 C 
BRANCH  10  11
ATOM     11  C   UNL     1     113.843 127.654 136.323  0.00  0.00    +0.000 C 
BRANCH  11  12
ATOM     12  C   UNL     1     113.466 126.920 136.327  0.00  0.00    +0.000 C 
BRANCH  12  14
ATOM     13  O   UNL     1     114.945 124.315 137.710  0.00  0.00    +0.000 OA
ATOM     14  C   UNL     1     113.836 126.268 136.673  0.00  0.00    +0.000 A 
ATOM     15  C   UNL     1     113.702 126.092 137.468  0.00  0.00    +0.000 A 
ATOM     16  C   UNL     1     114.340 125.794 136.224  0.00  0.00    +0.000 A 
ATOM     17  C   UNL     1     114.072 125.441 137.813  0.00  0.00    +0.000 A 
ATOM     18  C   UNL     1     114.710 125.142 136.570  0.00  0.00    +0.000 A 
ATOM     19  C   UNL     1     114.576 124.966 137.365  0.00  0.00    +0.000 A 
ENDBRANCH  12  14
ENDBRANCH  11  12
ENDBRANCH  10  11
ENDBRANCH   4  10
BRANCH   3  20
ATOM     20  O   UNL     1     113.136 129.362 137.175  0.00  0.00    +0.000 OA
BRANCH  20  29
ATOM     21  O   UNL     1     112.142 130.376 137.026  0.00  0.00    +0.000 OA
ATOM     22  O   UNL     1     112.182 130.773 139.469  0.00  0.00    +0.000 OA
ATOM     23  O   UNL     1     111.174 131.656 138.506  0.00  0.00    +0.000 OA
ATOM     24  O   UNL     1     113.163 129.627 138.803  0.00  0.00    +0.000 OA
ATOM     25  C   UNL     1     112.169 130.641 138.655  0.00  0.00    +0.000 C 
ATOM     26  C   UNL     1     111.664 131.082 138.172  0.00  0.00    +0.000 C 
ATOM     27  C   UNL     1     112.659 130.067 138.321  0.00  0.00    +0.000 C 
ATOM     28  C   UNL     1     111.651 130.950 137.358  0.00  0.00    +0.000 C 
ATOM     29  C   UNL     1     112.646 129.935 137.507  0.00  0.00    +0.000 C 
BRANCH  28  31
ATOM     30  O   UNL     1     110.721 131.021 136.275  0.00  0.00    +0.000 OA
ATOM     31  C   UNL     1     111.147 131.391 136.877  0.00  0.00    +0.000 C 
ENDBRANCH  28  31
ENDBRANCH  20  29
ENDBRANCH   3  20
TORSDOF 7
ENDMDL
MODEL 3
REMARK VINA RESULT:      -8.1     10.505     12.315
REMARK  Name = 4789
REMARK  7 active torsions:
REMARK  status: ('A' for Active; 'I' for Inactive)
REMARK    1  A    between atoms: O_2  and  C_15
REMARK    2  A    between atoms: O_2  and  C_17
REMARK    3  A    between atoms: C_14  and  C_16
REMARK    4  A    between atoms: C_18  and  C_20
REMARK    5  A    between atoms: C_20  and  C_22
REMARK    6  A    between atoms: C_22  and  C_24
REMARK    7  A    between atoms: C_24  and  C_26
REMARK                            x       y       z     vdW  Elec       q    Type
REMARK                         _______ _______ _______ _____ _____    ______ ____
ROOT
ATOM      1  O   UNL     1     114.029 124.840 136.275  0.00  0.00    +0.000 OA
ATOM      2  O   UNL     1     111.712 123.267 136.838  0.00  0.00    +0.000 OA
ATOM      3  C   UNL     1     112.310 125.237 137.561  0.00  0.00    +0.000 A 
ATOM      4  C   UNL     1     113.030 125.334 137.168  0.00  0.00    +0.000 A 
ATOM      5  C   UNL     1     111.871 124.547 137.450  0.00  0.00    +0.000 A 
ATOM      6  C   UNL     1     113.310 124.743 136.666  0.00  0.00    +0.000 A 
ATOM      7  C   UNL     1     112.151 123.956 136.948  0.00  0.00    +0.000 A 
ATOM      8  C   UNL     1     112.870 124.053 136.557  0.00  0.00    +0.000 A 
ENDROOT
BRANCH   4  10
ATOM      9  O   UNL     1     113.934 126.114 137.954  0.00  0.00    +0.000 OA
ATOM     10  C   UNL     1     113.469 126.024 137.279  0.00  0.00    +0.000 C 
BRANCH  10  11
ATOM     11  C   UNL     1     113.442 126.625 136.713  0.00  0.00    +0.000 C 
BRANCH  11  12
ATOM     12  C   UNL     1     113.810 127.348 136.862  0.00  0.00    +0.000 C 
BRANCH  12  14
ATOM     13  O   UNL     1     113.679 129.758 134.612  0.00  0.00    +0.000 OA
ATOM     14  C   UNL     1     113.778 127.951 136.299  0.00  0.00    +0.000 A 
ATOM     15  C   UNL     1     114.397 128.049 135.764  0.00  0.00    +0.000 A 
ATOM     16  C   UNL     1     113.125 128.454 136.273  0.00  0.00    +0.000 A 
ATOM     17  C   UNL     1     114.364 128.652 135.202  0.00  0.00    +0.000 A 
ATOM     18  C   UNL     1     113.092 129.058 135.710  0.00  0.00    +0.000 A 
ATOM     19  C   UNL     1     113.712 129.156 135.174  0.00  0.00    +0.000 A 
ENDBRANCH  12  14
ENDBRANCH  11  12
ENDBRANCH  10  11
ENDBRANCH   4  10
BRANCH   3  20
ATOM     20  O   UNL     1     112.030 125.829 138.063  0.00  0.00    +0.000 OA
BRANCH  20  29
ATOM     21  O   UNL     1     110.783 126.173 137.458  0.00  0.00    +0.000 OA
ATOM     22  O   UNL     1     109.661 125.965 139.654  0.00  0.00    +0.000 OA
ATOM     23  O   UNL     1     108.787 126.379 138.317  0.00  0.00    +0.000 OA
ATOM     24  O   UNL     1     111.282 125.690 139.527  0.00  0.00    +0.000 OA
ATOM     25  C   UNL     1     110.035 126.034 138.922  0.00  0.00    +0.000 C 
ATOM     26  C   UNL     1     109.598 126.242 138.253  0.00  0.00    +0.000 C 
ATOM     27  C   UNL     1     110.846 125.897 138.858  0.00  0.00    +0.000 C 
ATOM     28  C   UNL     1     109.972 126.311 137.521  0.00  0.00    +0.000 C 
ATOM     29  C   UNL     1     111.220 125.966 138.126  0.00  0.00    +0.000 C 
BRANCH  28  31
ATOM     30  O   UNL     1     109.841 127.061 136.311  0.00  0.00    +0.000 OA
ATOM     31  C   UNL     1     109.536 126.518 136.853  0.00  0.00    +0.000 C 
ENDBRANCH  28  31
ENDBRANCH  20  29
ENDBRANCH   3  20
TORSDOF 7
ENDMDL
MODEL 4
REMARK VINA RESULT:      -7.9     10.939     12.518
REMARK  Name = 4789
REMARK  7 active torsions:
REMARK  status: ('A' for Active; 'I' for Inactive)
REMARK    1  A    between atoms: O_2  and  C_15
REMARK    2  A    between atoms: O_2  and  C_17
REMARK    3  A    between atoms: C_14  and  C_16
REMARK    4  A    between atoms: C_18  and  C_20
REMARK    5  A    between atoms: C_20  and  C_22
REMARK    6  A    between atoms: C_22  and  C_24
REMARK    7  A    between atoms: C_24  and  C_26
REMARK                            x       y       z     vdW  Elec       q    Type
REMARK                         _______ _______ _______ _____ _____    ______ ____
ROOT
ATOM      1  O   UNL     1     114.385 126.922 140.675  0.00  0.00    +0.000 OA
ATOM      2  O   UNL     1     114.228 129.738 141.126  0.00  0.00    +0.000 OA
ATOM      3  C   UNL     1     113.151 128.454 139.729  0.00  0.00    +0.000 A 
ATOM      4  C   UNL     1     113.479 127.718 139.909  0.00  0.00    +0.000 A 
ATOM      5  C   UNL     1     113.401 129.127 140.135  0.00  0.00    +0.000 A 
ATOM      6  C   UNL     1     114.057 127.656 140.495  0.00  0.00    +0.000 A 
ATOM      7  C   UNL     1     113.978 129.065 140.721  0.00  0.00    +0.000 A 
ATOM      8  C   UNL     1     114.306 128.331 140.900  0.00  0.00    +0.000 A 
ENDROOT
BRANCH   4  10
ATOM      9  O   UNL     1     112.540 126.655 139.735  0.00  0.00    +0.000 OA
ATOM     10  C   UNL     1     113.230 127.045 139.503  0.00  0.00    +0.000 C 
BRANCH  10  11
ATOM     11  C   UNL     1     113.670 126.761 138.865  0.00  0.00    +0.000 C 
BRANCH  11  12
ATOM     12  C   UNL     1     113.421 126.087 138.460  0.00  0.00    +0.000 C 
BRANCH  12  14
ATOM     13  O   UNL     1     115.119 125.018 135.840  0.00  0.00    +0.000 OA
ATOM     14  C   UNL     1     113.846 125.820 137.804  0.00  0.00    +0.000 A 
ATOM     15  C   UNL     1     113.737 126.177 137.068  0.00  0.00    +0.000 A 
ATOM     16  C   UNL     1     114.379 125.196 137.886  0.00  0.00    +0.000 A 
ATOM     17  C   UNL     1     114.161 125.909 136.414  0.00  0.00    +0.000 A 
ATOM     18  C   UNL     1     114.804 124.929 137.230  0.00  0.00    +0.000 A 
ATOM     19  C   UNL     1     114.695 125.285 136.495  0.00  0.00    +0.000 A 
ENDBRANCH  12  14
ENDBRANCH  11  12
ENDBRANCH  10  11
ENDBRANCH   4  10
BRANCH   3  20
ATOM     20  O   UNL     1     112.573 128.515 139.143  0.00  0.00    +0.000 OA
BRANCH  20  29
ATOM     21  O   UNL     1     113.119 129.500 138.266  0.00  0.00    +0.000 OA
ATOM     22  O   UNL     1     110.986 130.753 138.344  0.00  0.00    +0.000 OA
ATOM     23  O   UNL     1     112.243 131.321 137.440  0.00  0.00    +0.000 OA
ATOM     24  O   UNL     1     111.151 129.350 139.196  0.00  0.00    +0.000 OA
ATOM     25  C   UNL     1     111.697 130.335 138.318  0.00  0.00    +0.000 C 
ATOM     26  C   UNL     1     112.326 130.620 137.866  0.00  0.00    +0.000 C 
ATOM     27  C   UNL     1     111.780 129.634 138.744  0.00  0.00    +0.000 C 
ATOM     28  C   UNL     1     113.037 130.202 137.840  0.00  0.00    +0.000 C 
ATOM     29  C   UNL     1     112.491 129.216 138.718  0.00  0.00    +0.000 C 
BRANCH  28  31
ATOM     30  O   UNL     1     114.084 129.975 136.893  0.00  0.00    +0.000 OA
ATOM     31  C   UNL     1     113.666 130.486 137.388  0.00  0.00    +0.000 C 
ENDBRANCH  28  31
ENDBRANCH  20  29
ENDBRANCH   3  20
TORSDOF 7
ENDMDL
MODEL 5
REMARK VINA RESULT:      -7.9     11.237     13.317
REMARK  Name = 4789
REMARK  7 active torsions:
REMARK  status: ('A' for Active; 'I' for Inactive)
REMARK    1  A    between atoms: O_2  and  C_15
REMARK    2  A    between atoms: O_2  and  C_17
REMARK    3  A    between atoms: C_14  and  C_16
REMARK    4  A    between atoms: C_18  and  C_20
REMARK    5  A    between atoms: C_20  and  C_22
REMARK    6  A    between atoms: C_22  and  C_24
REMARK    7  A    between atoms: C_24  and  C_26
REMARK                            x       y       z     vdW  Elec       q    Type
REMARK                         _______ _______ _______ _____ _____    ______ ____
ROOT
ATOM      1  O   UNL     1     112.504 129.034 138.673  0.00  0.00    +0.000 OA
ATOM      2  O   UNL     1     113.324 126.574 139.872  0.00  0.00    +0.000 OA
ATOM      3  C   UNL     1     113.188 127.165 137.776  0.00  0.00    +0.000 A 
ATOM      4  C   UNL     1     112.914 127.940 137.851  0.00  0.00    +0.000 A 
ATOM      5  C   UNL     1     113.324 126.710 138.450  0.00  0.00    +0.000 A 
ATOM      6  C   UNL     1     112.777 128.259 138.599  0.00  0.00    +0.000 A 
ATOM      7  C   UNL     1     113.187 127.029 139.199  0.00  0.00    +0.000 A 
ATOM      8  C   UNL     1     112.914 127.803 139.273  0.00  0.00    +0.000 A 
ENDROOT
BRANCH   4  10
ATOM      9  O   UNL     1     112.030 128.403 136.827  0.00  0.00    +0.000 OA
ATOM     10  C   UNL     1     112.778 128.395 137.176  0.00  0.00    +0.000 C 
BRANCH  10  11
ATOM     11  C   UNL     1     113.390 128.844 136.851  0.00  0.00    +0.000 C 
BRANCH  11  12
ATOM     12  C   UNL     1     113.240 129.343 136.212  0.00  0.00    +0.000 C 
BRANCH  12  14
ATOM     13  O   UNL     1     115.710 131.044 134.835  0.00  0.00    +0.000 OA
ATOM     14  C   UNL     1     113.858 129.769 135.868  0.00  0.00    +0.000 A 
ATOM     15  C   UNL     1     114.257 129.461 135.215  0.00  0.00    +0.000 A 
ATOM     16  C   UNL     1     114.076 130.502 136.177  0.00  0.00    +0.000 A 
ATOM     17  C   UNL     1     114.874 129.886 134.871  0.00  0.00    +0.000 A 
ATOM     18  C   UNL     1     114.694 130.927 135.832  0.00  0.00    +0.000 A 
ATOM     19  C   UNL     1     115.093 130.619 135.179  0.00  0.00    +0.000 A 
ENDBRANCH  12  14
ENDBRANCH  11  12
ENDBRANCH  10  11
ENDBRANCH   4  10
BRANCH   3  20
ATOM     20  O   UNL     1     113.325 126.846 137.028  0.00  0.00    +0.000 OA
BRANCH  20  29
ATOM     21  O   UNL     1     112.429 125.734 137.023  0.00  0.00    +0.000 OA
ATOM     22  O   UNL     1     114.246 124.272 136.195  0.00  0.00    +0.000 OA
ATOM     23  O   UNL     1     112.744 123.647 136.467  0.00  0.00    +0.000 OA
ATOM     24  O   UNL     1     114.537 125.871 136.476  0.00  0.00    +0.000 OA
ATOM     25  C   UNL     1     113.641 124.760 136.471  0.00  0.00    +0.000 C 
ATOM     26  C   UNL     1     112.889 124.447 136.607  0.00  0.00    +0.000 C 
ATOM     27  C   UNL     1     113.785 125.559 136.612  0.00  0.00    +0.000 C 
ATOM     28  C   UNL     1     112.283 124.934 136.883  0.00  0.00    +0.000 C 
ATOM     29  C   UNL     1     113.180 126.047 136.888  0.00  0.00    +0.000 C 
BRANCH  28  31
ATOM     30  O   UNL     1     110.861 125.044 136.791  0.00  0.00    +0.000 OA
ATOM     31  C   UNL     1     111.532 124.621 137.019  0.00  0.00    +0.000 C 
ENDBRANCH  28  31
ENDBRANCH  20  29
ENDBRANCH   3  20
TORSDOF 7
ENDMDL
MODEL 6
REMARK VINA RESULT:      -7.9     10.680     13.012
REMARK  Name = 4789
REMARK  7 active torsions:
REMARK  status: ('A' for Active; 'I' for Inactive)
REMARK    1  A    between atoms: O_2  and  C_15
REMARK    2  A    between atoms: O_2  and  C_17
REMARK    3  A    between atoms: C_14  and  C_16
REMARK    4  A    between atoms: C_18  and  C_20
REMARK    5  A    between atoms: C_20  and  C_22
REMARK    6  A    between atoms: C_22  and  C_24
REMARK    7  A    between atoms: C_24  and  C_26
REMARK                            x       y       z     vdW  Elec       q    Type
REMARK                         _______ _______ _______ _____ _____    ______ ____
ROOT
ATOM      1  O   UNL     1     114.194 129.303 136.079  0.00  0.00    +0.000 OA
ATOM      2  O   UNL     1     112.996 131.248 137.795  0.00  0.00    +0.000 OA
ATOM      3  C   UNL     1     112.326 129.256 137.208  0.00  0.00    +0.000 A 
ATOM      4  C   UNL     1     112.944 129.024 136.711  0.00  0.00    +0.000 A 
ATOM      5  C   UNL     1     112.344 129.998 137.569  0.00  0.00    +0.000 A 
ATOM      6  C   UNL     1     113.578 129.534 136.576  0.00  0.00    +0.000 A 
ATOM      7  C   UNL     1     112.979 130.507 137.433  0.00  0.00    +0.000 A 
ATOM      8  C   UNL     1     113.595 130.276 136.937  0.00  0.00    +0.000 A 
ENDROOT
BRANCH   4  10
ATOM      9  O   UNL     1     112.529 128.182 135.633  0.00  0.00    +0.000 OA
ATOM     10  C   UNL     1     112.926 128.283 136.350  0.00  0.00    +0.000 C 
BRANCH  10  11
ATOM     11  C   UNL     1     113.305 127.642 136.706  0.00  0.00    +0.000 C 
BRANCH  11  12
ATOM     12  C   UNL     1     113.236 126.888 136.378  0.00  0.00    +0.000 C 
BRANCH  12  14
ATOM     13  O   UNL     1     114.948 124.372 137.653  0.00  0.00    +0.000 OA
ATOM     14  C   UNL     1     113.664 126.259 136.697  0.00  0.00    +0.000 A 
ATOM     15  C   UNL     1     113.451 125.944 137.429  0.00  0.00    +0.000 A 
ATOM     16  C   UNL     1     114.305 125.945 136.283  0.00  0.00    +0.000 A 
ATOM     17  C   UNL     1     113.879 125.315 137.748  0.00  0.00    +0.000 A 
ATOM     18  C   UNL     1     114.733 125.315 136.602  0.00  0.00    +0.000 A 
ATOM     19  C   UNL     1     114.520 125.001 137.335  0.00  0.00    +0.000 A 
ENDBRANCH  12  14
ENDBRANCH  11  12
ENDBRANCH  10  11
ENDBRANCH   4  10
BRANCH   3  20
ATOM     20  O   UNL     1     111.692 128.746 137.343  0.00  0.00    +0.000 OA
BRANCH  20  29
ATOM     21  O   UNL     1     110.596 129.535 136.879  0.00  0.00    +0.000 OA
ATOM     22  O   UNL     1     109.337 129.000 138.941  0.00  0.00    +0.000 OA
ATOM     23  O   UNL     1     108.660 129.968 137.789  0.00  0.00    +0.000 OA
ATOM     24  O   UNL     1     110.853 128.390 138.718  0.00  0.00    +0.000 OA
ATOM     25  C   UNL     1     109.757 129.179 138.254  0.00  0.00    +0.000 C 
ATOM     26  C   UNL     1     109.418 129.663 137.677  0.00  0.00    +0.000 C 
ATOM     27  C   UNL     1     110.515 128.873 138.142  0.00  0.00    +0.000 C 
ATOM     28  C   UNL     1     109.838 129.841 136.989  0.00  0.00    +0.000 C 
ATOM     29  C   UNL     1     110.934 129.052 137.454  0.00  0.00    +0.000 C 
BRANCH  28  31
ATOM     30  O   UNL     1     109.561 130.123 135.616  0.00  0.00    +0.000 OA
ATOM     31  C   UNL     1     109.499 130.324 136.414  0.00  0.00    +0.000 C 
ENDBRANCH  28  31
ENDBRANCH  20  29
ENDBRANCH   3  20
TORSDOF 7
ENDMDL
MODEL 7
REMARK VINA RESULT:      -7.8      9.151     11.346
REMARK  Name = 4789
REMARK  7 active torsions:
REMARK  status: ('A' for Active; 'I' for Inactive)
REMARK    1  A    between atoms: O_2  and  C_15
REMARK    2  A    between atoms: O_2  and  C_17
REMARK    3  A    between atoms: C_14  and  C_16
REMARK    4  A    between atoms: C_18  and  C_20
REMARK    5  A    between atoms: C_20  and  C_22
REMARK    6  A    between atoms: C_22  and  C_24
REMARK    7  A    between atoms: C_24  and  C_26
REMARK                            x       y       z     vdW  Elec       q    Type
REMARK                         _______ _______ _______ _____ _____    ______ ____
ROOT
ATOM      1  O   UNL     1     110.351 125.672 136.825  0.00  0.00    +0.000 OA
ATOM      2  O   UNL     1     109.195 127.756 138.402  0.00  0.00    +0.000 OA
ATOM      3  C   UNL     1     110.726 126.279 138.888  0.00  0.00    +0.000 A 
ATOM      4  C   UNL     1     110.777 125.866 138.174  0.00  0.00    +0.000 A 
ATOM      5  C   UNL     1     110.199 126.908 138.963  0.00  0.00    +0.000 A 
ATOM      6  C   UNL     1     110.300 126.084 137.537  0.00  0.00    +0.000 A 
ATOM      7  C   UNL     1     109.722 127.126 138.326  0.00  0.00    +0.000 A 
ATOM      8  C   UNL     1     109.773 126.714 137.614  0.00  0.00    +0.000 A 
ENDROOT
BRANCH   4  10
ATOM      9  O   UNL     1     111.104 124.493 138.394  0.00  0.00    +0.000 OA
ATOM     10  C   UNL     1     111.304 125.237 138.099  0.00  0.00    +0.000 C 
BRANCH  10  11
ATOM     11  C   UNL     1     112.033 125.352 137.729  0.00  0.00    +0.000 C 
BRANCH  11  12
ATOM     12  C   UNL     1     112.549 124.716 137.628  0.00  0.00    +0.000 C 
BRANCH  12  14
ATOM     13  O   UNL     1     115.481 125.184 136.188  0.00  0.00    +0.000 OA
ATOM     14  C   UNL     1     113.282 124.833 137.268  0.00  0.00    +0.000 A 
ATOM     15  C   UNL     1     113.904 125.165 137.697  0.00  0.00    +0.000 A 
ATOM     16  C   UNL     1     113.393 124.618 136.479  0.00  0.00    +0.000 A 
ATOM     17  C   UNL     1     114.637 125.281 137.337  0.00  0.00    +0.000 A 
ATOM     18  C   UNL     1     114.127 124.735 136.119  0.00  0.00    +0.000 A 
ATOM     19  C   UNL     1     114.748 125.067 136.548  0.00  0.00    +0.000 A 
ENDBRANCH  12  14
ENDBRANCH  11  12
ENDBRANCH  10  11
ENDBRANCH   4  10
BRANCH   3  20
ATOM     20  O   UNL     1     111.203 126.061 139.525  0.00  0.00    +0.000 OA
BRANCH  20  29
ATOM     21  O   UNL     1     111.946 127.248 139.803  0.00  0.00    +0.000 OA
ATOM     22  O   UNL     1     111.271 127.114 142.181  0.00  0.00    +0.000 OA
ATOM     23  O   UNL     1     112.240 128.346 141.667  0.00  0.00    +0.000 OA
ATOM     24  O   UNL     1     110.753 125.971 141.110  0.00  0.00    +0.000 OA
ATOM     25  C   UNL     1     111.496 127.158 141.388  0.00  0.00    +0.000 C 
ATOM     26  C   UNL     1     111.981 127.775 141.131  0.00  0.00    +0.000 C 
ATOM     27  C   UNL     1     111.237 126.587 140.853  0.00  0.00    +0.000 C 
ATOM     28  C   UNL     1     112.206 127.820 140.338  0.00  0.00    +0.000 C 
ATOM     29  C   UNL     1     111.462 126.632 140.060  0.00  0.00    +0.000 C 
BRANCH  28  31
ATOM     30  O   UNL     1     113.208 128.319 139.450  0.00  0.00    +0.000 OA
ATOM     31  C   UNL     1     112.690 128.436 140.082  0.00  0.00    +0.000 C 
ENDBRANCH  28  31
ENDBRANCH  20  29
ENDBRANCH   3  20
TORSDOF 7
ENDMDL
MODEL 8
REMARK VINA RESULT:      -7.8     10.979     12.478
REMARK  Name = 4789
REMARK  7 active torsions:
REMARK  status: ('A' for Active; 'I' for Inactive)
REMARK    1  A    between atoms: O_2  and  C_15
REMARK    2  A    between atoms: O_2  and  C_17
REMARK    3  A    between atoms: C_14  and  C_16
REMARK    4  A    between atoms: C_18  and  C_20
REMARK    5  A    between atoms: C_20  and  C_22
REMARK    6  A    between atoms: C_22  and  C_24
REMARK    7  A    between atoms: C_24  and  C_26
REMARK                            x       y       z     vdW  Elec       q    Type
REMARK                         _______ _______ _______ _____ _____    ______ ____
ROOT
ATOM      1  O   UNL     1     113.895 125.681 137.660  0.00  0.00    +0.000 OA
ATOM      2  O   UNL     1     113.556 126.723 140.299  0.00  0.00    +0.000 OA
ATOM      3  C   UNL     1     112.806 127.432 138.376  0.00  0.00    +0.000 A 
ATOM      4  C   UNL     1     113.121 126.864 137.867  0.00  0.00    +0.000 A 
ATOM      5  C   UNL     1     112.952 127.385 139.187  0.00  0.00    +0.000 A 
ATOM      6  C   UNL     1     113.581 126.249 138.169  0.00  0.00    +0.000 A 
ATOM      7  C   UNL     1     113.411 126.770 139.489  0.00  0.00    +0.000 A 
ATOM      8  C   UNL     1     113.726 126.202 138.980  0.00  0.00    +0.000 A 
ENDROOT
BRANCH   4  10
ATOM      9  O   UNL     1     113.514 127.295 136.562  0.00  0.00    +0.000 OA
ATOM     10  C   UNL     1     112.976 126.911 137.056  0.00  0.00    +0.000 C 
BRANCH  10  11
ATOM     11  C   UNL     1     112.292 126.574 136.740  0.00  0.00    +0.000 C 
BRANCH  11  12
ATOM     12  C   UNL     1     112.176 126.568 135.923  0.00  0.00    +0.000 C 
BRANCH  12  14
ATOM     13  O   UNL     1     109.270 125.622 134.679  0.00  0.00    +0.000 OA
ATOM     14  C   UNL     1     111.449 126.331 135.612  0.00  0.00    +0.000 A 
ATOM     15  C   UNL     1     110.960 126.882 135.240  0.00  0.00    +0.000 A 
ATOM     16  C   UNL     1     111.212 125.544 135.673  0.00  0.00    +0.000 A 
ATOM     17  C   UNL     1     110.234 126.646 134.930  0.00  0.00    +0.000 A 
ATOM     18  C   UNL     1     110.484 125.307 135.362  0.00  0.00    +0.000 A 
ATOM     19  C   UNL     1     109.996 125.858 134.990  0.00  0.00    +0.000 A 
ENDBRANCH  12  14
ENDBRANCH  11  12
ENDBRANCH  10  11
ENDBRANCH   4  10
BRANCH   3  20
ATOM     20  O   UNL     1     112.347 128.047 138.074  0.00  0.00    +0.000 OA
BRANCH  20  29
ATOM     21  O   UNL     1     113.066 129.204 138.504  0.00  0.00    +0.000 OA
ATOM     22  O   UNL     1     110.973 130.173 139.400  0.00  0.00    +0.000 OA
ATOM     23  O   UNL     1     112.390 131.007 139.531  0.00  0.00    +0.000 OA
ATOM     24  O   UNL     1     110.951 128.694 138.672  0.00  0.00    +0.000 OA
ATOM     25  C   UNL     1     111.670 129.850 139.101  0.00  0.00    +0.000 C 
ATOM     26  C   UNL     1     112.380 130.267 139.167  0.00  0.00    +0.000 C 
ATOM     27  C   UNL     1     111.660 129.110 138.737  0.00  0.00    +0.000 C 
ATOM     28  C   UNL     1     113.078 129.944 138.868  0.00  0.00    +0.000 C 
ATOM     29  C   UNL     1     112.358 128.787 138.438  0.00  0.00    +0.000 C 
BRANCH  28  31
ATOM     30  O   UNL     1     114.263 130.473 138.270  0.00  0.00    +0.000 OA
ATOM     31  C   UNL     1     113.786 130.361 138.934  0.00  0.00    +0.000 C 
ENDBRANCH  28  31
ENDBRANCH  20  29
ENDBRANCH   3  20
TORSDOF 7
ENDMDL
MODEL 9
REMARK VINA RESULT:      -7.8     10.812     12.807
REMARK  Name = 4789
REMARK  7 active torsions:
REMARK  status: ('A' for Active; 'I' for Inactive)
REMARK    1  A    between atoms: O_2  and  C_15
REMARK    2  A    between atoms: O_2  and  C_17
REMARK    3  A    between atoms: C_14  and  C_16
REMARK    4  A    between atoms: C_18  and  C_20
REMARK    5  A    between atoms: C_20  and  C_22
REMARK    6  A    between atoms: C_22  and  C_24
REMARK    7  A    between atoms: C_24  and  C_26
REMARK                            x       y       z     vdW  Elec       q    Type
REMARK                         _______ _______ _______ _____ _____    ______ ____
ROOT
ATOM      1  O   UNL     1     114.595 126.250 135.685  0.00  0.00    +0.000 OA
ATOM      2  O   UNL     1     114.709 124.501 137.941  0.00  0.00    +0.000 OA
ATOM      3  C   UNL     1     113.494 126.275 137.569  0.00  0.00    +0.000 A 
ATOM      4  C   UNL     1     113.755 126.488 136.816  0.00  0.00    +0.000 A 
ATOM      5  C   UNL     1     113.812 125.613 137.944  0.00  0.00    +0.000 A 
ATOM      6  C   UNL     1     114.334 126.038 136.438  0.00  0.00    +0.000 A 
ATOM      7  C   UNL     1     114.391 125.163 137.566  0.00  0.00    +0.000 A 
ATOM      8  C   UNL     1     114.652 125.376 136.813  0.00  0.00    +0.000 A 
ENDROOT
BRANCH   4  10
ATOM      9  O   UNL     1     112.679 127.118 136.118  0.00  0.00    +0.000 OA
ATOM     10  C   UNL     1     113.437 127.150 136.441  0.00  0.00    +0.000 C 
BRANCH  10  11
ATOM     11  C   UNL     1     113.878 127.846 136.389  0.00  0.00    +0.000 C 
BRANCH  11  12
ATOM     12  C   UNL     1     113.571 128.500 135.992  0.00  0.00    +0.000 C 
BRANCH  12  14
ATOM     13  O   UNL     1     115.452 131.168 135.506  0.00  0.00    +0.000 OA
ATOM     14  C   UNL     1     114.041 129.168 135.871  0.00  0.00    +0.000 A 
ATOM     15  C   UNL     1     114.133 129.723 136.474  0.00  0.00    +0.000 A 
ATOM     16  C   UNL     1     114.420 129.279 135.146  0.00  0.00    +0.000 A 
ATOM     17  C   UNL     1     114.603 130.390 136.352  0.00  0.00    +0.000 A 
ATOM     18  C   UNL     1     114.890 129.946 135.025  0.00  0.00    +0.000 A 
ATOM     19  C   UNL     1     114.982 130.502 135.628  0.00  0.00    +0.000 A 
ENDBRANCH  12  14
ENDBRANCH  11  12
ENDBRANCH  10  11
ENDBRANCH   4  10
BRANCH   3  20
ATOM     20  O   UNL     1     112.915 126.725 137.947  0.00  0.00    +0.000 OA
BRANCH  20  29
ATOM     21  O   UNL     1     113.493 127.036 139.216  0.00  0.00    +0.000 OA
ATOM     22  O   UNL     1     111.485 126.138 140.351  0.00  0.00    +0.000 OA
ATOM     23  O   UNL     1     112.733 126.748 141.241  0.00  0.00    +0.000 OA
ATOM     24  O   UNL     1     111.576 126.127 138.704  0.00  0.00    +0.000 OA
ATOM     25  C   UNL     1     112.154 126.437 139.972  0.00  0.00    +0.000 C 
ATOM     26  C   UNL     1     112.779 126.743 140.418  0.00  0.00    +0.000 C 
ATOM     27  C   UNL     1     112.200 126.432 139.149  0.00  0.00    +0.000 C 
ATOM     28  C   UNL     1     113.448 127.042 140.040  0.00  0.00    +0.000 C 
ATOM     29  C   UNL     1     112.870 126.731 138.770  0.00  0.00    +0.000 C 
BRANCH  28  31
ATOM     30  O   UNL     1     114.353 128.108 140.334  0.00  0.00    +0.000 OA
ATOM     31  C   UNL     1     114.071 127.347 140.485  0.00  0.00    +0.000 C 
ENDBRANCH  28  31
ENDBRANCH  20  29
ENDBRANCH   3  20
TORSDOF 7
ENDMDL
MODEL 10
REMARK VINA RESULT:      -7.8     10.106     12.012
REMARK  Name = 4789
REMARK  7 active torsions:
REMARK  status: ('A' for Active; 'I' for Inactive)
REMARK    1  A    between atoms: O_2  and  C_15
REMARK    2  A    between atoms: O_2  and  C_17
REMARK    3  A    between atoms: C_14  and  C_16
REMARK    4  A    between atoms: C_18  and  C_20
REMARK    5  A    between atoms: C_20  and  C_22
REMARK    6  A    between atoms: C_22  and  C_24
REMARK    7  A    between atoms: C_24  and  C_26
REMARK                            x       y       z     vdW  Elec       q    Type
REMARK                         _______ _______ _______ _____ _____    ______ ____
ROOT
ATOM      1  O   UNL     1     111.260 125.839 135.261  0.00  0.00    +0.000 OA
ATOM      2  O   UNL     1     111.589 123.814 137.250  0.00  0.00    +0.000 OA
ATOM      3  C   UNL     1     111.605 125.991 137.411  0.00  0.00    +0.000 A 
ATOM      4  C   UNL     1     111.478 126.206 136.624  0.00  0.00    +0.000 A 
ATOM      5  C   UNL     1     111.642 125.193 137.619  0.00  0.00    +0.000 A 
ATOM      6  C   UNL     1     111.387 125.624 136.046  0.00  0.00    +0.000 A 
ATOM      7  C   UNL     1     111.552 124.611 137.041  0.00  0.00    +0.000 A 
ATOM      8  C   UNL     1     111.425 124.826 136.256  0.00  0.00    +0.000 A 
ENDROOT
BRANCH   4  10
ATOM      9  O   UNL     1     110.724 127.408 136.459  0.00  0.00    +0.000 OA
ATOM     10  C   UNL     1     111.441 127.003 136.416  0.00  0.00    +0.000 C 
BRANCH  10  11
ATOM     11  C   UNL     1     112.122 127.395 136.164  0.00  0.00    +0.000 C 
BRANCH  11  12
ATOM     12  C   UNL     1     112.094 128.202 135.994  0.00  0.00    +0.000 C 
BRANCH  12  14
ATOM     13  O   UNL     1     114.747 129.716 134.745  0.00  0.00    +0.000 OA
ATOM     14  C   UNL     1     112.758 128.581 135.681  0.00  0.00    +0.000 A 
ATOM     15  C   UNL     1     112.727 128.910 134.925  0.00  0.00    +0.000 A 
ATOM     16  C   UNL     1     113.451 128.629 136.125  0.00  0.00    +0.000 A 
ATOM     17  C   UNL     1     113.390 129.288 134.614  0.00  0.00    +0.000 A 
ATOM     18  C   UNL     1     114.115 129.008 135.812  0.00  0.00    +0.000 A 
ATOM     19  C   UNL     1     114.084 129.338 135.057  0.00  0.00    +0.000 A 
ENDBRANCH  12  14
ENDBRANCH  11  12
ENDBRANCH  10  11
ENDBRANCH   4  10
BRANCH   3  20
ATOM     20  O   UNL     1     111.695 126.573 137.988  0.00  0.00    +0.000 OA
BRANCH  20  29
ATOM     21  O   UNL     1     110.606 126.290 138.867  0.00  0.00    +0.000 OA
ATOM     22  O   UNL     1     112.145 126.375 140.803  0.00  0.00    +0.000 OA
ATOM     23  O   UNL     1     110.542 126.064 141.037  0.00  0.00    +0.000 OA
ATOM     24  O   UNL     1     112.722 126.630 139.279  0.00  0.00    +0.000 OA
ATOM     25  C   UNL     1     111.632 126.347 140.158  0.00  0.00    +0.000 C 
ATOM     26  C   UNL     1     110.830 126.191 140.275  0.00  0.00    +0.000 C 
ATOM     27  C   UNL     1     111.920 126.474 139.395  0.00  0.00    +0.000 C 
ATOM     28  C   UNL     1     110.317 126.163 139.629  0.00  0.00    +0.000 C 
ATOM     29  C   UNL     1     111.407 126.446 138.750  0.00  0.00    +0.000 C 
BRANCH  28  31
ATOM     30  O   UNL     1     108.947 126.414 139.308  0.00  0.00    +0.000 OA
ATOM     31  C   UNL     1     109.516 126.007 139.746  0.00  0.00    +0.000 C 
ENDBRANCH  28  31
ENDBRANCH  20  29
ENDBRANCH   3  20
TORSDOF 7
ENDMDL
