MODEL 1
REMARK VINA RESULT:      -9.9      0.000      0.000
REMARK  Name = 129625836
REMARK  7 active torsions:
REMARK  status: ('A' for Active; 'I' for Inactive)
REMARK    1  A    between atoms: O_2  and  C_15
REMARK    2  A    between atoms: O_2  and  C_20
REMARK    3  A    between atoms: O_3  and  C_17
REMARK    4  A    between atoms: O_3  and  C_19
REMARK    5  A    between atoms: C_20  and  C_26
REMARK    6  A    between atoms: C_21  and  C_25
REMARK    7  A    between atoms: C_32  and  C_36
REMARK                            x       y       z     vdW  Elec       q    Type
REMARK                         _______ _______ _______ _____ _____    ______ ____
ROOT
ATOM      1  O   UNL     1     112.699 129.337 137.823  0.00  0.00    +0.000 OA
ENDROOT
BRANCH   1   6
ATOM      2  O   UNL     1     112.198 131.220 136.840  0.00  0.00    +0.000 OA
ATOM      3  O   UNL     1     111.451 129.860 138.768  0.00  0.00    +0.000 OA
ATOM      4  O   UNL     1     110.434 130.830 139.095  0.00  0.00    +0.000 OA
ATOM      5  O   UNL     1     110.168 133.221 137.441  0.00  0.00    +0.000 OA
ATOM      6  C   UNL     1     112.324 130.052 137.653  0.00  0.00    +0.000 A 
ATOM      7  C   UNL     1     112.572 130.505 137.011  0.00  0.00    +0.000 A 
ATOM      8  C   UNL     1     111.700 130.313 138.126  0.00  0.00    +0.000 A 
ATOM      9  C   UNL     1     111.325 131.028 137.956  0.00  0.00    +0.000 A 
ATOM     10  C   UNL     1     111.574 131.482 137.312  0.00  0.00    +0.000 A 
ATOM     11  C   UNL     1     110.677 131.290 138.454  0.00  0.00    +0.000 A 
ATOM     12  C   UNL     1     111.192 132.228 137.125  0.00  0.00    +0.000 A 
ATOM     13  C   UNL     1     110.282 132.033 138.283  0.00  0.00    +0.000 A 
ATOM     14  C   UNL     1     110.541 132.506 137.613  0.00  0.00    +0.000 A 
BRANCH   7  16
ATOM     15  O   UNL     1     115.069 129.463 135.120  0.00  0.00    +0.000 OA
ATOM     16  C   UNL     1     113.196 130.244 136.538  0.00  0.00    +0.000 A 
ATOM     17  C   UNL     1     113.954 130.550 136.649  0.00  0.00    +0.000 A 
ATOM     18  C   UNL     1     113.063 129.678 135.953  0.00  0.00    +0.000 A 
ATOM     19  C   UNL     1     114.579 130.290 136.177  0.00  0.00    +0.000 A 
ATOM     20  C   UNL     1     113.687 129.417 135.480  0.00  0.00    +0.000 A 
ATOM     21  C   UNL     1     114.445 129.723 135.592  0.00  0.00    +0.000 A 
ENDBRANCH   7  16
ENDBRANCH   1   6
BRANCH   1  29
ATOM     22  O   UNL     1     113.400 129.848 138.958  0.00  0.00    +0.000 OA
ATOM     23  O   UNL     1     113.366 127.600 139.992  0.00  0.00    +0.000 OA
ATOM     24  O   UNL     1     114.079 128.861 140.782  0.00  0.00    +0.000 OA
ATOM     25  C   UNL     1     113.377 128.350 139.647  0.00  0.00    +0.000 C 
ATOM     26  C   UNL     1     113.734 128.979 140.042  0.00  0.00    +0.000 C 
ATOM     27  C   UNL     1     113.032 128.468 138.908  0.00  0.00    +0.000 C 
ATOM     28  C   UNL     1     113.745 129.729 139.697  0.00  0.00    +0.000 C 
ATOM     29  C   UNL     1     113.044 129.218 138.563  0.00  0.00    +0.000 C 
ATOM     30  C   UNL     1     114.102 130.360 140.093  0.00  0.00    +0.000 C 
BRANCH  27  31
ATOM     31  O   UNL     1     112.676 127.838 138.512  0.00  0.00    +0.000 OA
BRANCH  31  33
ATOM     32  O   UNL     1     113.960 127.296 138.196  0.00  0.00    +0.000 OA
ATOM     33  C   UNL     1     113.138 127.222 138.218  0.00  0.00    +0.000 C 
BRANCH  33  34
ATOM     34  C   UNL     1     112.780 126.530 137.945  0.00  0.00    +0.000 C 
ATOM     35  C   UNL     1     113.057 126.165 137.260  0.00  0.00    +0.000 C 
BRANCH  35  37
ATOM     36  O   UNL     1     111.622 123.398 136.174  0.00  0.00    +0.000 OA
ATOM     37  C   UNL     1     112.698 125.473 136.988  0.00  0.00    +0.000 A 
ATOM     38  C   UNL     1     111.994 125.514 136.560  0.00  0.00    +0.000 A 
ATOM     39  C   UNL     1     113.043 124.741 137.144  0.00  0.00    +0.000 A 
ATOM     40  C   UNL     1     111.635 124.822 136.289  0.00  0.00    +0.000 A 
ATOM     41  C   UNL     1     112.685 124.049 136.873  0.00  0.00    +0.000 A 
ATOM     42  C   UNL     1     111.980 124.090 136.445  0.00  0.00    +0.000 A 
ENDBRANCH  35  37
ENDBRANCH  33  34
ENDBRANCH  31  33
ENDBRANCH  27  31
ENDBRANCH   1  29
TORSDOF 7
ENDMDL
MODEL 2
REMARK VINA RESULT:      -9.9      0.878      2.671
REMARK  Name = 129625836
REMARK  7 active torsions:
REMARK  status: ('A' for Active; 'I' for Inactive)
REMARK    1  A    between atoms: O_2  and  C_15
REMARK    2  A    between atoms: O_2  and  C_20
REMARK    3  A    between atoms: O_3  and  C_17
REMARK    4  A    between atoms: O_3  and  C_19
REMARK    5  A    between atoms: C_20  and  C_26
REMARK    6  A    between atoms: C_21  and  C_25
REMARK    7  A    between atoms: C_32  and  C_36
REMARK                            x       y       z     vdW  Elec       q    Type
REMARK                         _______ _______ _______ _____ _____    ______ ____
ROOT
ATOM      1  O   UNL     1     112.651 129.386 137.494  0.00  0.00    +0.000 OA
ENDROOT
BRANCH   1   6
ATOM      2  O   UNL     1     111.714 130.839 138.826  0.00  0.00    +0.000 OA
ATOM      3  O   UNL     1     111.629 130.153 136.450  0.00  0.00    +0.000 OA
ATOM      4  O   UNL     1     110.626 131.151 136.168  0.00  0.00    +0.000 OA
ATOM      5  O   UNL     1     109.690 132.875 138.331  0.00  0.00    +0.000 OA
ATOM      6  C   UNL     1     112.168 129.998 137.764  0.00  0.00    +0.000 A 
ATOM      7  C   UNL     1     112.197 130.226 138.556  0.00  0.00    +0.000 A 
ATOM      8  C   UNL     1     111.658 130.382 137.241  0.00  0.00    +0.000 A 
ATOM      9  C   UNL     1     111.175 130.994 137.511  0.00  0.00    +0.000 A 
ATOM     10  C   UNL     1     111.203 131.223 138.304  0.00  0.00    +0.000 A 
ATOM     11  C   UNL     1     110.647 131.386 136.958  0.00  0.00    +0.000 A 
ATOM     12  C   UNL     1     110.706 131.859 138.597  0.00  0.00    +0.000 A 
ATOM     13  C   UNL     1     110.142 132.025 137.233  0.00  0.00    +0.000 A 
ATOM     14  C   UNL     1     110.171 132.263 138.058  0.00  0.00    +0.000 A 
BRANCH   7  16
ATOM     15  O   UNL     1     114.240 128.695 140.646  0.00  0.00    +0.000 OA
ATOM     16  C   UNL     1     112.707 129.843 139.078  0.00  0.00    +0.000 A 
ATOM     17  C   UNL     1     113.427 130.191 139.280  0.00  0.00    +0.000 A 
ATOM     18  C   UNL     1     112.498 129.113 139.399  0.00  0.00    +0.000 A 
ATOM     19  C   UNL     1     113.939 129.809 139.802  0.00  0.00    +0.000 A 
ATOM     20  C   UNL     1     113.009 128.730 139.922  0.00  0.00    +0.000 A 
ATOM     21  C   UNL     1     113.729 129.078 140.124  0.00  0.00    +0.000 A 
ENDBRANCH   7  16
ENDBRANCH   1   6
BRANCH   1  29
ATOM     22  O   UNL     1     113.563 130.253 136.818  0.00  0.00    +0.000 OA
ATOM     23  O   UNL     1     114.037 128.469 135.169  0.00  0.00    +0.000 OA
ATOM     24  O   UNL     1     114.792 129.931 135.042  0.00  0.00    +0.000 OA
ATOM     25  C   UNL     1     113.879 129.063 135.719  0.00  0.00    +0.000 C 
ATOM     26  C   UNL     1     114.256 129.794 135.655  0.00  0.00    +0.000 C 
ATOM     27  C   UNL     1     113.344 128.927 136.331  0.00  0.00    +0.000 C 
ATOM     28  C   UNL     1     114.098 130.388 136.205  0.00  0.00    +0.000 C 
ATOM     29  C   UNL     1     113.186 129.522 136.880  0.00  0.00    +0.000 C 
ATOM     30  C   UNL     1     114.476 131.120 136.142  0.00  0.00    +0.000 C 
BRANCH  27  31
ATOM     31  O   UNL     1     112.966 128.196 136.395  0.00  0.00    +0.000 OA
BRANCH  31  33
ATOM     32  O   UNL     1     114.181 127.602 136.858  0.00  0.00    +0.000 OA
ATOM     33  C   UNL     1     113.398 127.526 136.607  0.00  0.00    +0.000 C 
BRANCH  33  34
ATOM     34  C   UNL     1     113.049 126.780 136.568  0.00  0.00    +0.000 C 
ATOM     35  C   UNL     1     113.255 126.199 137.115  0.00  0.00    +0.000 C 
BRANCH  35  37
ATOM     36  O   UNL     1     111.856 123.214 136.954  0.00  0.00    +0.000 OA
ATOM     37  C   UNL     1     112.905 125.452 137.075  0.00  0.00    +0.000 A 
ATOM     38  C   UNL     1     112.173 125.320 137.430  0.00  0.00    +0.000 A 
ATOM     39  C   UNL     1     113.288 124.838 136.680  0.00  0.00    +0.000 A 
ATOM     40  C   UNL     1     111.822 124.574 137.390  0.00  0.00    +0.000 A 
ATOM     41  C   UNL     1     112.939 124.092 136.639  0.00  0.00    +0.000 A 
ATOM     42  C   UNL     1     112.205 123.960 136.995  0.00  0.00    +0.000 A 
ENDBRANCH  35  37
ENDBRANCH  33  34
ENDBRANCH  31  33
ENDBRANCH  27  31
ENDBRANCH   1  29
TORSDOF 7
ENDMDL
MODEL 3
REMARK VINA RESULT:      -9.8      2.008      3.201
REMARK  Name = 129625836
REMARK  7 active torsions:
REMARK  status: ('A' for Active; 'I' for Inactive)
REMARK    1  A    between atoms: O_2  and  C_15
REMARK    2  A    between atoms: O_2  and  C_20
REMARK    3  A    between atoms: O_3  and  C_17
REMARK    4  A    between atoms: O_3  and  C_19
REMARK    5  A    between atoms: C_20  and  C_26
REMARK    6  A    between atoms: C_21  and  C_25
REMARK    7  A    between atoms: C_32  and  C_36
REMARK                            x       y       z     vdW  Elec       q    Type
REMARK                         _______ _______ _______ _____ _____    ______ ____
ROOT
ATOM      1  O   UNL     1     111.441 129.275 137.405  0.00  0.00    +0.000 OA
ENDROOT
BRANCH   1   6
ATOM      2  O   UNL     1     111.287 130.862 138.895  0.00  0.00    +0.000 OA
ATOM      3  O   UNL     1     109.991 128.909 138.101  0.00  0.00    +0.000 OA
ATOM      4  O   UNL     1     108.947 129.175 139.062  0.00  0.00    +0.000 OA
ATOM      5  O   UNL     1     109.221 131.460 140.860  0.00  0.00    +0.000 OA
ATOM      6  C   UNL     1     111.148 129.743 138.018  0.00  0.00    +0.000 A 
ATOM      7  C   UNL     1     111.580 130.394 138.282  0.00  0.00    +0.000 A 
ATOM      8  C   UNL     1     110.422 129.560 138.366  0.00  0.00    +0.000 A 
ATOM      9  C   UNL     1     110.129 130.028 138.978  0.00  0.00    +0.000 A 
ATOM     10  C   UNL     1     110.561 130.680 139.243  0.00  0.00    +0.000 A 
ATOM     11  C   UNL     1     109.373 129.829 139.333  0.00  0.00    +0.000 A 
ATOM     12  C   UNL     1     110.267 131.175 139.880  0.00  0.00    +0.000 A 
ATOM     13  C   UNL     1     109.062 130.312 139.971  0.00  0.00    +0.000 A 
ATOM     14  C   UNL     1     109.511 130.990 140.247  0.00  0.00    +0.000 A 
BRANCH   7  16
ATOM     15  O   UNL     1     114.481 131.129 136.891  0.00  0.00    +0.000 OA
ATOM     16  C   UNL     1     112.306 130.577 137.935  0.00  0.00    +0.000 A 
ATOM     17  C   UNL     1     112.347 131.154 137.347  0.00  0.00    +0.000 A 
ATOM     18  C   UNL     1     112.989 130.184 138.175  0.00  0.00    +0.000 A 
ATOM     19  C   UNL     1     113.071 131.339 136.999  0.00  0.00    +0.000 A 
ATOM     20  C   UNL     1     113.715 130.367 137.827  0.00  0.00    +0.000 A 
ATOM     21  C   UNL     1     113.756 130.945 137.239  0.00  0.00    +0.000 A 
ENDBRANCH   7  16
ENDBRANCH   1   6
BRANCH   1  29
ATOM     22  O   UNL     1     110.539 129.789 136.424  0.00  0.00    +0.000 OA
ATOM     23  O   UNL     1     110.584 127.614 135.244  0.00  0.00    +0.000 OA
ATOM     24  O   UNL     1     109.666 128.853 134.656  0.00  0.00    +0.000 OA
ATOM     25  C   UNL     1     110.569 128.339 135.637  0.00  0.00    +0.000 C 
ATOM     26  C   UNL     1     110.110 128.958 135.343  0.00  0.00    +0.000 C 
ATOM     27  C   UNL     1     111.012 128.444 136.324  0.00  0.00    +0.000 C 
ATOM     28  C   UNL     1     110.095 129.683 135.737  0.00  0.00    +0.000 C 
ATOM     29  C   UNL     1     110.997 129.169 136.717  0.00  0.00    +0.000 C 
ATOM     30  C   UNL     1     109.636 130.303 135.443  0.00  0.00    +0.000 C 
BRANCH  27  31
ATOM     31  O   UNL     1     111.471 127.825 136.619  0.00  0.00    +0.000 OA
BRANCH  31  33
ATOM     32  O   UNL     1     112.432 128.039 135.582  0.00  0.00    +0.000 OA
ATOM     33  C   UNL     1     112.156 127.594 136.220  0.00  0.00    +0.000 C 
BRANCH  33  34
ATOM     34  C   UNL     1     112.565 126.919 136.459  0.00  0.00    +0.000 C 
ATOM     35  C   UNL     1     113.379 126.954 136.590  0.00  0.00    +0.000 C 
BRANCH  35  37
ATOM     36  O   UNL     1     115.011 124.251 137.549  0.00  0.00    +0.000 OA
ATOM     37  C   UNL     1     113.787 126.278 136.829  0.00  0.00    +0.000 A 
ATOM     38  C   UNL     1     114.193 125.823 136.274  0.00  0.00    +0.000 A 
ATOM     39  C   UNL     1     113.789 126.057 137.624  0.00  0.00    +0.000 A 
ATOM     40  C   UNL     1     114.602 125.147 136.514  0.00  0.00    +0.000 A 
ATOM     41  C   UNL     1     114.197 125.382 137.864  0.00  0.00    +0.000 A 
ATOM     42  C   UNL     1     114.603 124.926 137.309  0.00  0.00    +0.000 A 
ENDBRANCH  35  37
ENDBRANCH  33  34
ENDBRANCH  31  33
ENDBRANCH  27  31
ENDBRANCH   1  29
TORSDOF 7
ENDMDL
MODEL 4
REMARK VINA RESULT:      -9.8      2.185      2.940
REMARK  Name = 129625836
REMARK  7 active torsions:
REMARK  status: ('A' for Active; 'I' for Inactive)
REMARK    1  A    between atoms: O_2  and  C_15
REMARK    2  A    between atoms: O_2  and  C_20
REMARK    3  A    between atoms: O_3  and  C_17
REMARK    4  A    between atoms: O_3  and  C_19
REMARK    5  A    between atoms: C_20  and  C_26
REMARK    6  A    between atoms: C_21  and  C_25
REMARK    7  A    between atoms: C_32  and  C_36
REMARK                            x       y       z     vdW  Elec       q    Type
REMARK                         _______ _______ _______ _____ _____    ______ ____
ROOT
ATOM      1  O   UNL     1     111.808 128.624 139.623  0.00  0.00    +0.000 OA
ENDROOT
BRANCH   1   6
ATOM      2  O   UNL     1     111.471 130.770 139.416  0.00  0.00    +0.000 OA
ATOM      3  O   UNL     1     110.241 128.646 139.107  0.00  0.00    +0.000 OA
ATOM      4  O   UNL     1     109.059 129.358 138.686  0.00  0.00    +0.000 OA
ATOM      5  O   UNL     1     109.123 132.276 138.577  0.00  0.00    +0.000 OA
ATOM      6  C   UNL     1     111.434 129.343 139.468  0.00  0.00    +0.000 A 
ATOM      7  C   UNL     1     111.845 130.051 139.571  0.00  0.00    +0.000 A 
ATOM      8  C   UNL     1     110.651 129.353 139.210  0.00  0.00    +0.000 A 
ATOM      9  C   UNL     1     110.277 130.073 139.055  0.00  0.00    +0.000 A 
ATOM     10  C   UNL     1     110.688 130.782 139.158  0.00  0.00    +0.000 A 
ATOM     11  C   UNL     1     109.461 130.072 138.787  0.00  0.00    +0.000 A 
ATOM     12  C   UNL     1     110.310 131.537 139.000  0.00  0.00    +0.000 A 
ATOM     13  C   UNL     1     109.067 130.817 138.624  0.00  0.00    +0.000 A 
ATOM     14  C   UNL     1     109.494 131.555 138.731  0.00  0.00    +0.000 A 
BRANCH   7  16
ATOM     15  O   UNL     1     114.978 130.010 140.606  0.00  0.00    +0.000 OA
ATOM     16  C   UNL     1     112.628 130.040 139.829  0.00  0.00    +0.000 A 
ATOM     17  C   UNL     1     112.801 130.169 140.626  0.00  0.00    +0.000 A 
ATOM     18  C   UNL     1     113.238 129.902 139.292  0.00  0.00    +0.000 A 
ATOM     19  C   UNL     1     113.584 130.159 140.885  0.00  0.00    +0.000 A 
ATOM     20  C   UNL     1     114.022 129.891 139.551  0.00  0.00    +0.000 A 
ATOM     21  C   UNL     1     114.195 130.020 140.347  0.00  0.00    +0.000 A 
ENDBRANCH   7  16
ENDBRANCH   1   6
BRANCH   1  29
ATOM     22  O   UNL     1     111.138 128.397 140.865  0.00  0.00    +0.000 OA
ATOM     23  O   UNL     1     111.221 125.956 140.463  0.00  0.00    +0.000 OA
ATOM     24  O   UNL     1     110.523 126.542 141.839  0.00  0.00    +0.000 OA
ATOM     25  C   UNL     1     111.193 126.769 140.597  0.00  0.00    +0.000 C 
ATOM     26  C   UNL     1     110.845 127.062 141.284  0.00  0.00    +0.000 C 
ATOM     27  C   UNL     1     111.514 127.289 140.044  0.00  0.00    +0.000 C 
ATOM     28  C   UNL     1     110.817 127.876 141.418  0.00  0.00    +0.000 C 
ATOM     29  C   UNL     1     111.486 128.103 140.177  0.00  0.00    +0.000 C 
ATOM     30  C   UNL     1     110.468 128.169 142.106  0.00  0.00    +0.000 C 
BRANCH  27  31
ATOM     31  O   UNL     1     111.863 126.997 139.356  0.00  0.00    +0.000 OA
BRANCH  31  33
ATOM     32  O   UNL     1     113.005 126.580 140.108  0.00  0.00    +0.000 OA
ATOM     33  C   UNL     1     112.587 126.602 139.396  0.00  0.00    +0.000 C 
BRANCH  33  34
ATOM     34  C   UNL     1     112.893 126.230 138.727  0.00  0.00    +0.000 C 
ATOM     35  C   UNL     1     113.693 126.308 138.540  0.00  0.00    +0.000 C 
BRANCH  35  37
ATOM     36  O   UNL     1     114.911 124.819 135.859  0.00  0.00    +0.000 OA
ATOM     37  C   UNL     1     113.997 125.935 137.870  0.00  0.00    +0.000 A 
ATOM     38  C   UNL     1     114.411 125.226 137.944  0.00  0.00    +0.000 A 
ATOM     39  C   UNL     1     113.888 126.272 137.125  0.00  0.00    +0.000 A 
ATOM     40  C   UNL     1     114.716 124.853 137.274  0.00  0.00    +0.000 A 
ATOM     41  C   UNL     1     114.192 125.901 136.455  0.00  0.00    +0.000 A 
ATOM     42  C   UNL     1     114.606 125.190 136.529  0.00  0.00    +0.000 A 
ENDBRANCH  35  37
ENDBRANCH  33  34
ENDBRANCH  31  33
ENDBRANCH  27  31
ENDBRANCH   1  29
TORSDOF 7
ENDMDL
MODEL 5
REMARK VINA RESULT:      -9.7      2.278      3.847
REMARK  Name = 129625836
REMARK  7 active torsions:
REMARK  status: ('A' for Active; 'I' for Inactive)
REMARK    1  A    between atoms: O_2  and  C_15
REMARK    2  A    between atoms: O_2  and  C_20
REMARK    3  A    between atoms: O_3  and  C_17
REMARK    4  A    between atoms: O_3  and  C_19
REMARK    5  A    between atoms: C_20  and  C_26
REMARK    6  A    between atoms: C_21  and  C_25
REMARK    7  A    between atoms: C_32  and  C_36
REMARK                            x       y       z     vdW  Elec       q    Type
REMARK                         _______ _______ _______ _____ _____    ______ ____
ROOT
ATOM      1  O   UNL     1     110.120 129.669 137.697  0.00  0.00    +0.000 OA
ENDROOT
BRANCH   1   6
ATOM      2  O   UNL     1     110.888 130.715 139.451  0.00  0.00    +0.000 OA
ATOM      3  O   UNL     1     108.815 129.590 138.703  0.00  0.00    +0.000 OA
ATOM      4  O   UNL     1     108.171 129.876 139.962  0.00  0.00    +0.000 OA
ATOM      5  O   UNL     1     109.652 131.329 142.017  0.00  0.00    +0.000 OA
ATOM      6  C   UNL     1     110.159 130.005 138.449  0.00  0.00    +0.000 A 
ATOM      7  C   UNL     1     110.849 130.379 138.699  0.00  0.00    +0.000 A 
ATOM      8  C   UNL     1     109.505 129.965 138.952  0.00  0.00    +0.000 A 
ATOM      9  C   UNL     1     109.544 130.301 139.705  0.00  0.00    +0.000 A 
ATOM     10  C   UNL     1     110.235 130.676 139.955  0.00  0.00    +0.000 A 
ATOM     11  C   UNL     1     108.858 130.254 140.220  0.00  0.00    +0.000 A 
ATOM     12  C   UNL     1     110.287 131.030 140.736  0.00  0.00    +0.000 A 
ATOM     13  C   UNL     1     108.891 130.601 141.005  0.00  0.00    +0.000 A 
ATOM     14  C   UNL     1     109.611 130.992 141.265  0.00  0.00    +0.000 A 
BRANCH   7  16
ATOM     15  O   UNL     1     113.462 130.536 136.689  0.00  0.00    +0.000 OA
ATOM     16  C   UNL     1     111.503 130.419 138.196  0.00  0.00    +0.000 A 
ATOM     17  C   UNL     1     112.011 129.773 138.130  0.00  0.00    +0.000 A 
ATOM     18  C   UNL     1     111.647 131.104 137.760  0.00  0.00    +0.000 A 
ATOM     19  C   UNL     1     112.665 129.811 137.628  0.00  0.00    +0.000 A 
ATOM     20  C   UNL     1     112.300 131.143 137.257  0.00  0.00    +0.000 A 
ATOM     21  C   UNL     1     112.809 130.497 137.191  0.00  0.00    +0.000 A 
ENDBRANCH   7  16
ENDBRANCH   1   6
BRANCH   1  29
ATOM     22  O   UNL     1     109.322 130.709 137.129  0.00  0.00    +0.000 OA
ATOM     23  O   UNL     1     108.232 129.060 135.640  0.00  0.00    +0.000 OA
ATOM     24  O   UNL     1     107.797 130.650 135.569  0.00  0.00    +0.000 OA
ATOM     25  C   UNL     1     108.595 129.609 136.136  0.00  0.00    +0.000 C 
ATOM     26  C   UNL     1     108.378 130.404 136.101  0.00  0.00    +0.000 C 
ATOM     27  C   UNL     1     109.176 129.364 136.668  0.00  0.00    +0.000 C 
ATOM     28  C   UNL     1     108.741 130.954 136.597  0.00  0.00    +0.000 C 
ATOM     29  C   UNL     1     109.539 129.914 137.164  0.00  0.00    +0.000 C 
ATOM     30  C   UNL     1     108.523 131.749 136.561  0.00  0.00    +0.000 C 
BRANCH  27  31
ATOM     31  O   UNL     1     109.394 128.569 136.704  0.00  0.00    +0.000 OA
BRANCH  31  33
ATOM     32  O   UNL     1     110.079 128.702 135.457  0.00  0.00    +0.000 OA
ATOM     33  C   UNL     1     109.845 128.238 136.098  0.00  0.00    +0.000 C 
BRANCH  33  34
ATOM     34  C   UNL     1     110.063 127.443 136.133  0.00  0.00    +0.000 C 
ATOM     35  C   UNL     1     110.779 127.196 135.807  0.00  0.00    +0.000 C 
BRANCH  35  37
ATOM     36  O   UNL     1     111.643 124.014 135.946  0.00  0.00    +0.000 OA
ATOM     37  C   UNL     1     110.996 126.401 135.843  0.00  0.00    +0.000 A 
ATOM     38  C   UNL     1     111.654 126.171 136.283  0.00  0.00    +0.000 A 
ATOM     39  C   UNL     1     110.554 125.835 135.436  0.00  0.00    +0.000 A 
ATOM     40  C   UNL     1     111.870 125.375 136.318  0.00  0.00    +0.000 A 
ATOM     41  C   UNL     1     110.769 125.040 135.470  0.00  0.00    +0.000 A 
ATOM     42  C   UNL     1     111.428 124.810 135.912  0.00  0.00    +0.000 A 
ENDBRANCH  35  37
ENDBRANCH  33  34
ENDBRANCH  31  33
ENDBRANCH  27  31
ENDBRANCH   1  29
TORSDOF 7
ENDMDL
MODEL 6
REMARK VINA RESULT:      -9.7      1.236      2.921
REMARK  Name = 129625836
REMARK  7 active torsions:
REMARK  status: ('A' for Active; 'I' for Inactive)
REMARK    1  A    between atoms: O_2  and  C_15
REMARK    2  A    between atoms: O_2  and  C_20
REMARK    3  A    between atoms: O_3  and  C_17
REMARK    4  A    between atoms: O_3  and  C_19
REMARK    5  A    between atoms: C_20  and  C_26
REMARK    6  A    between atoms: C_21  and  C_25
REMARK    7  A    between atoms: C_32  and  C_36
REMARK                            x       y       z     vdW  Elec       q    Type
REMARK                         _______ _______ _______ _____ _____    ______ ____
ROOT
ATOM      1  O   UNL     1     112.650 129.551 138.044  0.00  0.00    +0.000 OA
ENDROOT
BRANCH   1   6
ATOM      2  O   UNL     1     114.417 130.626 138.740  0.00  0.00    +0.000 OA
ATOM      3  O   UNL     1     112.415 129.515 139.677  0.00  0.00    +0.000 OA
ATOM      4  O   UNL     1     112.828 129.840 141.021  0.00  0.00    +0.000 OA
ATOM      5  O   UNL     1     115.314 131.318 141.423  0.00  0.00    +0.000 OA
ATOM      6  C   UNL     1     113.200 129.903 138.548  0.00  0.00    +0.000 A 
ATOM      7  C   UNL     1     113.867 130.273 138.236  0.00  0.00    +0.000 A 
ATOM      8  C   UNL     1     113.082 129.885 139.365  0.00  0.00    +0.000 A 
ATOM      9  C   UNL     1     113.632 130.238 139.868  0.00  0.00    +0.000 A 
ATOM     10  C   UNL     1     114.300 130.609 139.556  0.00  0.00    +0.000 A 
ATOM     11  C   UNL     1     113.499 130.213 140.717  0.00  0.00    +0.000 A 
ATOM     12  C   UNL     1     114.880 130.979 140.070  0.00  0.00    +0.000 A 
ATOM     13  C   UNL     1     114.067 130.578 141.247  0.00  0.00    +0.000 A 
ATOM     14  C   UNL     1     114.763 130.964 140.922  0.00  0.00    +0.000 A 
BRANCH   7  16
ATOM     15  O   UNL     1     114.339 130.349 134.970  0.00  0.00    +0.000 OA
ATOM     16  C   UNL     1     113.985 130.292 137.419  0.00  0.00    +0.000 A 
ATOM     17  C   UNL     1     113.834 130.984 136.996  0.00  0.00    +0.000 A 
ATOM     18  C   UNL     1     114.254 129.619 137.026  0.00  0.00    +0.000 A 
ATOM     19  C   UNL     1     113.952 131.003 136.180  0.00  0.00    +0.000 A 
ATOM     20  C   UNL     1     114.373 129.637 136.209  0.00  0.00    +0.000 A 
ATOM     21  C   UNL     1     114.222 130.329 135.787  0.00  0.00    +0.000 A 
ENDBRANCH   7  16
ENDBRANCH   1   6
BRANCH   1  29
ATOM     22  O   UNL     1     111.676 130.588 138.172  0.00  0.00    +0.000 OA
ATOM     23  O   UNL     1     109.866 128.924 137.888  0.00  0.00    +0.000 OA
ATOM     24  O   UNL     1     109.495 130.516 138.110  0.00  0.00    +0.000 OA
ATOM     25  C   UNL     1     110.469 129.479 137.982  0.00  0.00    +0.000 C 
ATOM     26  C   UNL     1     110.284 130.274 138.094  0.00  0.00    +0.000 C 
ATOM     27  C   UNL     1     111.257 129.237 137.966  0.00  0.00    +0.000 C 
ATOM     28  C   UNL     1     110.887 130.829 138.189  0.00  0.00    +0.000 C 
ATOM     29  C   UNL     1     111.861 129.792 138.061  0.00  0.00    +0.000 C 
ATOM     30  C   UNL     1     110.701 131.626 138.300  0.00  0.00    +0.000 C 
BRANCH  27  31
ATOM     31  O   UNL     1     111.444 128.441 137.855  0.00  0.00    +0.000 OA
BRANCH  31  33
ATOM     32  O   UNL     1     111.141 128.547 136.461  0.00  0.00    +0.000 OA
ATOM     33  C   UNL     1     111.301 128.083 137.125  0.00  0.00    +0.000 C 
BRANCH  33  34
ATOM     34  C   UNL     1     111.316 127.261 137.059  0.00  0.00    +0.000 C 
ATOM     35  C   UNL     1     111.724 126.904 136.437  0.00  0.00    +0.000 C 
BRANCH  35  37
ATOM     36  O   UNL     1     111.782 123.615 136.175  0.00  0.00    +0.000 OA
ATOM     37  C   UNL     1     111.739 126.082 136.372  0.00  0.00    +0.000 A 
ATOM     38  C   UNL     1     112.377 125.655 136.674  0.00  0.00    +0.000 A 
ATOM     39  C   UNL     1     111.116 125.686 136.004  0.00  0.00    +0.000 A 
ATOM     40  C   UNL     1     112.392 124.833 136.609  0.00  0.00    +0.000 A 
ATOM     41  C   UNL     1     111.130 124.864 135.938  0.00  0.00    +0.000 A 
ATOM     42  C   UNL     1     111.768 124.437 136.241  0.00  0.00    +0.000 A 
ENDBRANCH  35  37
ENDBRANCH  33  34
ENDBRANCH  31  33
ENDBRANCH  27  31
ENDBRANCH   1  29
TORSDOF 7
ENDMDL
MODEL 7
REMARK VINA RESULT:      -9.7      2.569      5.554
REMARK  Name = 129625836
REMARK  7 active torsions:
REMARK  status: ('A' for Active; 'I' for Inactive)
REMARK    1  A    between atoms: O_2  and  C_15
REMARK    2  A    between atoms: O_2  and  C_20
REMARK    3  A    between atoms: O_3  and  C_17
REMARK    4  A    between atoms: O_3  and  C_19
REMARK    5  A    between atoms: C_20  and  C_26
REMARK    6  A    between atoms: C_21  and  C_25
REMARK    7  A    between atoms: C_32  and  C_36
REMARK                            x       y       z     vdW  Elec       q    Type
REMARK                         _______ _______ _______ _____ _____    ______ ____
ROOT
ATOM      1  O   UNL     1     111.303 127.008 136.899  0.00  0.00    +0.000 OA
ENDROOT
BRANCH   1   6
ATOM      2  O   UNL     1     113.467 126.795 137.086  0.00  0.00    +0.000 OA
ATOM      3  O   UNL     1     111.461 125.366 136.849  0.00  0.00    +0.000 OA
ATOM      4  O   UNL     1     112.272 124.174 136.875  0.00  0.00    +0.000 OA
ATOM      5  O   UNL     1     115.169 124.431 137.147  0.00  0.00    +0.000 OA
ATOM      6  C   UNL     1     112.051 126.664 136.953  0.00  0.00    +0.000 A 
ATOM      7  C   UNL     1     112.719 127.140 137.032  0.00  0.00    +0.000 A 
ATOM      8  C   UNL     1     112.129 125.843 136.928  0.00  0.00    +0.000 A 
ATOM      9  C   UNL     1     112.877 125.498 136.982  0.00  0.00    +0.000 A 
ATOM     10  C   UNL     1     113.547 125.975 137.061  0.00  0.00    +0.000 A 
ATOM     11  C   UNL     1     112.947 124.642 136.955  0.00  0.00    +0.000 A 
ATOM     12  C   UNL     1     114.330 125.628 137.118  0.00  0.00    +0.000 A 
ATOM     13  C   UNL     1     113.723 124.277 137.010  0.00  0.00    +0.000 A 
ATOM     14  C   UNL     1     114.420 124.773 137.093  0.00  0.00    +0.000 A 
BRANCH   7  16
ATOM     15  O   UNL     1     112.407 130.424 137.131  0.00  0.00    +0.000 OA
ATOM     16  C   UNL     1     112.641 127.961 137.058  0.00  0.00    +0.000 A 
ATOM     17  C   UNL     1     112.592 128.392 136.356  0.00  0.00    +0.000 A 
ATOM     18  C   UNL     1     112.613 128.351 137.783  0.00  0.00    +0.000 A 
ATOM     19  C   UNL     1     112.514 129.213 136.380  0.00  0.00    +0.000 A 
ATOM     20  C   UNL     1     112.535 129.172 137.809  0.00  0.00    +0.000 A 
ATOM     21  C   UNL     1     112.485 129.603 137.107  0.00  0.00    +0.000 A 
ENDBRANCH   7  16
ENDBRANCH   1   6
BRANCH   1  29
ATOM     22  O   UNL     1     110.920 126.657 138.231  0.00  0.00    +0.000 OA
ATOM     23  O   UNL     1     108.555 126.520 137.513  0.00  0.00    +0.000 OA
ATOM     24  O   UNL     1     108.960 126.215 139.083  0.00  0.00    +0.000 OA
ATOM     25  C   UNL     1     109.343 126.566 137.752  0.00  0.00    +0.000 C 
ATOM     26  C   UNL     1     109.545 126.414 138.537  0.00  0.00    +0.000 C 
ATOM     27  C   UNL     1     109.929 126.764 137.207  0.00  0.00    +0.000 C 
ATOM     28  C   UNL     1     110.334 126.459 138.776  0.00  0.00    +0.000 C 
ATOM     29  C   UNL     1     110.717 126.810 137.446  0.00  0.00    +0.000 C 
ATOM     30  C   UNL     1     110.536 126.307 139.562  0.00  0.00    +0.000 C 
BRANCH  27  31
ATOM     31  O   UNL     1     109.727 126.917 136.421  0.00  0.00    +0.000 OA
BRANCH  31  33
ATOM     32  O   UNL     1     108.344 127.129 136.130  0.00  0.00    +0.000 OA
ATOM     33  C   UNL     1     109.104 127.429 136.248  0.00  0.00    +0.000 C 
BRANCH  33  34
ATOM     34  C   UNL     1     109.240 128.241 136.193  0.00  0.00    +0.000 C 
ATOM     35  C   UNL     1     108.864 128.683 135.607  0.00  0.00    +0.000 C 
BRANCH  35  37
ATOM     36  O   UNL     1     109.412 131.930 135.387  0.00  0.00    +0.000 OA
ATOM     37  C   UNL     1     109.001 129.495 135.552  0.00  0.00    +0.000 A 
ATOM     38  C   UNL     1     108.742 129.999 136.152  0.00  0.00    +0.000 A 
ATOM     39  C   UNL     1     109.397 129.803 134.898  0.00  0.00    +0.000 A 
ATOM     40  C   UNL     1     108.879 130.811 136.097  0.00  0.00    +0.000 A 
ATOM     41  C   UNL     1     109.534 130.615 134.842  0.00  0.00    +0.000 A 
ATOM     42  C   UNL     1     109.275 131.119 135.443  0.00  0.00    +0.000 A 
ENDBRANCH  35  37
ENDBRANCH  33  34
ENDBRANCH  31  33
ENDBRANCH  27  31
ENDBRANCH   1  29
TORSDOF 7
ENDMDL
MODEL 8
REMARK VINA RESULT:      -9.7      1.741      5.023
REMARK  Name = 129625836
REMARK  7 active torsions:
REMARK  status: ('A' for Active; 'I' for Inactive)
REMARK    1  A    between atoms: O_2  and  C_15
REMARK    2  A    between atoms: O_2  and  C_20
REMARK    3  A    between atoms: O_3  and  C_17
REMARK    4  A    between atoms: O_3  and  C_19
REMARK    5  A    between atoms: C_20  and  C_26
REMARK    6  A    between atoms: C_21  and  C_25
REMARK    7  A    between atoms: C_32  and  C_36
REMARK                            x       y       z     vdW  Elec       q    Type
REMARK                         _______ _______ _______ _____ _____    ______ ____
ROOT
ATOM      1  O   UNL     1     111.800 128.241 137.207  0.00  0.00    +0.000 OA
ENDROOT
BRANCH   1   6
ATOM      2  O   UNL     1     112.703 126.504 136.245  0.00  0.00    +0.000 OA
ATOM      3  O   UNL     1     111.077 127.013 138.039  0.00  0.00    +0.000 OA
ATOM      4  O   UNL     1     110.876 125.608 138.296  0.00  0.00    +0.000 OA
ATOM      5  O   UNL     1     112.348 123.649 136.706  0.00  0.00    +0.000 OA
ATOM      6  C   UNL     1     111.981 127.457 137.025  0.00  0.00    +0.000 A 
ATOM      7  C   UNL     1     112.522 127.288 136.427  0.00  0.00    +0.000 A 
ATOM      8  C   UNL     1     111.619 126.844 137.441  0.00  0.00    +0.000 A 
ATOM      9  C   UNL     1     111.800 126.060 137.259  0.00  0.00    +0.000 A 
ATOM     10  C   UNL     1     112.342 125.889 136.660  0.00  0.00    +0.000 A 
ATOM     11  C   UNL     1     111.417 125.428 137.699  0.00  0.00    +0.000 A 
ATOM     12  C   UNL     1     112.538 125.077 136.461  0.00  0.00    +0.000 A 
ATOM     13  C   UNL     1     111.601 124.610 137.514  0.00  0.00    +0.000 A 
ATOM     14  C   UNL     1     112.165 124.432 136.891  0.00  0.00    +0.000 A 
BRANCH   7  16
ATOM     15  O   UNL     1     113.971 129.742 134.763  0.00  0.00    +0.000 OA
ATOM     16  C   UNL     1     112.884 127.902 136.011  0.00  0.00    +0.000 A 
ATOM     17  C   UNL     1     113.648 128.139 136.209  0.00  0.00    +0.000 A 
ATOM     18  C   UNL     1     112.482 128.277 135.397  0.00  0.00    +0.000 A 
ATOM     19  C   UNL     1     114.011 128.753 135.794  0.00  0.00    +0.000 A 
ATOM     20  C   UNL     1     112.844 128.891 134.980  0.00  0.00    +0.000 A 
ATOM     21  C   UNL     1     113.608 129.129 135.179  0.00  0.00    +0.000 A 
ENDBRANCH   7  16
ENDBRANCH   1   6
BRANCH   1  29
ATOM     22  O   UNL     1     112.560 128.255 138.417  0.00  0.00    +0.000 OA
ATOM     23  O   UNL     1     110.999 129.917 139.380  0.00  0.00    +0.000 OA
ATOM     24  O   UNL     1     112.279 129.376 140.269  0.00  0.00    +0.000 OA
ATOM     25  C   UNL     1     111.519 129.363 139.059  0.00  0.00    +0.000 C 
ATOM     26  C   UNL     1     112.159 129.093 139.503  0.00  0.00    +0.000 C 
ATOM     27  C   UNL     1     111.399 129.080 138.294  0.00  0.00    +0.000 C 
ATOM     28  C   UNL     1     112.679 128.539 139.183  0.00  0.00    +0.000 C 
ATOM     29  C   UNL     1     111.920 128.525 137.973  0.00  0.00    +0.000 C 
ATOM     30  C   UNL     1     113.320 128.268 139.627  0.00  0.00    +0.000 C 
BRANCH  27  31
ATOM     31  O   UNL     1     110.759 129.350 137.849  0.00  0.00    +0.000 OA
BRANCH  31  33
ATOM     32  O   UNL     1     111.403 130.617 137.693  0.00  0.00    +0.000 OA
ATOM     33  C   UNL     1     110.768 130.113 137.536  0.00  0.00    +0.000 C 
BRANCH  33  34
ATOM     34  C   UNL     1     110.142 130.374 137.066  0.00  0.00    +0.000 C 
ATOM     35  C   UNL     1     110.264 130.970 136.509  0.00  0.00    +0.000 C 
BRANCH  35  37
ATOM     36  O   UNL     1     107.758 132.011 134.633  0.00  0.00    +0.000 OA
ATOM     37  C   UNL     1     109.638 131.230 136.040  0.00  0.00    +0.000 A 
ATOM     38  C   UNL     1     109.528 130.915 135.286  0.00  0.00    +0.000 A 
ATOM     39  C   UNL     1     109.120 131.806 136.325  0.00  0.00    +0.000 A 
ATOM     40  C   UNL     1     108.902 131.175 134.816  0.00  0.00    +0.000 A 
ATOM     41  C   UNL     1     108.494 132.067 135.856  0.00  0.00    +0.000 A 
ATOM     42  C   UNL     1     108.384 131.751 135.101  0.00  0.00    +0.000 A 
ENDBRANCH  35  37
ENDBRANCH  33  34
ENDBRANCH  31  33
ENDBRANCH  27  31
ENDBRANCH   1  29
TORSDOF 7
ENDMDL
MODEL 9
REMARK VINA RESULT:      -9.6      1.939      5.909
REMARK  Name = 129625836
REMARK  7 active torsions:
REMARK  status: ('A' for Active; 'I' for Inactive)
REMARK    1  A    between atoms: O_2  and  C_15
REMARK    2  A    between atoms: O_2  and  C_20
REMARK    3  A    between atoms: O_3  and  C_17
REMARK    4  A    between atoms: O_3  and  C_19
REMARK    5  A    between atoms: C_20  and  C_26
REMARK    6  A    between atoms: C_21  and  C_25
REMARK    7  A    between atoms: C_32  and  C_36
REMARK                            x       y       z     vdW  Elec       q    Type
REMARK                         _______ _______ _______ _____ _____    ______ ____
ROOT
ATOM      1  O   UNL     1     112.050 127.640 138.468  0.00  0.00    +0.000 OA
ENDROOT
BRANCH   1   6
ATOM      2  O   UNL     1     113.801 126.381 138.803  0.00  0.00    +0.000 OA
ATOM      3  O   UNL     1     112.129 126.827 137.034  0.00  0.00    +0.000 OA
ATOM      4  O   UNL     1     112.752 125.861 136.162  0.00  0.00    +0.000 OA
ATOM      5  O   UNL     1     115.112 124.417 137.098  0.00  0.00    +0.000 OA
ATOM      6  C   UNL     1     112.647 127.085 138.341  0.00  0.00    +0.000 A 
ATOM      7  C   UNL     1     113.204 126.937 138.930  0.00  0.00    +0.000 A 
ATOM      8  C   UNL     1     112.686 126.679 137.623  0.00  0.00    +0.000 A 
ATOM      9  C   UNL     1     113.283 126.123 137.497  0.00  0.00    +0.000 A 
ATOM     10  C   UNL     1     113.841 125.974 138.087  0.00  0.00    +0.000 A 
ATOM     11  C   UNL     1     113.314 125.706 136.746  0.00  0.00    +0.000 A 
ATOM     12  C   UNL     1     114.467 125.399 137.966  0.00  0.00    +0.000 A 
ATOM     13  C   UNL     1     113.933 125.126 136.608  0.00  0.00    +0.000 A 
ATOM     14  C   UNL     1     114.514 124.971 137.222  0.00  0.00    +0.000 A 
BRANCH   7  16
ATOM     15  O   UNL     1     113.050 128.564 141.797  0.00  0.00    +0.000 OA
ATOM     16  C   UNL     1     113.165 127.343 139.647  0.00  0.00    +0.000 A 
ATOM     17  C   UNL     1     113.449 128.116 139.699  0.00  0.00    +0.000 A 
ATOM     18  C   UNL     1     112.843 126.977 140.312  0.00  0.00    +0.000 A 
ATOM     19  C   UNL     1     113.411 128.523 140.415  0.00  0.00    +0.000 A 
ATOM     20  C   UNL     1     112.804 127.384 141.029  0.00  0.00    +0.000 A 
ATOM     21  C   UNL     1     113.088 128.157 141.081  0.00  0.00    +0.000 A 
ENDBRANCH   7  16
ENDBRANCH   1   6
BRANCH   1  29
ATOM     22  O   UNL     1     111.033 126.658 138.670  0.00  0.00    +0.000 OA
ATOM     23  O   UNL     1     109.336 128.237 137.802  0.00  0.00    +0.000 OA
ATOM     24  O   UNL     1     108.884 126.728 138.294  0.00  0.00    +0.000 OA
ATOM     25  C   UNL     1     109.901 127.711 138.092  0.00  0.00    +0.000 C 
ATOM     26  C   UNL     1     109.675 126.957 138.337  0.00  0.00    +0.000 C 
ATOM     27  C   UNL     1     110.692 127.939 138.135  0.00  0.00    +0.000 C 
ATOM     28  C   UNL     1     110.241 126.430 138.626  0.00  0.00    +0.000 C 
ATOM     29  C   UNL     1     111.258 127.412 138.424  0.00  0.00    +0.000 C 
ATOM     30  C   UNL     1     110.015 125.675 138.872  0.00  0.00    +0.000 C 
BRANCH  27  31
ATOM     31  O   UNL     1     110.919 128.693 137.889  0.00  0.00    +0.000 OA
BRANCH  31  33
ATOM     32  O   UNL     1     110.432 129.301 139.088  0.00  0.00    +0.000 OA
ATOM     33  C   UNL     1     110.641 129.358 138.291  0.00  0.00    +0.000 C 
BRANCH  33  34
ATOM     34  C   UNL     1     110.572 130.079 137.897  0.00  0.00    +0.000 C 
ATOM     35  C   UNL     1     110.853 130.771 138.249  0.00  0.00    +0.000 C 
BRANCH  35  37
ATOM     36  O   UNL     1     110.572 133.655 136.671  0.00  0.00    +0.000 OA
ATOM     37  C   UNL     1     110.783 131.492 137.854  0.00  0.00    +0.000 A 
ATOM     38  C   UNL     1     111.370 131.733 137.328  0.00  0.00    +0.000 A 
ATOM     39  C   UNL     1     110.126 131.972 137.987  0.00  0.00    +0.000 A 
ATOM     40  C   UNL     1     111.300 132.454 136.933  0.00  0.00    +0.000 A 
ATOM     41  C   UNL     1     110.055 132.693 137.593  0.00  0.00    +0.000 A 
ATOM     42  C   UNL     1     110.643 132.934 137.065  0.00  0.00    +0.000 A 
ENDBRANCH  35  37
ENDBRANCH  33  34
ENDBRANCH  31  33
ENDBRANCH  27  31
ENDBRANCH   1  29
TORSDOF 7
ENDMDL
MODEL 10
REMARK VINA RESULT:      -9.6      8.133     10.436
REMARK  Name = 129625836
REMARK  7 active torsions:
REMARK  status: ('A' for Active; 'I' for Inactive)
REMARK    1  A    between atoms: O_2  and  C_15
REMARK    2  A    between atoms: O_2  and  C_20
REMARK    3  A    between atoms: O_3  and  C_17
REMARK    4  A    between atoms: O_3  and  C_19
REMARK    5  A    between atoms: C_20  and  C_26
REMARK    6  A    between atoms: C_21  and  C_25
REMARK    7  A    between atoms: C_32  and  C_36
REMARK                            x       y       z     vdW  Elec       q    Type
REMARK                         _______ _______ _______ _____ _____    ______ ____
ROOT
ATOM      1  O   UNL     1     105.827 127.492 143.402  0.00  0.00    +0.000 OA
ENDROOT
BRANCH   1   6
ATOM      2  O   UNL     1     106.873 127.235 145.300  0.00  0.00    +0.000 OA
ATOM      3  O   UNL     1     105.203 126.051 143.910  0.00  0.00    +0.000 OA
ATOM      4  O   UNL     1     105.115 124.982 144.874  0.00  0.00    +0.000 OA
ATOM      5  O   UNL     1     106.749 125.112 147.291  0.00  0.00    +0.000 OA
ATOM      6  C   UNL     1     106.072 127.166 144.119  0.00  0.00    +0.000 A 
ATOM      7  C   UNL     1     106.629 127.560 144.582  0.00  0.00    +0.000 A 
ATOM      8  C   UNL     1     105.759 126.446 144.373  0.00  0.00    +0.000 A 
ATOM      9  C   UNL     1     106.004 126.120 145.090  0.00  0.00    +0.000 A 
ATOM     10  C   UNL     1     106.561 126.515 145.554  0.00  0.00    +0.000 A 
ATOM     11  C   UNL     1     105.672 125.370 145.345  0.00  0.00    +0.000 A 
ATOM     12  C   UNL     1     106.824 126.186 146.303  0.00  0.00    +0.000 A 
ATOM     13  C   UNL     1     105.922 125.025 146.091  0.00  0.00    +0.000 A 
ATOM     14  C   UNL     1     106.503 125.436 146.573  0.00  0.00    +0.000 A 
BRANCH   7  16
ATOM     15  O   UNL     1     107.877 130.442 143.569  0.00  0.00    +0.000 OA
ATOM     16  C   UNL     1     106.941 128.281 144.329  0.00  0.00    +0.000 A 
ATOM     17  C   UNL     1     106.520 128.979 144.452  0.00  0.00    +0.000 A 
ATOM     18  C   UNL     1     107.675 128.303 143.952  0.00  0.00    +0.000 A 
ATOM     19  C   UNL     1     106.831 129.700 144.199  0.00  0.00    +0.000 A 
ATOM     20  C   UNL     1     107.987 129.023 143.699  0.00  0.00    +0.000 A 
ATOM     21  C   UNL     1     107.566 129.721 143.822  0.00  0.00    +0.000 A 
ENDBRANCH   7  16
ENDBRANCH   1   6
BRANCH   1  29
ATOM     22  O   UNL     1     106.547 126.546 142.609  0.00  0.00    +0.000 OA
ATOM     23  O   UNL     1     104.877 126.792 140.799  0.00  0.00    +0.000 OA
ATOM     24  O   UNL     1     106.154 125.764 140.609  0.00  0.00    +0.000 OA
ATOM     25  C   UNL     1     105.434 126.710 141.402  0.00  0.00    +0.000 C 
ATOM     26  C   UNL     1     106.071 126.197 141.307  0.00  0.00    +0.000 C 
ATOM     27  C   UNL     1     105.352 127.142 142.100  0.00  0.00    +0.000 C 
ATOM     28  C   UNL     1     106.628 126.114 141.910  0.00  0.00    +0.000 C 
ATOM     29  C   UNL     1     105.909 127.060 142.703  0.00  0.00    +0.000 C 
ATOM     30  C   UNL     1     107.267 125.600 141.815  0.00  0.00    +0.000 C 
BRANCH  27  31
ATOM     31  O   UNL     1     104.714 127.656 142.195  0.00  0.00    +0.000 OA
BRANCH  31  33
ATOM     32  O   UNL     1     105.318 128.589 141.297  0.00  0.00    +0.000 OA
ATOM     33  C   UNL     1     104.668 128.344 141.742  0.00  0.00    +0.000 C 
BRANCH  33  34
ATOM     34  C   UNL     1     103.972 128.787 141.734  0.00  0.00    +0.000 C 
ATOM     35  C   UNL     1     104.007 129.611 141.739  0.00  0.00    +0.000 C 
BRANCH  35  37
ATOM     36  O   UNL     1     101.221 131.380 141.708  0.00  0.00    +0.000 OA
ATOM     37  C   UNL     1     103.310 130.053 141.731  0.00  0.00    +0.000 A 
ATOM     38  C   UNL     1     102.824 130.045 141.065  0.00  0.00    +0.000 A 
ATOM     39  C   UNL     1     103.100 130.504 142.389  0.00  0.00    +0.000 A 
ATOM     40  C   UNL     1     102.127 130.487 141.057  0.00  0.00    +0.000 A 
ATOM     41  C   UNL     1     102.404 130.946 142.382  0.00  0.00    +0.000 A 
ATOM     42  C   UNL     1     101.917 130.938 141.715  0.00  0.00    +0.000 A 
ENDBRANCH  35  37
ENDBRANCH  33  34
ENDBRANCH  31  33
ENDBRANCH  27  31
ENDBRANCH   1  29
TORSDOF 7
ENDMDL
