MODEL 1
REMARK VINA RESULT:     -10.0      0.000      0.000
REMARK  Name = 44259670
REMARK  8 active torsions:
REMARK  status: ('A' for Active; 'I' for Inactive)
REMARK    1  A    between atoms: O_3  and  C_21
REMARK    2  A    between atoms: O_3  and  C_26
REMARK    3  A    between atoms: O_6  and  C_25
REMARK    4  A    between atoms: O_6  and  C_28
REMARK    5  A    between atoms: O_13  and  C_36
REMARK    6  A    between atoms: C_17  and  C_26
REMARK    7  A    between atoms: C_24  and  C_27
REMARK    8  A    between atoms: C_35  and  C_37
REMARK                            x       y       z     vdW  Elec       q    Type
REMARK                         _______ _______ _______ _____ _____    ______ ____
ROOT
ATOM      1  O   UNL     1     110.158 130.175 136.585  0.00  0.00    +0.000 OA
ATOM      2  O   UNL     1     108.105 128.405 135.587  0.00  0.00    +0.000 OA
ATOM      3  O   UNL     1     107.774 129.704 136.117  0.00  0.00    +0.000 OA
ATOM      4  C   UNL     1     110.325 128.125 135.710  0.00  0.00    +0.000 A 
ATOM      5  C   UNL     1     110.547 128.878 136.062  0.00  0.00    +0.000 A 
ATOM      6  C   UNL     1     109.497 127.963 135.547  0.00  0.00    +0.000 A 
ATOM      7  C   UNL     1     109.939 129.456 136.247  0.00  0.00    +0.000 A 
ATOM      8  C   UNL     1     109.144 129.298 136.091  0.00  0.00    +0.000 A 
ATOM      9  C   UNL     1     108.903 128.553 135.739  0.00  0.00    +0.000 A 
ATOM     10  C   UNL     1     108.569 129.861 136.273  0.00  0.00    +0.000 A 
ATOM     11  C   UNL     1     109.583 130.738 136.767  0.00  0.00    +0.000 A 
ATOM     12  C   UNL     1     108.788 130.581 136.611  0.00  0.00    +0.000 A 
ENDROOT
BRANCH  11  15
ATOM     13  O   UNL     1     110.092 132.331 139.085  0.00  0.00    +0.000 OA
ATOM     14  O   UNL     1     110.461 133.617 138.119  0.00  0.00    +0.000 OA
ATOM     15  C   UNL     1     109.803 131.458 137.105  0.00  0.00    +0.000 A 
ATOM     16  C   UNL     1     109.837 131.534 137.926  0.00  0.00    +0.000 A 
ATOM     17  C   UNL     1     109.987 132.101 136.622  0.00  0.00    +0.000 A 
ATOM     18  C   UNL     1     110.057 132.254 138.264  0.00  0.00    +0.000 A 
ATOM     19  C   UNL     1     110.206 132.821 136.961  0.00  0.00    +0.000 A 
ATOM     20  C   UNL     1     110.241 132.897 137.781  0.00  0.00    +0.000 A 
ENDBRANCH  11  15
BRANCH  12  21
ATOM     21  O   UNL     1     108.213 131.144 136.793  0.00  0.00    +0.000 OA
ATOM     22  C   UNL     1     107.607 131.302 136.257  0.00  0.00    +0.000 C 
ENDBRANCH  12  21
BRANCH   4  23
ATOM     23  O   UNL     1     110.902 127.565 135.529  0.00  0.00    +0.000 OA
BRANCH  23  32
ATOM     24  O   UNL     1     111.070 126.924 136.795  0.00  0.00    +0.000 OA
ATOM     25  O   UNL     1     111.146 124.809 137.328  0.00  0.00    +0.000 OA
ATOM     26  O   UNL     1     110.933 124.712 135.694  0.00  0.00    +0.000 OA
ATOM     27  O   UNL     1     110.811 126.090 134.795  0.00  0.00    +0.000 OA
ATOM     28  C   UNL     1     111.131 126.236 137.245  0.00  0.00    +0.000 C 
ATOM     29  C   UNL     1     111.085 125.498 136.878  0.00  0.00    +0.000 C 
ATOM     30  C   UNL     1     110.978 125.449 136.061  0.00  0.00    +0.000 C 
ATOM     31  C   UNL     1     110.917 126.139 135.611  0.00  0.00    +0.000 C 
ATOM     32  C   UNL     1     110.963 126.876 135.978  0.00  0.00    +0.000 C 
BRANCH  28  33
ATOM     33  C   UNL     1     111.237 126.284 138.062  0.00  0.00    +0.000 C 
BRANCH  33  34
ATOM     34  O   UNL     1     111.843 126.748 138.372  0.00  0.00    +0.000 OA
BRANCH  34  38
ATOM     35  O   UNL     1     111.396 126.634 139.768  0.00  0.00    +0.000 OA
ATOM     36  O   UNL     1     113.389 127.141 139.195  0.00  0.00    +0.000 OA
ATOM     37  O   UNL     1     113.109 127.069 140.966  0.00  0.00    +0.000 OA
ATOM     38  C   UNL     1     111.964 126.779 139.188  0.00  0.00    +0.000 C 
ATOM     39  C   UNL     1     112.675 126.960 139.566  0.00  0.00    +0.000 C 
ATOM     40  C   UNL     1     112.546 126.926 140.380  0.00  0.00    +0.000 C 
ATOM     41  C   UNL     1     111.756 126.726 140.505  0.00  0.00    +0.000 C 
BRANCH  41  43
ATOM     42  O   UNL     1     110.803 126.060 141.336  0.00  0.00    +0.000 OA
ATOM     43  C   UNL     1     111.389 126.632 141.239  0.00  0.00    +0.000 C 
ENDBRANCH  41  43
ENDBRANCH  34  38
ENDBRANCH  33  34
ENDBRANCH  28  33
ENDBRANCH  23  32
ENDBRANCH   4  23
TORSDOF 8
ENDMDL
MODEL 2
REMARK VINA RESULT:      -9.9      2.137      5.605
REMARK  Name = 44259670
REMARK  8 active torsions:
REMARK  status: ('A' for Active; 'I' for Inactive)
REMARK    1  A    between atoms: O_3  and  C_21
REMARK    2  A    between atoms: O_3  and  C_26
REMARK    3  A    between atoms: O_6  and  C_25
REMARK    4  A    between atoms: O_6  and  C_28
REMARK    5  A    between atoms: O_13  and  C_36
REMARK    6  A    between atoms: C_17  and  C_26
REMARK    7  A    between atoms: C_24  and  C_27
REMARK    8  A    between atoms: C_35  and  C_37
REMARK                            x       y       z     vdW  Elec       q    Type
REMARK                         _______ _______ _______ _____ _____    ______ ____
ROOT
ATOM      1  O   UNL     1     112.082 126.800 136.309  0.00  0.00    +0.000 OA
ATOM      2  O   UNL     1     110.514 128.535 134.612  0.00  0.00    +0.000 OA
ATOM      3  O   UNL     1     110.137 127.158 134.820  0.00  0.00    +0.000 OA
ATOM      4  C   UNL     1     112.380 128.951 135.780  0.00  0.00    +0.000 A 
ATOM      5  C   UNL     1     112.506 128.178 136.134  0.00  0.00    +0.000 A 
ATOM      6  C   UNL     1     111.705 129.075 135.263  0.00  0.00    +0.000 A 
ATOM      7  C   UNL     1     111.955 127.540 135.966  0.00  0.00    +0.000 A 
ATOM      8  C   UNL     1     111.307 127.660 135.470  0.00  0.00    +0.000 A 
ATOM      9  C   UNL     1     111.165 128.425 135.107  0.00  0.00    +0.000 A 
ATOM     10  C   UNL     1     110.785 127.040 135.317  0.00  0.00    +0.000 A 
ATOM     11  C   UNL     1     111.560 126.180 136.156  0.00  0.00    +0.000 A 
ATOM     12  C   UNL     1     110.912 126.300 135.660  0.00  0.00    +0.000 A 
ENDROOT
BRANCH  11  15
ATOM     13  O   UNL     1     111.245 124.388 138.360  0.00  0.00    +0.000 OA
ATOM     14  O   UNL     1     112.064 123.222 137.528  0.00  0.00    +0.000 OA
ATOM     15  C   UNL     1     111.686 125.440 136.499  0.00  0.00    +0.000 A 
ATOM     16  C   UNL     1     111.402 125.284 137.258  0.00  0.00    +0.000 A 
ATOM     17  C   UNL     1     112.095 124.857 136.083  0.00  0.00    +0.000 A 
ATOM     18  C   UNL     1     111.529 124.545 137.601  0.00  0.00    +0.000 A 
ATOM     19  C   UNL     1     112.221 124.118 136.426  0.00  0.00    +0.000 A 
ATOM     20  C   UNL     1     111.938 123.961 137.185  0.00  0.00    +0.000 A 
ENDBRANCH  11  15
BRANCH  12  21
ATOM     21  O   UNL     1     110.390 125.679 135.506  0.00  0.00    +0.000 OA
ATOM     22  C   UNL     1     109.749 125.795 135.001  0.00  0.00    +0.000 C 
ENDBRANCH  12  21
BRANCH   4  23
ATOM     23  O   UNL     1     112.903 129.570 135.935  0.00  0.00    +0.000 OA
BRANCH  23  32
ATOM     24  O   UNL     1     112.203 130.118 137.053  0.00  0.00    +0.000 OA
ATOM     25  O   UNL     1     112.941 130.992 138.913  0.00  0.00    +0.000 OA
ATOM     26  O   UNL     1     114.360 130.606 138.165  0.00  0.00    +0.000 OA
ATOM     27  O   UNL     1     114.341 129.895 136.676  0.00  0.00    +0.000 OA
ATOM     28  C   UNL     1     112.212 130.473 137.797  0.00  0.00    +0.000 C 
ATOM     29  C   UNL     1     112.931 130.636 138.168  0.00  0.00    +0.000 C 
ATOM     30  C   UNL     1     113.641 130.443 137.794  0.00  0.00    +0.000 C 
ATOM     31  C   UNL     1     113.631 130.088 137.049  0.00  0.00    +0.000 C 
ATOM     32  C   UNL     1     112.912 129.925 136.679  0.00  0.00    +0.000 C 
BRANCH  28  33
ATOM     33  C   UNL     1     111.503 130.667 138.172  0.00  0.00    +0.000 C 
BRANCH  33  34
ATOM     34  O   UNL     1     110.895 131.026 137.746  0.00  0.00    +0.000 OA
BRANCH  34  38
ATOM     35  O   UNL     1     109.840 130.666 138.703  0.00  0.00    +0.000 OA
ATOM     36  O   UNL     1     109.659 132.237 137.271  0.00  0.00    +0.000 OA
ATOM     37  O   UNL     1     108.223 132.006 138.321  0.00  0.00    +0.000 OA
ATOM     38  C   UNL     1     110.149 131.116 138.086  0.00  0.00    +0.000 C 
ATOM     39  C   UNL     1     109.581 131.673 137.867  0.00  0.00    +0.000 C 
ATOM     40  C   UNL     1     108.921 131.566 138.350  0.00  0.00    +0.000 C 
ATOM     41  C   UNL     1     109.081 130.944 138.867  0.00  0.00    +0.000 C 
BRANCH  41  43
ATOM     42  O   UNL     1     108.546 129.842 139.602  0.00  0.00    +0.000 OA
ATOM     43  C   UNL     1     108.570 130.651 139.446  0.00  0.00    +0.000 C 
ENDBRANCH  41  43
ENDBRANCH  34  38
ENDBRANCH  33  34
ENDBRANCH  28  33
ENDBRANCH  23  32
ENDBRANCH   4  23
TORSDOF 8
ENDMDL
MODEL 3
REMARK VINA RESULT:      -9.9      1.835      5.148
REMARK  Name = 44259670
REMARK  8 active torsions:
REMARK  status: ('A' for Active; 'I' for Inactive)
REMARK    1  A    between atoms: O_3  and  C_21
REMARK    2  A    between atoms: O_3  and  C_26
REMARK    3  A    between atoms: O_6  and  C_25
REMARK    4  A    between atoms: O_6  and  C_28
REMARK    5  A    between atoms: O_13  and  C_36
REMARK    6  A    between atoms: C_17  and  C_26
REMARK    7  A    between atoms: C_24  and  C_27
REMARK    8  A    between atoms: C_35  and  C_37
REMARK                            x       y       z     vdW  Elec       q    Type
REMARK                         _______ _______ _______ _____ _____    ______ ____
ROOT
ATOM      1  O   UNL     1     112.234 126.670 136.224  0.00  0.00    +0.000 OA
ATOM      2  O   UNL     1     109.744 125.860 135.003  0.00  0.00    +0.000 OA
ATOM      3  O   UNL     1     110.665 124.885 135.531  0.00  0.00    +0.000 OA
ATOM      4  C   UNL     1     110.605 127.904 135.319  0.00  0.00    +0.000 A 
ATOM      5  C   UNL     1     111.342 127.693 135.708  0.00  0.00    +0.000 A 
ATOM      6  C   UNL     1     110.061 127.284 135.079  0.00  0.00    +0.000 A 
ATOM      7  C   UNL     1     111.525 126.866 135.851  0.00  0.00    +0.000 A 
ATOM      8  C   UNL     1     111.002 126.271 135.620  0.00  0.00    +0.000 A 
ATOM      9  C   UNL     1     110.261 126.462 135.230  0.00  0.00    +0.000 A 
ATOM     10  C   UNL     1     111.188 125.480 135.762  0.00  0.00    +0.000 A 
ATOM     11  C   UNL     1     112.420 125.879 136.367  0.00  0.00    +0.000 A 
ATOM     12  C   UNL     1     111.897 125.284 136.136  0.00  0.00    +0.000 A 
ENDROOT
BRANCH  11  15
ATOM     13  O   UNL     1     114.023 125.765 138.730  0.00  0.00    +0.000 OA
ATOM     14  O   UNL     1     115.255 125.094 137.862  0.00  0.00    +0.000 OA
ATOM     15  C   UNL     1     113.129 125.682 136.740  0.00  0.00    +0.000 A 
ATOM     16  C   UNL     1     113.221 125.822 137.549  0.00  0.00    +0.000 A 
ATOM     17  C   UNL     1     113.745 125.347 136.306  0.00  0.00    +0.000 A 
ATOM     18  C   UNL     1     113.930 125.626 137.922  0.00  0.00    +0.000 A 
ATOM     19  C   UNL     1     114.453 125.151 136.680  0.00  0.00    +0.000 A 
ATOM     20  C   UNL     1     114.546 125.290 137.488  0.00  0.00    +0.000 A 
ENDBRANCH  11  15
BRANCH  12  21
ATOM     21  O   UNL     1     112.083 124.493 136.278  0.00  0.00    +0.000 OA
ATOM     22  C   UNL     1     111.481 123.942 136.392  0.00  0.00    +0.000 C 
ENDBRANCH  12  21
BRANCH   4  23
ATOM     23  O   UNL     1     110.422 128.696 135.177  0.00  0.00    +0.000 OA
BRANCH  23  32
ATOM     24  O   UNL     1     110.143 129.166 136.498  0.00  0.00    +0.000 OA
ATOM     25  O   UNL     1     108.472 130.337 137.274  0.00  0.00    +0.000 OA
ATOM     26  O   UNL     1     108.055 130.217 135.682  0.00  0.00    +0.000 OA
ATOM     27  O   UNL     1     109.030 129.396 134.634  0.00  0.00    +0.000 OA
ATOM     28  C   UNL     1     109.656 129.576 137.021  0.00  0.00    +0.000 C 
ATOM     29  C   UNL     1     108.960 129.927 136.750  0.00  0.00    +0.000 C 
ATOM     30  C   UNL     1     108.751 129.867 135.954  0.00  0.00    +0.000 C 
ATOM     31  C   UNL     1     109.239 129.456 135.429  0.00  0.00    +0.000 C 
ATOM     32  C   UNL     1     109.935 129.106 135.701  0.00  0.00    +0.000 C 
BRANCH  28  33
ATOM     33  C   UNL     1     109.863 129.637 137.818  0.00  0.00    +0.000 C 
BRANCH  33  34
ATOM     34  O   UNL     1     110.613 129.906 138.030  0.00  0.00    +0.000 OA
BRANCH  34  38
ATOM     35  O   UNL     1     110.580 129.420 139.417  0.00  0.00    +0.000 OA
ATOM     36  O   UNL     1     111.726 131.102 138.773  0.00  0.00    +0.000 OA
ATOM     37  O   UNL     1     111.863 130.720 140.521  0.00  0.00    +0.000 OA
ATOM     38  C   UNL     1     110.833 129.935 138.825  0.00  0.00    +0.000 C 
ATOM     39  C   UNL     1     111.344 130.485 139.166  0.00  0.00    +0.000 C 
ATOM     40  C   UNL     1     111.407 130.309 139.970  0.00  0.00    +0.000 C 
ATOM     41  C   UNL     1     110.935 129.651 140.124  0.00  0.00    +0.000 C 
BRANCH  41  43
ATOM     42  O   UNL     1     110.420 128.577 140.914  0.00  0.00    +0.000 OA
ATOM     43  C   UNL     1     110.836 129.288 140.859  0.00  0.00    +0.000 C 
ENDBRANCH  41  43
ENDBRANCH  34  38
ENDBRANCH  33  34
ENDBRANCH  28  33
ENDBRANCH  23  32
ENDBRANCH   4  23
TORSDOF 8
ENDMDL
MODEL 4
REMARK VINA RESULT:      -9.9      2.561      5.796
REMARK  Name = 44259670
REMARK  8 active torsions:
REMARK  status: ('A' for Active; 'I' for Inactive)
REMARK    1  A    between atoms: O_3  and  C_21
REMARK    2  A    between atoms: O_3  and  C_26
REMARK    3  A    between atoms: O_6  and  C_25
REMARK    4  A    between atoms: O_6  and  C_28
REMARK    5  A    between atoms: O_13  and  C_36
REMARK    6  A    between atoms: C_17  and  C_26
REMARK    7  A    between atoms: C_24  and  C_27
REMARK    8  A    between atoms: C_35  and  C_37
REMARK                            x       y       z     vdW  Elec       q    Type
REMARK                         _______ _______ _______ _____ _____    ______ ____
ROOT
ATOM      1  O   UNL     1     112.317 127.067 136.526  0.00  0.00    +0.000 OA
ATOM      2  O   UNL     1     114.619 128.573 135.643  0.00  0.00    +0.000 OA
ATOM      3  O   UNL     1     114.729 127.175 135.980  0.00  0.00    +0.000 OA
ATOM      4  C   UNL     1     112.493 129.215 135.934  0.00  0.00    +0.000 A 
ATOM      5  C   UNL     1     112.151 128.472 136.199  0.00  0.00    +0.000 A 
ATOM      6  C   UNL     1     113.330 129.252 135.745  0.00  0.00    +0.000 A 
ATOM      7  C   UNL     1     112.651 127.777 136.271  0.00  0.00    +0.000 A 
ATOM      8  C   UNL     1     113.455 127.813 136.089  0.00  0.00    +0.000 A 
ATOM      9  C   UNL     1     113.814 128.546 135.823  0.00  0.00    +0.000 A 
ATOM     10  C   UNL     1     113.925 127.139 136.162  0.00  0.00    +0.000 A 
ATOM     11  C   UNL     1     112.788 126.393 136.599  0.00  0.00    +0.000 A 
ATOM     12  C   UNL     1     113.592 126.429 136.417  0.00  0.00    +0.000 A 
ENDROOT
BRANCH  11  15
ATOM     13  O   UNL     1     111.474 123.924 136.011  0.00  0.00    +0.000 OA
ATOM     14  O   UNL     1     111.454 123.552 137.618  0.00  0.00    +0.000 OA
ATOM     15  C   UNL     1     112.454 125.682 136.854  0.00  0.00    +0.000 A 
ATOM     16  C   UNL     1     112.131 125.158 136.304  0.00  0.00    +0.000 A 
ATOM     17  C   UNL     1     112.444 125.497 137.658  0.00  0.00    +0.000 A 
ATOM     18  C   UNL     1     111.797 124.448 136.559  0.00  0.00    +0.000 A 
ATOM     19  C   UNL     1     112.111 124.786 137.912  0.00  0.00    +0.000 A 
ATOM     20  C   UNL     1     111.787 124.262 137.363  0.00  0.00    +0.000 A 
ENDBRANCH  11  15
BRANCH  12  21
ATOM     21  O   UNL     1     114.062 125.755 136.490  0.00  0.00    +0.000 OA
ATOM     22  C   UNL     1     114.824 125.748 136.177  0.00  0.00    +0.000 C 
ENDBRANCH  12  21
BRANCH   4  23
ATOM     23  O   UNL     1     112.020 129.887 135.862  0.00  0.00    +0.000 OA
BRANCH  23  32
ATOM     24  O   UNL     1     112.326 130.331 137.185  0.00  0.00    +0.000 OA
ATOM     25  O   UNL     1     111.229 131.643 138.543  0.00  0.00    +0.000 OA
ATOM     26  O   UNL     1     110.221 131.632 137.236  0.00  0.00    +0.000 OA
ATOM     27  O   UNL     1     110.617 130.754 135.896  0.00  0.00    +0.000 OA
ATOM     28  C   UNL     1     112.129 130.770 137.855  0.00  0.00    +0.000 C 
ATOM     29  C   UNL     1     111.427 131.203 137.872  0.00  0.00    +0.000 C 
ATOM     30  C   UNL     1     110.923 131.198 137.219  0.00  0.00    +0.000 C 
ATOM     31  C   UNL     1     111.121 130.759 136.549  0.00  0.00    +0.000 C 
ATOM     32  C   UNL     1     111.823 130.326 136.532  0.00  0.00    +0.000 C 
BRANCH  28  33
ATOM     33  C   UNL     1     112.633 130.776 138.509  0.00  0.00    +0.000 C 
BRANCH  33  34
ATOM     34  O   UNL     1     112.786 130.077 138.918  0.00  0.00    +0.000 OA
BRANCH  34  38
ATOM     35  O   UNL     1     113.837 130.685 139.747  0.00  0.00    +0.000 OA
ATOM     36  O   UNL     1     113.447 128.588 139.672  0.00  0.00    +0.000 OA
ATOM     37  O   UNL     1     114.786 129.067 140.765  0.00  0.00    +0.000 OA
ATOM     38  C   UNL     1     113.409 130.042 139.458  0.00  0.00    +0.000 C 
ATOM     39  C   UNL     1     113.712 129.357 139.805  0.00  0.00    +0.000 C 
ATOM     40  C   UNL     1     114.328 129.578 140.307  0.00  0.00    +0.000 C 
ATOM     41  C   UNL     1     114.405 130.398 140.271  0.00  0.00    +0.000 C 
BRANCH  41  43
ATOM     42  O   UNL     1     114.892 131.675 140.690  0.00  0.00    +0.000 OA
ATOM     43  C   UNL     1     114.955 130.852 140.688  0.00  0.00    +0.000 C 
ENDBRANCH  41  43
ENDBRANCH  34  38
ENDBRANCH  33  34
ENDBRANCH  28  33
ENDBRANCH  23  32
ENDBRANCH   4  23
TORSDOF 8
ENDMDL
MODEL 5
REMARK VINA RESULT:      -9.9      1.387      2.136
REMARK  Name = 44259670
REMARK  8 active torsions:
REMARK  status: ('A' for Active; 'I' for Inactive)
REMARK    1  A    between atoms: O_3  and  C_21
REMARK    2  A    between atoms: O_3  and  C_26
REMARK    3  A    between atoms: O_6  and  C_25
REMARK    4  A    between atoms: O_6  and  C_28
REMARK    5  A    between atoms: O_13  and  C_36
REMARK    6  A    between atoms: C_17  and  C_26
REMARK    7  A    between atoms: C_24  and  C_27
REMARK    8  A    between atoms: C_35  and  C_37
REMARK                            x       y       z     vdW  Elec       q    Type
REMARK                         _______ _______ _______ _____ _____    ______ ____
ROOT
ATOM      1  O   UNL     1     111.073 129.851 136.811  0.00  0.00    +0.000 OA
ATOM      2  O   UNL     1     113.425 128.655 135.634  0.00  0.00    +0.000 OA
ATOM      3  O   UNL     1     113.461 129.992 136.174  0.00  0.00    +0.000 OA
ATOM      4  C   UNL     1     111.359 127.831 135.897  0.00  0.00    +0.000 A 
ATOM      5  C   UNL     1     110.982 128.501 136.282  0.00  0.00    +0.000 A 
ATOM      6  C   UNL     1     112.187 127.881 135.676  0.00  0.00    +0.000 A 
ATOM      7  C   UNL     1     111.440 129.211 136.441  0.00  0.00    +0.000 A 
ATOM      8  C   UNL     1     112.235 129.258 136.229  0.00  0.00    +0.000 A 
ATOM      9  C   UNL     1     112.629 128.599 135.843  0.00  0.00    +0.000 A 
ATOM     10  C   UNL     1     112.664 129.944 136.387  0.00  0.00    +0.000 A 
ATOM     11  C   UNL     1     111.502 130.537 136.969  0.00  0.00    +0.000 A 
ATOM     12  C   UNL     1     112.298 130.584 136.757  0.00  0.00    +0.000 A 
ENDROOT
BRANCH  11  15
ATOM     13  O   UNL     1     110.579 131.823 139.349  0.00  0.00    +0.000 OA
ATOM     14  O   UNL     1     110.036 133.095 138.451  0.00  0.00    +0.000 OA
ATOM     15  C   UNL     1     111.135 131.177 137.339  0.00  0.00    +0.000 A 
ATOM     16  C   UNL     1     111.041 131.180 138.159  0.00  0.00    +0.000 A 
ATOM     17  C   UNL     1     110.864 131.813 136.890  0.00  0.00    +0.000 A 
ATOM     18  C   UNL     1     110.674 131.819 138.530  0.00  0.00    +0.000 A 
ATOM     19  C   UNL     1     110.498 132.452 137.261  0.00  0.00    +0.000 A 
ATOM     20  C   UNL     1     110.402 132.456 138.080  0.00  0.00    +0.000 A 
ENDBRANCH  11  15
BRANCH  12  21
ATOM     21  O   UNL     1     112.727 131.271 136.915  0.00  0.00    +0.000 OA
ATOM     22  C   UNL     1     113.551 131.258 136.888  0.00  0.00    +0.000 C 
ENDBRANCH  12  21
BRANCH   4  23
ATOM     23  O   UNL     1     110.927 127.146 135.740  0.00  0.00    +0.000 OA
BRANCH  23  32
ATOM     24  O   UNL     1     111.236 126.506 136.980  0.00  0.00    +0.000 OA
ATOM     25  O   UNL     1     111.510 124.397 137.471  0.00  0.00    +0.000 OA
ATOM     26  O   UNL     1     111.184 124.302 135.857  0.00  0.00    +0.000 OA
ATOM     27  O   UNL     1     110.892 125.676 134.991  0.00  0.00    +0.000 OA
ATOM     28  C   UNL     1     111.382 125.820 137.413  0.00  0.00    +0.000 C 
ATOM     29  C   UNL     1     111.364 125.085 137.038  0.00  0.00    +0.000 C 
ATOM     30  C   UNL     1     111.201 125.037 136.231  0.00  0.00    +0.000 C 
ATOM     31  C   UNL     1     111.055 125.724 135.798  0.00  0.00    +0.000 C 
ATOM     32  C   UNL     1     111.073 126.459 136.173  0.00  0.00    +0.000 C 
BRANCH  28  33
ATOM     33  C   UNL     1     111.545 125.867 138.220  0.00  0.00    +0.000 C 
BRANCH  33  34
ATOM     34  O   UNL     1     112.179 126.322 138.488  0.00  0.00    +0.000 OA
BRANCH  34  38
ATOM     35  O   UNL     1     111.699 126.319 139.877  0.00  0.00    +0.000 OA
ATOM     36  O   UNL     1     113.533 127.216 139.254  0.00  0.00    +0.000 OA
ATOM     37  O   UNL     1     113.184 127.354 141.008  0.00  0.00    +0.000 OA
ATOM     38  C   UNL     1     112.244 126.509 139.289  0.00  0.00    +0.000 C 
ATOM     39  C   UNL     1     112.867 126.920 139.641  0.00  0.00    +0.000 C 
ATOM     40  C   UNL     1     112.706 126.984 140.447  0.00  0.00    +0.000 C 
ATOM     41  C   UNL     1     111.985 126.613 140.593  0.00  0.00    +0.000 C 
BRANCH  41  43
ATOM     42  O   UNL     1     110.901 126.136 141.394  0.00  0.00    +0.000 OA
ATOM     43  C   UNL     1     111.614 126.546 141.328  0.00  0.00    +0.000 C 
ENDBRANCH  41  43
ENDBRANCH  34  38
ENDBRANCH  33  34
ENDBRANCH  28  33
ENDBRANCH  23  32
ENDBRANCH   4  23
TORSDOF 8
ENDMDL
MODEL 6
REMARK VINA RESULT:      -9.8      2.170      6.471
REMARK  Name = 44259670
REMARK  8 active torsions:
REMARK  status: ('A' for Active; 'I' for Inactive)
REMARK    1  A    between atoms: O_3  and  C_21
REMARK    2  A    between atoms: O_3  and  C_26
REMARK    3  A    between atoms: O_6  and  C_25
REMARK    4  A    between atoms: O_6  and  C_28
REMARK    5  A    between atoms: O_13  and  C_36
REMARK    6  A    between atoms: C_17  and  C_26
REMARK    7  A    between atoms: C_24  and  C_27
REMARK    8  A    between atoms: C_35  and  C_37
REMARK                            x       y       z     vdW  Elec       q    Type
REMARK                         _______ _______ _______ _____ _____    ______ ____
ROOT
ATOM      1  O   UNL     1     112.042 126.331 138.658  0.00  0.00    +0.000 OA
ATOM      2  O   UNL     1     114.535 126.670 140.078  0.00  0.00    +0.000 OA
ATOM      3  O   UNL     1     114.494 126.015 138.793  0.00  0.00    +0.000 OA
ATOM      4  C   UNL     1     112.455 127.284 140.637  0.00  0.00    +0.000 A 
ATOM      5  C   UNL     1     112.028 126.997 139.948  0.00  0.00    +0.000 A 
ATOM      6  C   UNL     1     113.306 127.174 140.683  0.00  0.00    +0.000 A 
ATOM      7  C   UNL     1     112.458 126.604 139.316  0.00  0.00    +0.000 A 
ATOM      8  C   UNL     1     113.275 126.499 139.361  0.00  0.00    +0.000 A 
ATOM      9  C   UNL     1     113.718 126.779 140.042  0.00  0.00    +0.000 A 
ATOM     10  C   UNL     1     113.676 126.121 138.748  0.00  0.00    +0.000 A 
ATOM     11  C   UNL     1     112.444 125.952 138.044  0.00  0.00    +0.000 A 
ATOM     12  C   UNL     1     113.261 125.847 138.090  0.00  0.00    +0.000 A 
ENDROOT
BRANCH  11  15
ATOM     13  O   UNL     1     111.321 126.418 135.458  0.00  0.00    +0.000 OA
ATOM     14  O   UNL     1     110.784 124.859 135.410  0.00  0.00    +0.000 OA
ATOM     15  C   UNL     1     112.029 125.679 137.386  0.00  0.00    +0.000 A 
ATOM     16  C   UNL     1     111.883 126.186 136.751  0.00  0.00    +0.000 A 
ATOM     17  C   UNL     1     111.761 124.899 137.362  0.00  0.00    +0.000 A 
ATOM     18  C   UNL     1     111.468 125.912 136.093  0.00  0.00    +0.000 A 
ATOM     19  C   UNL     1     111.346 124.626 136.704  0.00  0.00    +0.000 A 
ATOM     20  C   UNL     1     111.199 125.132 136.069  0.00  0.00    +0.000 A 
ENDBRANCH  11  15
BRANCH  12  21
ATOM     21  O   UNL     1     113.663 125.469 137.477  0.00  0.00    +0.000 OA
ATOM     22  C   UNL     1     114.428 125.186 137.598  0.00  0.00    +0.000 C 
ENDBRANCH  12  21
BRANCH   4  23
ATOM     23  O   UNL     1     112.050 127.662 141.248  0.00  0.00    +0.000 OA
BRANCH  23  32
ATOM     24  O   UNL     1     112.019 128.948 140.625  0.00  0.00    +0.000 OA
ATOM     25  O   UNL     1     112.114 130.953 141.481  0.00  0.00    +0.000 OA
ATOM     26  O   UNL     1     112.209 130.028 142.844  0.00  0.00    +0.000 OA
ATOM     27  O   UNL     1     112.177 128.382 142.728  0.00  0.00    +0.000 OA
ATOM     28  C   UNL     1     112.035 129.770 140.683  0.00  0.00    +0.000 C 
ATOM     29  C   UNL     1     112.098 130.130 141.423  0.00  0.00    +0.000 C 
ATOM     30  C   UNL     1     112.146 129.668 142.104  0.00  0.00    +0.000 C 
ATOM     31  C   UNL     1     112.130 128.844 142.046  0.00  0.00    +0.000 C 
ATOM     32  C   UNL     1     112.066 128.484 141.306  0.00  0.00    +0.000 C 
BRANCH  28  33
ATOM     33  C   UNL     1     111.987 130.233 140.002  0.00  0.00    +0.000 C 
BRANCH  33  34
ATOM     34  O   UNL     1     112.530 130.127 139.391  0.00  0.00    +0.000 OA
BRANCH  34  38
ATOM     35  O   UNL     1     111.847 131.062 138.486  0.00  0.00    +0.000 OA
ATOM     36  O   UNL     1     113.373 129.705 137.864  0.00  0.00    +0.000 OA
ATOM     37  O   UNL     1     112.703 130.737 136.558  0.00  0.00    +0.000 OA
ATOM     38  C   UNL     1     112.394 130.468 138.653  0.00  0.00    +0.000 C 
ATOM     39  C   UNL     1     112.781 130.273 137.950  0.00  0.00    +0.000 C 
ATOM     40  C   UNL     1     112.473 130.748 137.350  0.00  0.00    +0.000 C 
ATOM     41  C   UNL     1     111.896 131.235 137.681  0.00  0.00    +0.000 C 
BRANCH  41  43
ATOM     42  O   UNL     1     111.049 132.385 137.698  0.00  0.00    +0.000 OA
ATOM     43  C   UNL     1     111.447 131.798 137.277  0.00  0.00    +0.000 C 
ENDBRANCH  41  43
ENDBRANCH  34  38
ENDBRANCH  33  34
ENDBRANCH  28  33
ENDBRANCH  23  32
ENDBRANCH   4  23
TORSDOF 8
ENDMDL
MODEL 7
REMARK VINA RESULT:      -9.7      2.098      4.728
REMARK  Name = 44259670
REMARK  8 active torsions:
REMARK  status: ('A' for Active; 'I' for Inactive)
REMARK    1  A    between atoms: O_3  and  C_21
REMARK    2  A    between atoms: O_3  and  C_26
REMARK    3  A    between atoms: O_6  and  C_25
REMARK    4  A    between atoms: O_6  and  C_28
REMARK    5  A    between atoms: O_13  and  C_36
REMARK    6  A    between atoms: C_17  and  C_26
REMARK    7  A    between atoms: C_24  and  C_27
REMARK    8  A    between atoms: C_35  and  C_37
REMARK                            x       y       z     vdW  Elec       q    Type
REMARK                         _______ _______ _______ _____ _____    ______ ____
ROOT
ATOM      1  O   UNL     1     110.596 127.327 137.156  0.00  0.00    +0.000 OA
ATOM      2  O   UNL     1     111.191 124.499 137.163  0.00  0.00    +0.000 OA
ATOM      3  O   UNL     1     110.528 125.117 136.041  0.00  0.00    +0.000 OA
ATOM      4  C   UNL     1     111.598 126.069 138.709  0.00  0.00    +0.000 A 
ATOM      5  C   UNL     1     111.265 126.755 138.311  0.00  0.00    +0.000 A 
ATOM      6  C   UNL     1     111.574 125.303 138.322  0.00  0.00    +0.000 A 
ATOM      7  C   UNL     1     110.914 126.665 137.533  0.00  0.00    +0.000 A 
ATOM      8  C   UNL     1     110.891 125.928 137.161  0.00  0.00    +0.000 A 
ATOM      9  C   UNL     1     111.218 125.232 137.543  0.00  0.00    +0.000 A 
ATOM     10  C   UNL     1     110.551 125.854 136.413  0.00  0.00    +0.000 A 
ATOM     11  C   UNL     1     110.256 127.252 136.408  0.00  0.00    +0.000 A 
ATOM     12  C   UNL     1     110.234 126.516 136.037  0.00  0.00    +0.000 A 
ENDROOT
BRANCH  11  15
ATOM     13  O   UNL     1     108.026 128.951 135.852  0.00  0.00    +0.000 OA
ATOM     14  O   UNL     1     108.986 129.899 134.902  0.00  0.00    +0.000 OA
ATOM     15  C   UNL     1     109.939 127.914 136.031  0.00  0.00    +0.000 A 
ATOM     16  C   UNL     1     109.141 128.101 136.130  0.00  0.00    +0.000 A 
ATOM     17  C   UNL     1     110.419 128.388 135.556  0.00  0.00    +0.000 A 
ATOM     18  C   UNL     1     108.824 128.763 135.753  0.00  0.00    +0.000 A 
ATOM     19  C   UNL     1     110.101 129.050 135.180  0.00  0.00    +0.000 A 
ATOM     20  C   UNL     1     109.304 129.237 135.278  0.00  0.00    +0.000 A 
ENDBRANCH  11  15
BRANCH  12  21
ATOM     21  O   UNL     1     109.894 126.441 135.289  0.00  0.00    +0.000 OA
ATOM     22  C   UNL     1     110.116 125.820 134.795  0.00  0.00    +0.000 C 
ENDBRANCH  12  21
BRANCH   4  23
ATOM     23  O   UNL     1     111.937 126.146 139.457  0.00  0.00    +0.000 OA
BRANCH  23  32
ATOM     24  O   UNL     1     110.713 126.101 140.193  0.00  0.00    +0.000 OA
ATOM     25  O   UNL     1     110.098 127.145 142.008  0.00  0.00    +0.000 OA
ATOM     26  O   UNL     1     111.626 127.736 141.811  0.00  0.00    +0.000 OA
ATOM     27  O   UNL     1     112.546 127.236 140.536  0.00  0.00    +0.000 OA
ATOM     28  C   UNL     1     110.254 126.350 140.830  0.00  0.00    +0.000 C 
ATOM     29  C   UNL     1     110.558 126.895 141.370  0.00  0.00    +0.000 C 
ATOM     30  C   UNL     1     111.322 127.191 141.272  0.00  0.00    +0.000 C 
ATOM     31  C   UNL     1     111.782 126.941 140.634  0.00  0.00    +0.000 C 
ATOM     32  C   UNL     1     111.478 126.396 140.094  0.00  0.00    +0.000 C 
BRANCH  28  33
ATOM     33  C   UNL     1     109.489 126.055 140.929  0.00  0.00    +0.000 C 
BRANCH  33  34
ATOM     34  O   UNL     1     109.345 125.248 140.849  0.00  0.00    +0.000 OA
BRANCH  34  38
ATOM     35  O   UNL     1     107.890 125.386 140.689  0.00  0.00    +0.000 OA
ATOM     36  O   UNL     1     108.851 123.589 141.326  0.00  0.00    +0.000 OA
ATOM     37  O   UNL     1     107.063 123.489 141.215  0.00  0.00    +0.000 OA
ATOM     38  C   UNL     1     108.571 124.961 140.876  0.00  0.00    +0.000 C 
ATOM     39  C   UNL     1     108.345 124.199 141.096  0.00  0.00    +0.000 C 
ATOM     40  C   UNL     1     107.523 124.153 141.044  0.00  0.00    +0.000 C 
ATOM     41  C   UNL     1     107.242 124.886 140.793  0.00  0.00    +0.000 C 
BRANCH  41  43
ATOM     42  O   UNL     1     106.253 125.652 140.101  0.00  0.00    +0.000 OA
ATOM     43  C   UNL     1     106.451 125.086 140.668  0.00  0.00    +0.000 C 
ENDBRANCH  41  43
ENDBRANCH  34  38
ENDBRANCH  33  34
ENDBRANCH  28  33
ENDBRANCH  23  32
ENDBRANCH   4  23
TORSDOF 8
ENDMDL
MODEL 8
REMARK VINA RESULT:      -9.7      2.555      5.207
REMARK  Name = 44259670
REMARK  8 active torsions:
REMARK  status: ('A' for Active; 'I' for Inactive)
REMARK    1  A    between atoms: O_3  and  C_21
REMARK    2  A    between atoms: O_3  and  C_26
REMARK    3  A    between atoms: O_6  and  C_25
REMARK    4  A    between atoms: O_6  and  C_28
REMARK    5  A    between atoms: O_13  and  C_36
REMARK    6  A    between atoms: C_17  and  C_26
REMARK    7  A    between atoms: C_24  and  C_27
REMARK    8  A    between atoms: C_35  and  C_37
REMARK                            x       y       z     vdW  Elec       q    Type
REMARK                         _______ _______ _______ _____ _____    ______ ____
ROOT
ATOM      1  O   UNL     1     112.403 126.514 136.345  0.00  0.00    +0.000 OA
ATOM      2  O   UNL     1     111.014 128.543 134.830  0.00  0.00    +0.000 OA
ATOM      3  O   UNL     1     110.481 127.209 134.949  0.00  0.00    +0.000 OA
ATOM      4  C   UNL     1     112.943 128.649 135.965  0.00  0.00    +0.000 A 
ATOM      5  C   UNL     1     112.984 127.842 136.258  0.00  0.00    +0.000 A 
ATOM      6  C   UNL     1     112.275 128.890 135.480  0.00  0.00    +0.000 A 
ATOM      7  C   UNL     1     112.358 127.287 136.062  0.00  0.00    +0.000 A 
ATOM      8  C   UNL     1     111.718 127.519 135.596  0.00  0.00    +0.000 A 
ATOM      9  C   UNL     1     111.659 128.321 135.294  0.00  0.00    +0.000 A 
ATOM     10  C   UNL     1     111.122 126.977 135.414  0.00  0.00    +0.000 A 
ATOM     11  C   UNL     1     111.808 125.972 136.164  0.00  0.00    +0.000 A 
ATOM     12  C   UNL     1     111.167 126.204 135.698  0.00  0.00    +0.000 A 
ENDROOT
BRANCH  11  15
ATOM     13  O   UNL     1     111.311 124.061 138.230  0.00  0.00    +0.000 OA
ATOM     14  O   UNL     1     111.988 122.879 137.299  0.00  0.00    +0.000 OA
ATOM     15  C   UNL     1     111.853 125.199 136.447  0.00  0.00    +0.000 A 
ATOM     16  C   UNL     1     111.559 125.017 137.197  0.00  0.00    +0.000 A 
ATOM     17  C   UNL     1     112.192 124.608 135.982  0.00  0.00    +0.000 A 
ATOM     18  C   UNL     1     111.604 124.244 137.481  0.00  0.00    +0.000 A 
ATOM     19  C   UNL     1     112.237 123.835 136.266  0.00  0.00    +0.000 A 
ATOM     20  C   UNL     1     111.943 123.652 137.016  0.00  0.00    +0.000 A 
ENDBRANCH  11  15
BRANCH  12  21
ATOM     21  O   UNL     1     110.572 125.662 135.516  0.00  0.00    +0.000 OA
ATOM     22  C   UNL     1     110.011 125.844 134.941  0.00  0.00    +0.000 C 
ENDBRANCH  12  21
BRANCH   4  23
ATOM     23  O   UNL     1     113.539 129.188 136.148  0.00  0.00    +0.000 OA
BRANCH  23  32
ATOM     24  O   UNL     1     113.467 129.194 137.575  0.00  0.00    +0.000 OA
ATOM     25  O   UNL     1     113.444 130.849 138.998  0.00  0.00    +0.000 OA
ATOM     26  O   UNL     1     113.541 131.668 137.569  0.00  0.00    +0.000 OA
ATOM     27  O   UNL     1     113.589 130.838 136.144  0.00  0.00    +0.000 OA
ATOM     28  C   UNL     1     113.443 129.609 138.287  0.00  0.00    +0.000 C 
ATOM     29  C   UNL     1     113.468 130.433 138.285  0.00  0.00    +0.000 C 
ATOM     30  C   UNL     1     113.516 130.843 137.571  0.00  0.00    +0.000 C 
ATOM     31  C   UNL     1     113.540 130.428 136.858  0.00  0.00    +0.000 C 
ATOM     32  C   UNL     1     113.515 129.603 136.860  0.00  0.00    +0.000 C 
BRANCH  28  33
ATOM     33  C   UNL     1     113.394 129.200 139.002  0.00  0.00    +0.000 C 
BRANCH  33  34
ATOM     34  O   UNL     1     112.804 128.635 139.116  0.00  0.00    +0.000 OA
BRANCH  34  38
ATOM     35  O   UNL     1     113.595 127.883 140.100  0.00  0.00    +0.000 OA
ATOM     36  O   UNL     1     111.560 127.448 139.628  0.00  0.00    +0.000 OA
ATOM     37  O   UNL     1     112.293 126.375 140.865  0.00  0.00    +0.000 OA
ATOM     38  C   UNL     1     112.906 128.039 139.677  0.00  0.00    +0.000 C 
ATOM     39  C   UNL     1     112.333 127.492 139.912  0.00  0.00    +0.000 C 
ATOM     40  C   UNL     1     112.670 126.999 140.481  0.00  0.00    +0.000 C 
ATOM     41  C   UNL     1     113.450 127.240 140.597  0.00  0.00    +0.000 C 
BRANCH  41  43
ATOM     42  O   UNL     1     114.794 127.073 141.053  0.00  0.00    +0.000 OA
ATOM     43  C   UNL     1     113.990 126.899 141.119  0.00  0.00    +0.000 C 
ENDBRANCH  41  43
ENDBRANCH  34  38
ENDBRANCH  33  34
ENDBRANCH  28  33
ENDBRANCH  23  32
ENDBRANCH   4  23
TORSDOF 8
ENDMDL
MODEL 9
REMARK VINA RESULT:      -9.7      2.249      5.400
REMARK  Name = 44259670
REMARK  8 active torsions:
REMARK  status: ('A' for Active; 'I' for Inactive)
REMARK    1  A    between atoms: O_3  and  C_21
REMARK    2  A    between atoms: O_3  and  C_26
REMARK    3  A    between atoms: O_6  and  C_25
REMARK    4  A    between atoms: O_6  and  C_28
REMARK    5  A    between atoms: O_13  and  C_36
REMARK    6  A    between atoms: C_17  and  C_26
REMARK    7  A    between atoms: C_24  and  C_27
REMARK    8  A    between atoms: C_35  and  C_37
REMARK                            x       y       z     vdW  Elec       q    Type
REMARK                         _______ _______ _______ _____ _____    ______ ____
ROOT
ATOM      1  O   UNL     1     112.363 127.014 136.757  0.00  0.00    +0.000 OA
ATOM      2  O   UNL     1     109.547 127.384 137.283  0.00  0.00    +0.000 OA
ATOM      3  O   UNL     1     110.217 126.161 137.648  0.00  0.00    +0.000 OA
ATOM      4  C   UNL     1     111.034 128.760 136.327  0.00  0.00    +0.000 A 
ATOM      5  C   UNL     1     111.737 128.266 136.369  0.00  0.00    +0.000 A 
ATOM      6  C   UNL     1     110.290 128.463 136.637  0.00  0.00    +0.000 A 
ATOM      7  C   UNL     1     111.685 127.483 136.719  0.00  0.00    +0.000 A 
ATOM      8  C   UNL     1     110.970 127.199 137.016  0.00  0.00    +0.000 A 
ATOM      9  C   UNL     1     110.258 127.678 136.984  0.00  0.00    +0.000 A 
ATOM     10  C   UNL     1     110.933 126.446 137.351  0.00  0.00    +0.000 A 
ATOM     11  C   UNL     1     112.326 126.261 137.091  0.00  0.00    +0.000 A 
ATOM     12  C   UNL     1     111.610 125.977 137.388  0.00  0.00    +0.000 A 
ENDROOT
BRANCH  11  15
ATOM     13  O   UNL     1     114.781 125.558 138.373  0.00  0.00    +0.000 OA
ATOM     14  O   UNL     1     115.036 124.385 137.241  0.00  0.00    +0.000 OA
ATOM     15  C   UNL     1     113.003 125.792 137.128  0.00  0.00    +0.000 A 
ATOM     16  C   UNL     1     113.553 125.910 137.732  0.00  0.00    +0.000 A 
ATOM     17  C   UNL     1     113.131 125.205 136.562  0.00  0.00    +0.000 A 
ATOM     18  C   UNL     1     114.231 125.441 137.769  0.00  0.00    +0.000 A 
ATOM     19  C   UNL     1     113.808 124.737 136.600  0.00  0.00    +0.000 A 
ATOM     20  C   UNL     1     114.359 124.854 137.203  0.00  0.00    +0.000 A 
ENDBRANCH  11  15
BRANCH  12  21
ATOM     21  O   UNL     1     111.573 125.223 137.722  0.00  0.00    +0.000 OA
ATOM     22  C   UNL     1     111.027 125.064 138.318  0.00  0.00    +0.000 C 
ENDBRANCH  12  21
BRANCH   4  23
ATOM     23  O   UNL     1     111.075 129.512 135.992  0.00  0.00    +0.000 OA
BRANCH  23  32
ATOM     24  O   UNL     1     111.708 130.165 137.095  0.00  0.00    +0.000 OA
ATOM     25  O   UNL     1     111.423 132.162 137.928  0.00  0.00    +0.000 OA
ATOM     26  O   UNL     1     110.331 132.182 136.691  0.00  0.00    +0.000 OA
ATOM     27  O   UNL     1     110.157 130.857 135.723  0.00  0.00    +0.000 OA
ATOM     28  C   UNL     1     111.795 130.827 137.578  0.00  0.00    +0.000 C 
ATOM     29  C   UNL     1     111.336 131.499 137.444  0.00  0.00    +0.000 C 
ATOM     30  C   UNL     1     110.790 131.510 136.826  0.00  0.00    +0.000 C 
ATOM     31  C   UNL     1     110.703 130.847 136.341  0.00  0.00    +0.000 C 
ATOM     32  C   UNL     1     111.162 130.174 136.476  0.00  0.00    +0.000 C 
BRANCH  28  33
ATOM     33  C   UNL     1     112.341 130.818 138.197  0.00  0.00    +0.000 C 
BRANCH  33  34
ATOM     34  O   UNL     1     112.326 130.209 138.752  0.00  0.00    +0.000 OA
BRANCH  34  38
ATOM     35  O   UNL     1     113.577 130.637 139.395  0.00  0.00    +0.000 OA
ATOM     36  O   UNL     1     112.611 128.776 139.795  0.00  0.00    +0.000 OA
ATOM     37  O   UNL     1     114.126 129.052 140.715  0.00  0.00    +0.000 OA
ATOM     38  C   UNL     1     112.962 130.104 139.268  0.00  0.00    +0.000 C 
ATOM     39  C   UNL     1     113.092 129.444 139.747  0.00  0.00    +0.000 C 
ATOM     40  C   UNL     1     113.789 129.572 140.170  0.00  0.00    +0.000 C 
ATOM     41  C   UNL     1     114.088 130.308 139.952  0.00  0.00    +0.000 C 
BRANCH  41  43
ATOM     42  O   UNL     1     114.792 131.461 140.418  0.00  0.00    +0.000 OA
ATOM     43  C   UNL     1     114.779 130.656 140.241  0.00  0.00    +0.000 C 
ENDBRANCH  41  43
ENDBRANCH  34  38
ENDBRANCH  33  34
ENDBRANCH  28  33
ENDBRANCH  23  32
ENDBRANCH   4  23
TORSDOF 8
ENDMDL
MODEL 10
REMARK VINA RESULT:      -9.7      1.140      2.170
REMARK  Name = 44259670
REMARK  8 active torsions:
REMARK  status: ('A' for Active; 'I' for Inactive)
REMARK    1  A    between atoms: O_3  and  C_21
REMARK    2  A    between atoms: O_3  and  C_26
REMARK    3  A    between atoms: O_6  and  C_25
REMARK    4  A    between atoms: O_6  and  C_28
REMARK    5  A    between atoms: O_13  and  C_36
REMARK    6  A    between atoms: C_17  and  C_26
REMARK    7  A    between atoms: C_24  and  C_27
REMARK    8  A    between atoms: C_35  and  C_37
REMARK                            x       y       z     vdW  Elec       q    Type
REMARK                         _______ _______ _______ _____ _____    ______ ____
ROOT
ATOM      1  O   UNL     1     109.932 130.218 135.545  0.00  0.00    +0.000 OA
ATOM      2  O   UNL     1     112.365 130.431 137.087  0.00  0.00    +0.000 OA
ATOM      3  O   UNL     1     111.414 131.514 137.046  0.00  0.00    +0.000 OA
ATOM      4  C   UNL     1     111.595 128.750 135.822  0.00  0.00    +0.000 A 
ATOM      5  C   UNL     1     110.856 129.098 135.552  0.00  0.00    +0.000 A 
ATOM      6  C   UNL     1     112.109 129.201 136.343  0.00  0.00    +0.000 A 
ATOM      7  C   UNL     1     110.642 129.890 135.807  0.00  0.00    +0.000 A 
ATOM      8  C   UNL     1     111.136 130.321 136.307  0.00  0.00    +0.000 A 
ATOM      9  C   UNL     1     111.878 129.991 136.587  0.00  0.00    +0.000 A 
ATOM     10  C   UNL     1     110.920 131.081 136.545  0.00  0.00    +0.000 A 
ATOM     11  C   UNL     1     109.715 130.978 135.783  0.00  0.00    +0.000 A 
ATOM     12  C   UNL     1     110.210 131.409 136.283  0.00  0.00    +0.000 A 
ENDROOT
BRANCH  11  15
ATOM     13  O   UNL     1     106.883 131.267 136.031  0.00  0.00    +0.000 OA
ATOM     14  O   UNL     1     106.874 132.289 134.736  0.00  0.00    +0.000 OA
ATOM     15  C   UNL     1     109.005 131.306 135.521  0.00  0.00    +0.000 A 
ATOM     16  C   UNL     1     108.299 131.122 135.907  0.00  0.00    +0.000 A 
ATOM     17  C   UNL     1     109.001 131.817 134.873  0.00  0.00    +0.000 A 
ATOM     18  C   UNL     1     107.589 131.450 135.645  0.00  0.00    +0.000 A 
ATOM     19  C   UNL     1     108.291 132.144 134.612  0.00  0.00    +0.000 A 
ATOM     20  C   UNL     1     107.585 131.961 134.998  0.00  0.00    +0.000 A 
ENDBRANCH  11  15
BRANCH  12  21
ATOM     21  O   UNL     1     109.993 132.169 136.521  0.00  0.00    +0.000 OA
ATOM     22  C   UNL     1     110.329 132.501 137.197  0.00  0.00    +0.000 C 
ENDBRANCH  12  21
BRANCH   4  23
ATOM     23  O   UNL     1     111.808 127.990 135.582  0.00  0.00    +0.000 OA
BRANCH  23  32
ATOM     24  O   UNL     1     111.602 127.274 136.801  0.00  0.00    +0.000 OA
ATOM     25  O   UNL     1     110.624 125.361 137.186  0.00  0.00    +0.000 OA
ATOM     26  O   UNL     1     110.446 125.478 135.550  0.00  0.00    +0.000 OA
ATOM     27  O   UNL     1     111.038 126.793 134.748  0.00  0.00    +0.000 OA
ATOM     28  C   UNL     1     111.306 126.617 137.202  0.00  0.00    +0.000 C 
ATOM     29  C   UNL     1     110.921 126.019 136.785  0.00  0.00    +0.000 C 
ATOM     30  C   UNL     1     110.831 126.077 135.967  0.00  0.00    +0.000 C 
ATOM     31  C   UNL     1     111.127 126.735 135.566  0.00  0.00    +0.000 C 
ATOM     32  C   UNL     1     111.513 127.334 135.983  0.00  0.00    +0.000 C 
BRANCH  28  33
ATOM     33  C   UNL     1     111.395 126.558 138.021  0.00  0.00    +0.000 C 
BRANCH  33  34
ATOM     34  O   UNL     1     112.139 126.652 138.363  0.00  0.00    +0.000 OA
BRANCH  34  38
ATOM     35  O   UNL     1     111.611 126.566 139.732  0.00  0.00    +0.000 OA
ATOM     36  O   UNL     1     113.647 127.009 139.268  0.00  0.00    +0.000 OA
ATOM     37  O   UNL     1     113.266 126.964 141.021  0.00  0.00    +0.000 OA
ATOM     38  C   UNL     1     112.214 126.688 139.184  0.00  0.00    +0.000 C 
ATOM     39  C   UNL     1     112.908 126.852 139.600  0.00  0.00    +0.000 C 
ATOM     40  C   UNL     1     112.733 126.831 140.406  0.00  0.00    +0.000 C 
ATOM     41  C   UNL     1     111.931 126.655 140.487  0.00  0.00    +0.000 C 
BRANCH  41  43
ATOM     42  O   UNL     1     110.889 126.054 141.258  0.00  0.00    +0.000 OA
ATOM     43  C   UNL     1     111.522 126.580 141.200  0.00  0.00    +0.000 C 
ENDBRANCH  41  43
ENDBRANCH  34  38
ENDBRANCH  33  34
ENDBRANCH  28  33
ENDBRANCH  23  32
ENDBRANCH   4  23
TORSDOF 8
ENDMDL
