MODEL 1
REMARK VINA RESULT:      -9.6      0.000      0.000
REMARK  Name = 14656728
REMARK  4 active torsions:
REMARK  status: ('A' for Active; 'I' for Inactive)
REMARK    1  A    between atoms: O_2  and  C_15
REMARK    2  A    between atoms: O_2  and  C_17
REMARK    3  A    between atoms: C_14  and  C_16
REMARK    4  A    between atoms: C_24  and  C_26
REMARK                            x       y       z     vdW  Elec       q    Type
REMARK                         _______ _______ _______ _____ _____    ______ ____
ROOT
ATOM      1  O   UNL     1     103.268 124.605 147.325  0.00  0.00    +0.000 OA
ATOM      2  O   UNL     1     102.658 123.737 149.562  0.00  0.00    +0.000 OA
ATOM      3  C   UNL     1     104.771 125.675 148.588  0.00  0.00    +0.000 A 
ATOM      4  C   UNL     1     104.331 125.412 147.897  0.00  0.00    +0.000 A 
ATOM      5  C   UNL     1     104.558 125.373 149.364  0.00  0.00    +0.000 A 
ATOM      6  C   UNL     1     103.686 124.853 147.992  0.00  0.00    +0.000 A 
ATOM      7  C   UNL     1     103.483 124.564 148.737  0.00  0.00    +0.000 A 
ATOM      8  C   UNL     1     103.910 124.814 149.439  0.00  0.00    +0.000 A 
ATOM      9  C   UNL     1     102.862 124.027 148.816  0.00  0.00    +0.000 A 
ATOM     10  C   UNL     1     102.647 124.068 147.404  0.00  0.00    +0.000 A 
ATOM     11  C   UNL     1     102.443 123.779 148.150  0.00  0.00    +0.000 A 
ENDROOT
BRANCH  10  14
ATOM     12  O   UNL     1     102.585 122.740 144.874  0.00  0.00    +0.000 OA
ATOM     13  O   UNL     1     100.975 123.075 144.738  0.00  0.00    +0.000 OA
ATOM     14  C   UNL     1     102.228 123.820 146.738  0.00  0.00    +0.000 A 
ATOM     15  C   UNL     1     102.616 123.404 146.139  0.00  0.00    +0.000 A 
ATOM     16  C   UNL     1     101.424 123.988 146.669  0.00  0.00    +0.000 A 
ATOM     17  C   UNL     1     102.198 123.156 145.473  0.00  0.00    +0.000 A 
ATOM     18  C   UNL     1     101.006 123.739 146.003  0.00  0.00    +0.000 A 
ATOM     19  C   UNL     1     101.393 123.324 145.404  0.00  0.00    +0.000 A 
ENDBRANCH  10  14
BRANCH   3  20
ATOM     20  O   UNL     1     105.391 126.212 148.506  0.00  0.00    +0.000 OA
BRANCH  20  29
ATOM     21  O   UNL     1     106.502 125.323 148.646  0.00  0.00    +0.000 OA
ATOM     22  O   UNL     1     107.621 126.419 146.729  0.00  0.00    +0.000 OA
ATOM     23  O   UNL     1     108.357 125.165 147.508  0.00  0.00    +0.000 OA
ATOM     24  O   UNL     1     106.137 126.942 147.228  0.00  0.00    +0.000 OA
ATOM     25  C   UNL     1     107.248 126.053 147.368  0.00  0.00    +0.000 C 
ATOM     26  C   UNL     1     107.616 125.426 147.758  0.00  0.00    +0.000 C 
ATOM     27  C   UNL     1     106.505 126.315 147.618  0.00  0.00    +0.000 C 
ATOM     28  C   UNL     1     107.243 125.061 148.397  0.00  0.00    +0.000 C 
ATOM     29  C   UNL     1     106.132 125.950 148.257  0.00  0.00    +0.000 C 
BRANCH  28  31
ATOM     30  O   UNL     1     107.631 124.414 149.610  0.00  0.00    +0.000 OA
ATOM     31  C   UNL     1     107.611 124.435 148.786  0.00  0.00    +0.000 C 
ENDBRANCH  28  31
ENDBRANCH  20  29
ENDBRANCH   3  20
TORSDOF 4
ENDMDL
MODEL 2
REMARK VINA RESULT:      -9.4     12.100     14.140
REMARK  Name = 14656728
REMARK  4 active torsions:
REMARK  status: ('A' for Active; 'I' for Inactive)
REMARK    1  A    between atoms: O_2  and  C_15
REMARK    2  A    between atoms: O_2  and  C_17
REMARK    3  A    between atoms: C_14  and  C_16
REMARK    4  A    between atoms: C_24  and  C_26
REMARK                            x       y       z     vdW  Elec       q    Type
REMARK                         _______ _______ _______ _____ _____    ______ ____
ROOT
ATOM      1  O   UNL     1     112.094 126.714 136.254  0.00  0.00    +0.000 OA
ATOM      2  O   UNL     1     110.533 124.969 135.448  0.00  0.00    +0.000 OA
ATOM      3  C   UNL     1     110.511 127.994 135.331  0.00  0.00    +0.000 A 
ATOM      4  C   UNL     1     111.232 127.763 135.739  0.00  0.00    +0.000 A 
ATOM      5  C   UNL     1     109.970 127.389 135.052  0.00  0.00    +0.000 A 
ATOM      6  C   UNL     1     111.401 126.930 135.862  0.00  0.00    +0.000 A 
ATOM      7  C   UNL     1     110.880 126.348 135.593  0.00  0.00    +0.000 A 
ATOM      8  C   UNL     1     110.156 126.560 135.184  0.00  0.00    +0.000 A 
ATOM      9  C   UNL     1     111.053 125.551 135.717  0.00  0.00    +0.000 A 
ATOM     10  C   UNL     1     112.266 125.916 136.378  0.00  0.00    +0.000 A 
ATOM     11  C   UNL     1     111.746 125.335 136.109  0.00  0.00    +0.000 A 
ENDROOT
BRANCH  10  14
ATOM     12  O   UNL     1     113.885 125.932 138.733  0.00  0.00    +0.000 OA
ATOM     13  O   UNL     1     115.038 125.053 137.947  0.00  0.00    +0.000 OA
ATOM     14  C   UNL     1     112.960 125.700 136.770  0.00  0.00    +0.000 A 
ATOM     15  C   UNL     1     113.075 125.925 137.556  0.00  0.00    +0.000 A 
ATOM     16  C   UNL     1     113.536 125.260 136.376  0.00  0.00    +0.000 A 
ATOM     17  C   UNL     1     113.768 125.709 137.948  0.00  0.00    +0.000 A 
ATOM     18  C   UNL     1     114.228 125.045 136.769  0.00  0.00    +0.000 A 
ATOM     19  C   UNL     1     114.345 125.269 137.555  0.00  0.00    +0.000 A 
ENDBRANCH  10  14
BRANCH   3  20
ATOM     20  O   UNL     1     110.341 128.792 135.209  0.00  0.00    +0.000 OA
BRANCH  20  29
ATOM     21  O   UNL     1     109.928 129.104 136.541  0.00  0.00    +0.000 OA
ATOM     22  O   UNL     1     108.135 130.556 135.646  0.00  0.00    +0.000 OA
ATOM     23  O   UNL     1     108.320 130.383 137.275  0.00  0.00    +0.000 OA
ATOM     24  O   UNL     1     109.146 129.760 134.612  0.00  0.00    +0.000 OA
ATOM     25  C   UNL     1     108.732 130.072 135.944  0.00  0.00    +0.000 C 
ATOM     26  C   UNL     1     108.825 129.985 136.759  0.00  0.00    +0.000 C 
ATOM     27  C   UNL     1     109.238 129.674 135.427  0.00  0.00    +0.000 C 
ATOM     28  C   UNL     1     109.423 129.501 137.058  0.00  0.00    +0.000 C 
ATOM     29  C   UNL     1     109.836 129.190 135.726  0.00  0.00    +0.000 C 
BRANCH  28  31
ATOM     30  O   UNL     1     109.341 128.694 138.234  0.00  0.00    +0.000 OA
ATOM     31  C   UNL     1     109.515 129.415 137.872  0.00  0.00    +0.000 C 
ENDBRANCH  28  31
ENDBRANCH  20  29
ENDBRANCH   3  20
TORSDOF 4
ENDMDL
MODEL 3
REMARK VINA RESULT:      -9.2     12.343     13.774
REMARK  Name = 14656728
REMARK  4 active torsions:
REMARK  status: ('A' for Active; 'I' for Inactive)
REMARK    1  A    between atoms: O_2  and  C_15
REMARK    2  A    between atoms: O_2  and  C_17
REMARK    3  A    between atoms: C_14  and  C_16
REMARK    4  A    between atoms: C_24  and  C_26
REMARK                            x       y       z     vdW  Elec       q    Type
REMARK                         _______ _______ _______ _____ _____    ______ ____
ROOT
ATOM      1  O   UNL     1     110.930 126.228 136.601  0.00  0.00    +0.000 OA
ATOM      2  O   UNL     1     109.725 125.380 134.612  0.00  0.00    +0.000 OA
ATOM      3  C   UNL     1     109.224 127.670 136.528  0.00  0.00    +0.000 A 
ATOM      4  C   UNL     1     109.945 127.279 136.786  0.00  0.00    +0.000 A 
ATOM      5  C   UNL     1     108.806 127.376 135.838  0.00  0.00    +0.000 A 
ATOM      6  C   UNL     1     110.238 126.599 136.349  0.00  0.00    +0.000 A 
ATOM      7  C   UNL     1     109.836 126.317 135.686  0.00  0.00    +0.000 A 
ATOM      8  C   UNL     1     109.114 126.694 135.414  0.00  0.00    +0.000 A 
ATOM      9  C   UNL     1     110.126 125.663 135.275  0.00  0.00    +0.000 A 
ATOM     10  C   UNL     1     111.221 125.574 136.190  0.00  0.00    +0.000 A 
ATOM     11  C   UNL     1     110.819 125.292 135.527  0.00  0.00    +0.000 A 
ENDROOT
BRANCH  10  14
ATOM     12  O   UNL     1     114.066 125.560 136.455  0.00  0.00    +0.000 OA
ATOM     13  O   UNL     1     113.990 124.089 137.197  0.00  0.00    +0.000 OA
ATOM     14  C   UNL     1     111.913 125.202 136.442  0.00  0.00    +0.000 A 
ATOM     15  C   UNL     1     112.643 125.568 136.322  0.00  0.00    +0.000 A 
ATOM     16  C   UNL     1     111.875 124.467 136.813  0.00  0.00    +0.000 A 
ATOM     17  C   UNL     1     113.336 125.196 136.574  0.00  0.00    +0.000 A 
ATOM     18  C   UNL     1     112.567 124.096 137.065  0.00  0.00    +0.000 A 
ATOM     19  C   UNL     1     113.298 124.460 136.945  0.00  0.00    +0.000 A 
ENDBRANCH  10  14
BRANCH   3  20
ATOM     20  O   UNL     1     108.936 128.324 136.941  0.00  0.00    +0.000 OA
BRANCH  20  29
ATOM     21  O   UNL     1     109.449 129.336 136.072  0.00  0.00    +0.000 OA
ATOM     22  O   UNL     1     109.987 130.747 138.033  0.00  0.00    +0.000 OA
ATOM     23  O   UNL     1     110.320 131.288 136.511  0.00  0.00    +0.000 OA
ATOM     24  O   UNL     1     109.295 129.264 138.248  0.00  0.00    +0.000 OA
ATOM     25  C   UNL     1     109.807 130.276 137.380  0.00  0.00    +0.000 C 
ATOM     26  C   UNL     1     109.974 130.547 136.618  0.00  0.00    +0.000 C 
ATOM     27  C   UNL     1     109.461 129.535 137.487  0.00  0.00    +0.000 C 
ATOM     28  C   UNL     1     109.794 130.076 135.965  0.00  0.00    +0.000 C 
ATOM     29  C   UNL     1     109.282 129.064 136.833  0.00  0.00    +0.000 C 
BRANCH  28  31
ATOM     30  O   UNL     1     109.359 130.397 134.642  0.00  0.00    +0.000 OA
ATOM     31  C   UNL     1     109.961 130.347 135.204  0.00  0.00    +0.000 C 
ENDBRANCH  28  31
ENDBRANCH  20  29
ENDBRANCH   3  20
TORSDOF 4
ENDMDL
MODEL 4
REMARK VINA RESULT:      -9.2     13.310     14.131
REMARK  Name = 14656728
REMARK  4 active torsions:
REMARK  status: ('A' for Active; 'I' for Inactive)
REMARK    1  A    between atoms: O_2  and  C_15
REMARK    2  A    between atoms: O_2  and  C_17
REMARK    3  A    between atoms: C_14  and  C_16
REMARK    4  A    between atoms: C_24  and  C_26
REMARK                            x       y       z     vdW  Elec       q    Type
REMARK                         _______ _______ _______ _____ _____    ______ ____
ROOT
ATOM      1  O   UNL     1     111.121 128.556 136.443  0.00  0.00    +0.000 OA
ATOM      2  O   UNL     1     112.634 129.305 134.633  0.00  0.00    +0.000 OA
ATOM      3  C   UNL     1     112.954 127.381 136.949  0.00  0.00    +0.000 A 
ATOM      4  C   UNL     1     112.154 127.693 136.989  0.00  0.00    +0.000 A 
ATOM      5  C   UNL     1     113.479 127.642 136.321  0.00  0.00    +0.000 A 
ATOM      6  C   UNL     1     111.890 128.261 136.400  0.00  0.00    +0.000 A 
ATOM      7  C   UNL     1     112.394 128.510 135.797  0.00  0.00    +0.000 A 
ATOM      8  C   UNL     1     113.197 128.210 135.741  0.00  0.00    +0.000 A 
ATOM      9  C   UNL     1     112.130 129.055 135.237  0.00  0.00    +0.000 A 
ATOM     10  C   UNL     1     110.856 129.101 135.883  0.00  0.00    +0.000 A 
ATOM     11  C   UNL     1     111.361 129.351 135.280  0.00  0.00    +0.000 A 
ENDROOT
BRANCH  10  14
ATOM     12  O   UNL     1     108.033 128.687 135.723  0.00  0.00    +0.000 OA
ATOM     13  O   UNL     1     107.780 130.284 136.056  0.00  0.00    +0.000 OA
ATOM     14  C   UNL     1     110.087 129.397 135.927  0.00  0.00    +0.000 A 
ATOM     15  C   UNL     1     109.445 128.894 135.803  0.00  0.00    +0.000 A 
ATOM     16  C   UNL     1     109.961 130.195 136.093  0.00  0.00    +0.000 A 
ATOM     17  C   UNL     1     108.676 129.190 135.846  0.00  0.00    +0.000 A 
ATOM     18  C   UNL     1     109.192 130.490 136.136  0.00  0.00    +0.000 A 
ATOM     19  C   UNL     1     108.549 129.988 136.013  0.00  0.00    +0.000 A 
ENDBRANCH  10  14
BRANCH   3  20
ATOM     20  O   UNL     1     113.216 126.836 137.510  0.00  0.00    +0.000 OA
BRANCH  20  29
ATOM     21  O   UNL     1     112.584 125.677 136.964  0.00  0.00    +0.000 OA
ATOM     22  O   UNL     1     114.590 124.331 137.503  0.00  0.00    +0.000 OA
ATOM     23  O   UNL     1     113.290 123.620 136.777  0.00  0.00    +0.000 OA
ATOM     24  O   UNL     1     114.553 125.939 137.869  0.00  0.00    +0.000 OA
ATOM     25  C   UNL     1     113.921 124.779 137.323  0.00  0.00    +0.000 C 
ATOM     26  C   UNL     1     113.271 124.425 136.960  0.00  0.00    +0.000 C 
ATOM     27  C   UNL     1     113.903 125.584 137.507  0.00  0.00    +0.000 C 
ATOM     28  C   UNL     1     112.603 124.873 136.781  0.00  0.00    +0.000 C 
ATOM     29  C   UNL     1     113.234 126.033 137.327  0.00  0.00    +0.000 C 
BRANCH  28  31
ATOM     30  O   UNL     1     111.197 124.619 136.734  0.00  0.00    +0.000 OA
ATOM     31  C   UNL     1     111.953 124.518 136.418  0.00  0.00    +0.000 C 
ENDBRANCH  28  31
ENDBRANCH  20  29
ENDBRANCH   3  20
TORSDOF 4
ENDMDL
MODEL 5
REMARK VINA RESULT:      -9.2     12.298     14.331
REMARK  Name = 14656728
REMARK  4 active torsions:
REMARK  status: ('A' for Active; 'I' for Inactive)
REMARK    1  A    between atoms: O_2  and  C_15
REMARK    2  A    between atoms: O_2  and  C_17
REMARK    3  A    between atoms: C_14  and  C_16
REMARK    4  A    between atoms: C_24  and  C_26
REMARK                            x       y       z     vdW  Elec       q    Type
REMARK                         _______ _______ _______ _____ _____    ______ ____
ROOT
ATOM      1  O   UNL     1     111.974 126.763 136.063  0.00  0.00    +0.000 OA
ATOM      2  O   UNL     1     109.994 127.079 134.612  0.00  0.00    +0.000 OA
ATOM      3  C   UNL     1     112.359 128.834 135.315  0.00  0.00    +0.000 A 
ATOM      4  C   UNL     1     112.460 128.093 135.739  0.00  0.00    +0.000 A 
ATOM      5  C   UNL     1     111.672 128.943 134.812  0.00  0.00    +0.000 A 
ATOM      6  C   UNL     1     111.872 127.472 135.654  0.00  0.00    +0.000 A 
ATOM      7  C   UNL     1     111.212 127.578 135.170  0.00  0.00    +0.000 A 
ATOM      8  C   UNL     1     111.095 128.311 134.739  0.00  0.00    +0.000 A 
ATOM      9  C   UNL     1     110.655 126.974 135.096  0.00  0.00    +0.000 A 
ATOM     10  C   UNL     1     111.417 126.160 135.989  0.00  0.00    +0.000 A 
ATOM     11  C   UNL     1     110.757 126.265 135.505  0.00  0.00    +0.000 A 
ENDROOT
BRANCH  10  14
ATOM     12  O   UNL     1     111.179 124.635 138.395  0.00  0.00    +0.000 OA
ATOM     13  O   UNL     1     111.824 123.324 137.627  0.00  0.00    +0.000 OA
ATOM     14  C   UNL     1     111.519 125.451 136.399  0.00  0.00    +0.000 A 
ATOM     15  C   UNL     1     111.297 125.398 137.192  0.00  0.00    +0.000 A 
ATOM     16  C   UNL     1     111.842 124.795 136.015  0.00  0.00    +0.000 A 
ATOM     17  C   UNL     1     111.399 124.689 137.602  0.00  0.00    +0.000 A 
ATOM     18  C   UNL     1     111.943 124.087 136.425  0.00  0.00    +0.000 A 
ATOM     19  C   UNL     1     111.722 124.033 137.218  0.00  0.00    +0.000 A 
ENDBRANCH  10  14
BRANCH   3  20
ATOM     20  O   UNL     1     112.919 129.435 135.391  0.00  0.00    +0.000 OA
BRANCH  20  29
ATOM     21  O   UNL     1     112.248 130.225 136.376  0.00  0.00    +0.000 OA
ATOM     22  O   UNL     1     114.400 130.598 137.541  0.00  0.00    +0.000 OA
ATOM     23  O   UNL     1     113.013 131.263 138.136  0.00  0.00    +0.000 OA
ATOM     24  O   UNL     1     114.353 129.684 136.168  0.00  0.00    +0.000 OA
ATOM     25  C   UNL     1     113.683 130.474 137.152  0.00  0.00    +0.000 C 
ATOM     26  C   UNL     1     112.989 130.806 137.450  0.00  0.00    +0.000 C 
ATOM     27  C   UNL     1     113.659 130.016 136.465  0.00  0.00    +0.000 C 
ATOM     28  C   UNL     1     112.272 130.681 137.062  0.00  0.00    +0.000 C 
ATOM     29  C   UNL     1     112.942 129.892 136.077  0.00  0.00    +0.000 C 
BRANCH  28  31
ATOM     30  O   UNL     1     111.121 131.511 136.886  0.00  0.00    +0.000 OA
ATOM     31  C   UNL     1     111.579 131.013 137.360  0.00  0.00    +0.000 C 
ENDBRANCH  28  31
ENDBRANCH  20  29
ENDBRANCH   3  20
TORSDOF 4
ENDMDL
MODEL 6
REMARK VINA RESULT:      -9.2     12.333     14.904
REMARK  Name = 14656728
REMARK  4 active torsions:
REMARK  status: ('A' for Active; 'I' for Inactive)
REMARK    1  A    between atoms: O_2  and  C_15
REMARK    2  A    between atoms: O_2  and  C_17
REMARK    3  A    between atoms: C_14  and  C_16
REMARK    4  A    between atoms: C_24  and  C_26
REMARK                            x       y       z     vdW  Elec       q    Type
REMARK                         _______ _______ _______ _____ _____    ______ ____
ROOT
ATOM      1  O   UNL     1     112.672 128.320 135.534  0.00  0.00    +0.000 OA
ATOM      2  O   UNL     1     110.761 129.597 134.615  0.00  0.00    +0.000 OA
ATOM      3  C   UNL     1     111.094 126.737 135.552  0.00  0.00    +0.000 A 
ATOM      4  C   UNL     1     111.854 127.126 135.653  0.00  0.00    +0.000 A 
ATOM      5  C   UNL     1     110.431 127.181 135.233  0.00  0.00    +0.000 A 
ATOM      6  C   UNL     1     111.940 127.952 135.434  0.00  0.00    +0.000 A 
ATOM      7  C   UNL     1     111.303 128.378 135.128  0.00  0.00    +0.000 A 
ATOM      8  C   UNL     1     110.536 128.006 135.020  0.00  0.00    +0.000 A 
ATOM      9  C   UNL     1     111.398 129.171 134.921  0.00  0.00    +0.000 A 
ATOM     10  C   UNL     1     112.767 129.113 135.327  0.00  0.00    +0.000 A 
ATOM     11  C   UNL     1     112.130 129.538 135.020  0.00  0.00    +0.000 A 
ENDROOT
BRANCH  10  14
ATOM     12  O   UNL     1     114.592 130.593 136.954  0.00  0.00    +0.000 OA
ATOM     13  O   UNL     1     115.694 130.584 135.725  0.00  0.00    +0.000 OA
ATOM     14  C   UNL     1     113.499 129.481 135.426  0.00  0.00    +0.000 A 
ATOM     15  C   UNL     1     113.679 129.853 136.141  0.00  0.00    +0.000 A 
ATOM     16  C   UNL     1     114.049 129.477 134.812  0.00  0.00    +0.000 A 
ATOM     17  C   UNL     1     114.411 130.221 136.240  0.00  0.00    +0.000 A 
ATOM     18  C   UNL     1     114.780 129.845 134.912  0.00  0.00    +0.000 A 
ATOM     19  C   UNL     1     114.962 130.217 135.626  0.00  0.00    +0.000 A 
ENDBRANCH  10  14
BRANCH   3  20
ATOM     20  O   UNL     1     111.002 125.944 135.760  0.00  0.00    +0.000 OA
BRANCH  20  29
ATOM     21  O   UNL     1     110.460 126.170 137.063  0.00  0.00    +0.000 OA
ATOM     22  O   UNL     1     111.707 124.211 137.920  0.00  0.00    +0.000 OA
ATOM     23  O   UNL     1     110.750 125.090 138.937  0.00  0.00    +0.000 OA
ATOM     24  O   UNL     1     111.833 124.639 136.332  0.00  0.00    +0.000 OA
ATOM     25  C   UNL     1     111.292 124.864 137.635  0.00  0.00    +0.000 C 
ATOM     26  C   UNL     1     110.813 125.304 138.143  0.00  0.00    +0.000 C 
ATOM     27  C   UNL     1     111.355 125.078 136.840  0.00  0.00    +0.000 C 
ATOM     28  C   UNL     1     110.397 125.956 137.857  0.00  0.00    +0.000 C 
ATOM     29  C   UNL     1     110.939 125.731 136.554  0.00  0.00    +0.000 C 
BRANCH  28  31
ATOM     30  O   UNL     1     109.146 126.584 138.145  0.00  0.00    +0.000 OA
ATOM     31  C   UNL     1     109.919 126.395 138.365  0.00  0.00    +0.000 C 
ENDBRANCH  28  31
ENDBRANCH  20  29
ENDBRANCH   3  20
TORSDOF 4
ENDMDL
MODEL 7
REMARK VINA RESULT:      -9.2      7.221      8.271
REMARK  Name = 14656728
REMARK  4 active torsions:
REMARK  status: ('A' for Active; 'I' for Inactive)
REMARK    1  A    between atoms: O_2  and  C_15
REMARK    2  A    between atoms: O_2  and  C_17
REMARK    3  A    between atoms: C_14  and  C_16
REMARK    4  A    between atoms: C_24  and  C_26
REMARK                            x       y       z     vdW  Elec       q    Type
REMARK                         _______ _______ _______ _____ _____    ______ ____
ROOT
ATOM      1  O   UNL     1     103.173 130.248 141.984  0.00  0.00    +0.000 OA
ATOM      2  O   UNL     1     102.764 128.976 139.901  0.00  0.00    +0.000 OA
ATOM      3  C   UNL     1     104.542 128.511 142.307  0.00  0.00    +0.000 A 
ATOM      4  C   UNL     1     104.124 129.251 142.441  0.00  0.00    +0.000 A 
ATOM      5  C   UNL     1     104.400 128.070 141.583  0.00  0.00    +0.000 A 
ATOM      6  C   UNL     1     103.571 129.538 141.850  0.00  0.00    +0.000 A 
ATOM      7  C   UNL     1     103.435 129.114 141.156  0.00  0.00    +0.000 A 
ATOM      8  C   UNL     1     103.842 128.373 141.004  0.00  0.00    +0.000 A 
ATOM      9  C   UNL     1     102.901 129.400 140.596  0.00  0.00    +0.000 A 
ATOM     10  C   UNL     1     102.639 130.534 141.424  0.00  0.00    +0.000 A 
ATOM     11  C   UNL     1     102.503 130.110 140.730  0.00  0.00    +0.000 A 
ENDROOT
BRANCH  10  14
ATOM     12  O   UNL     1     102.563 133.389 141.305  0.00  0.00    +0.000 OA
ATOM     13  O   UNL     1     101.048 133.375 141.960  0.00  0.00    +0.000 OA
ATOM     14  C   UNL     1     102.241 131.244 141.558  0.00  0.00    +0.000 A 
ATOM     15  C   UNL     1     102.601 131.961 141.364  0.00  0.00    +0.000 A 
ATOM     16  C   UNL     1     101.484 131.238 141.886  0.00  0.00    +0.000 A 
ATOM     17  C   UNL     1     102.203 132.672 141.498  0.00  0.00    +0.000 A 
ATOM     18  C   UNL     1     101.087 131.948 142.019  0.00  0.00    +0.000 A 
ATOM     19  C   UNL     1     101.446 132.665 141.826  0.00  0.00    +0.000 A 
ENDBRANCH  10  14
BRANCH   3  20
ATOM     20  O   UNL     1     105.075 128.228 142.869  0.00  0.00    +0.000 OA
BRANCH  20  29
ATOM     21  O   UNL     1     106.241 128.841 142.315  0.00  0.00    +0.000 OA
ATOM     22  O   UNL     1     107.583 126.858 142.944  0.00  0.00    +0.000 OA
ATOM     23  O   UNL     1     108.301 128.132 142.181  0.00  0.00    +0.000 OA
ATOM     24  O   UNL     1     105.970 126.906 143.288  0.00  0.00    +0.000 OA
ATOM     25  C   UNL     1     107.136 127.519 142.734  0.00  0.00    +0.000 C 
ATOM     26  C   UNL     1     107.494 128.157 142.353  0.00  0.00    +0.000 C 
ATOM     27  C   UNL     1     106.328 127.543 142.906  0.00  0.00    +0.000 C 
ATOM     28  C   UNL     1     107.047 128.817 142.143  0.00  0.00    +0.000 C 
ATOM     29  C   UNL     1     105.881 128.204 142.697  0.00  0.00    +0.000 C 
BRANCH  28  31
ATOM     30  O   UNL     1     107.192 129.647 140.989  0.00  0.00    +0.000 OA
ATOM     31  C   UNL     1     107.406 129.454 141.762  0.00  0.00    +0.000 C 
ENDBRANCH  28  31
ENDBRANCH  20  29
ENDBRANCH   3  20
TORSDOF 4
ENDMDL
MODEL 8
REMARK VINA RESULT:      -9.1     12.355     14.109
REMARK  Name = 14656728
REMARK  4 active torsions:
REMARK  status: ('A' for Active; 'I' for Inactive)
REMARK    1  A    between atoms: O_2  and  C_15
REMARK    2  A    between atoms: O_2  and  C_17
REMARK    3  A    between atoms: C_14  and  C_16
REMARK    4  A    between atoms: C_24  and  C_26
REMARK                            x       y       z     vdW  Elec       q    Type
REMARK                         _______ _______ _______ _____ _____    ______ ____
ROOT
ATOM      1  O   UNL     1     111.530 127.022 136.171  0.00  0.00    +0.000 OA
ATOM      2  O   UNL     1     113.813 127.977 136.202  0.00  0.00    +0.000 OA
ATOM      3  C   UNL     1     111.108 129.079 135.405  0.00  0.00    +0.000 A 
ATOM      4  C   UNL     1     110.984 128.268 135.662  0.00  0.00    +0.000 A 
ATOM      5  C   UNL     1     111.901 129.410 135.416  0.00  0.00    +0.000 A 
ATOM      6  C   UNL     1     111.655 127.800 135.926  0.00  0.00    +0.000 A 
ATOM      7  C   UNL     1     112.415 128.118 135.936  0.00  0.00    +0.000 A 
ATOM      8  C   UNL     1     112.559 128.927 135.683  0.00  0.00    +0.000 A 
ATOM      9  C   UNL     1     113.051 127.659 136.191  0.00  0.00    +0.000 A 
ATOM     10  C   UNL     1     112.166 126.563 136.426  0.00  0.00    +0.000 A 
ATOM     11  C   UNL     1     112.926 126.881 136.437  0.00  0.00    +0.000 A 
ENDROOT
BRANCH  10  14
ATOM     12  O   UNL     1     111.259 124.705 138.401  0.00  0.00    +0.000 OA
ATOM     13  O   UNL     1     111.666 123.452 137.407  0.00  0.00    +0.000 OA
ATOM     14  C   UNL     1     112.041 125.785 136.671  0.00  0.00    +0.000 A 
ATOM     15  C   UNL     1     111.712 125.634 137.414  0.00  0.00    +0.000 A 
ATOM     16  C   UNL     1     112.244 125.158 136.175  0.00  0.00    +0.000 A 
ATOM     17  C   UNL     1     111.587 124.857 137.659  0.00  0.00    +0.000 A 
ATOM     18  C   UNL     1     112.119 124.381 136.421  0.00  0.00    +0.000 A 
ATOM     19  C   UNL     1     111.791 124.230 137.162  0.00  0.00    +0.000 A 
ENDBRANCH  10  14
BRANCH   3  20
ATOM     20  O   UNL     1     110.470 129.536 135.150  0.00  0.00    +0.000 OA
BRANCH  20  29
ATOM     21  O   UNL     1     110.232 130.293 136.339  0.00  0.00    +0.000 OA
ATOM     22  O   UNL     1     107.797 129.938 136.077  0.00  0.00    +0.000 OA
ATOM     23  O   UNL     1     108.371 130.813 137.352  0.00  0.00    +0.000 OA
ATOM     24  O   UNL     1     108.847 129.299 134.976  0.00  0.00    +0.000 OA
ATOM     25  C   UNL     1     108.609 130.056 136.164  0.00  0.00    +0.000 C 
ATOM     26  C   UNL     1     108.896 130.494 136.802  0.00  0.00    +0.000 C 
ATOM     27  C   UNL     1     109.134 129.737 135.613  0.00  0.00    +0.000 C 
ATOM     28  C   UNL     1     109.708 130.612 136.889  0.00  0.00    +0.000 C 
ATOM     29  C   UNL     1     109.946 129.855 135.700  0.00  0.00    +0.000 C 
BRANCH  28  31
ATOM     30  O   UNL     1     110.514 131.678 137.396  0.00  0.00    +0.000 OA
ATOM     31  C   UNL     1     109.995 131.049 137.526  0.00  0.00    +0.000 C 
ENDBRANCH  28  31
ENDBRANCH  20  29
ENDBRANCH   3  20
TORSDOF 4
ENDMDL
MODEL 9
REMARK VINA RESULT:      -9.1     12.971     14.292
REMARK  Name = 14656728
REMARK  4 active torsions:
REMARK  status: ('A' for Active; 'I' for Inactive)
REMARK    1  A    between atoms: O_2  and  C_15
REMARK    2  A    between atoms: O_2  and  C_17
REMARK    3  A    between atoms: C_14  and  C_16
REMARK    4  A    between atoms: C_24  and  C_26
REMARK                            x       y       z     vdW  Elec       q    Type
REMARK                         _______ _______ _______ _____ _____    ______ ____
ROOT
ATOM      1  O   UNL     1     112.580 127.259 137.090  0.00  0.00    +0.000 OA
ATOM      2  O   UNL     1     113.895 128.659 135.528  0.00  0.00    +0.000 OA
ATOM      3  C   UNL     1     111.358 129.131 137.113  0.00  0.00    +0.000 A 
ATOM      4  C   UNL     1     111.620 128.330 137.288  0.00  0.00    +0.000 A 
ATOM      5  C   UNL     1     111.815 129.616 136.571  0.00  0.00    +0.000 A 
ATOM      6  C   UNL     1     112.334 128.027 136.918  0.00  0.00    +0.000 A 
ATOM      7  C   UNL     1     112.772 128.494 136.398  0.00  0.00    +0.000 A 
ATOM      8  C   UNL     1     112.526 129.296 136.211  0.00  0.00    +0.000 A 
ATOM      9  C   UNL     1     113.456 128.193 136.049  0.00  0.00    +0.000 A 
ATOM     10  C   UNL     1     113.264 126.957 136.741  0.00  0.00    +0.000 A 
ATOM     11  C   UNL     1     113.702 127.424 136.221  0.00  0.00    +0.000 A 
ENDROOT
BRANCH  10  14
ATOM     12  O   UNL     1     113.063 124.139 136.306  0.00  0.00    +0.000 OA
ATOM     13  O   UNL     1     114.248 123.883 137.426  0.00  0.00    +0.000 OA
ATOM     14  C   UNL     1     113.510 126.188 136.912  0.00  0.00    +0.000 A 
ATOM     15  C   UNL     1     113.163 125.548 136.523  0.00  0.00    +0.000 A 
ATOM     16  C   UNL     1     114.102 126.060 137.472  0.00  0.00    +0.000 A 
ATOM     17  C   UNL     1     113.409 124.780 136.695  0.00  0.00    +0.000 A 
ATOM     18  C   UNL     1     114.348 125.292 137.643  0.00  0.00    +0.000 A 
ATOM     19  C   UNL     1     114.002 124.651 137.255  0.00  0.00    +0.000 A 
ENDBRANCH  10  14
BRANCH   3  20
ATOM     20  O   UNL     1     110.674 129.430 137.464  0.00  0.00    +0.000 OA
BRANCH  20  29
ATOM     21  O   UNL     1     109.698 128.838 136.604  0.00  0.00    +0.000 OA
ATOM     22  O   UNL     1     108.452 130.976 136.547  0.00  0.00    +0.000 OA
ATOM     23  O   UNL     1     107.892 129.673 135.706  0.00  0.00    +0.000 OA
ATOM     24  O   UNL     1     109.844 130.855 137.426  0.00  0.00    +0.000 OA
ATOM     25  C   UNL     1     108.868 130.264 136.566  0.00  0.00    +0.000 C 
ATOM     26  C   UNL     1     108.588 129.611 136.146  0.00  0.00    +0.000 C 
ATOM     27  C   UNL     1     109.564 130.203 137.006  0.00  0.00    +0.000 C 
ATOM     28  C   UNL     1     109.003 128.899 136.164  0.00  0.00    +0.000 C 
ATOM     29  C   UNL     1     109.979 129.490 137.024  0.00  0.00    +0.000 C 
BRANCH  28  31
ATOM     30  O   UNL     1     108.527 127.552 136.142  0.00  0.00    +0.000 OA
ATOM     31  C   UNL     1     108.723 128.247 135.744  0.00  0.00    +0.000 C 
ENDBRANCH  28  31
ENDBRANCH  20  29
ENDBRANCH   3  20
TORSDOF 4
ENDMDL
MODEL 10
REMARK VINA RESULT:      -9.0      3.373      5.823
REMARK  Name = 14656728
REMARK  4 active torsions:
REMARK  status: ('A' for Active; 'I' for Inactive)
REMARK    1  A    between atoms: O_2  and  C_15
REMARK    2  A    between atoms: O_2  and  C_17
REMARK    3  A    between atoms: C_14  and  C_16
REMARK    4  A    between atoms: C_24  and  C_26
REMARK                            x       y       z     vdW  Elec       q    Type
REMARK                         _______ _______ _______ _____ _____    ______ ____
ROOT
ATOM      1  O   UNL     1     106.592 125.758 146.200  0.00  0.00    +0.000 OA
ATOM      2  O   UNL     1     106.562 128.210 146.540  0.00  0.00    +0.000 OA
ATOM      3  C   UNL     1     105.769 126.420 144.230  0.00  0.00    +0.000 A 
ATOM      4  C   UNL     1     106.053 125.908 144.860  0.00  0.00    +0.000 A 
ATOM      5  C   UNL     1     105.759 127.271 144.348  0.00  0.00    +0.000 A 
ATOM      6  C   UNL     1     106.321 126.254 145.599  0.00  0.00    +0.000 A 
ATOM      7  C   UNL     1     106.311 127.071 145.712  0.00  0.00    +0.000 A 
ATOM      8  C   UNL     1     106.032 127.599 145.094  0.00  0.00    +0.000 A 
ATOM      9  C   UNL     1     106.571 127.392 146.426  0.00  0.00    +0.000 A 
ATOM     10  C   UNL     1     106.852 126.079 146.914  0.00  0.00    +0.000 A 
ATOM     11  C   UNL     1     106.842 126.896 147.027  0.00  0.00    +0.000 A 
ENDROOT
BRANCH  10  14
ATOM     12  O   UNL     1     106.324 124.433 149.190  0.00  0.00    +0.000 OA
ATOM     13  O   UNL     1     107.934 124.093 149.317  0.00  0.00    +0.000 OA
ATOM     14  C   UNL     1     107.123 125.582 147.515  0.00  0.00    +0.000 A 
ATOM     15  C   UNL     1     106.588 125.256 148.052  0.00  0.00    +0.000 A 
ATOM     16  C   UNL     1     107.928 125.413 147.579  0.00  0.00    +0.000 A 
ATOM     17  C   UNL     1     106.858 124.759 148.653  0.00  0.00    +0.000 A 
ATOM     18  C   UNL     1     108.197 124.916 148.179  0.00  0.00    +0.000 A 
ATOM     19  C   UNL     1     107.663 124.590 148.717  0.00  0.00    +0.000 A 
ENDBRANCH  10  14
BRANCH   3  20
ATOM     20  O   UNL     1     105.509 126.097 143.517  0.00  0.00    +0.000 OA
BRANCH  20  29
ATOM     21  O   UNL     1     106.657 126.408 142.724  0.00  0.00    +0.000 OA
ATOM     22  O   UNL     1     106.496 124.196 141.624  0.00  0.00    +0.000 OA
ATOM     23  O   UNL     1     107.696 125.244 141.198  0.00  0.00    +0.000 OA
ATOM     24  O   UNL     1     105.402 124.623 142.783  0.00  0.00    +0.000 OA
ATOM     25  C   UNL     1     106.549 124.933 141.990  0.00  0.00    +0.000 C 
ATOM     26  C   UNL     1     107.150 125.458 141.778  0.00  0.00    +0.000 C 
ATOM     27  C   UNL     1     106.002 125.147 142.571  0.00  0.00    +0.000 C 
ATOM     28  C   UNL     1     107.203 126.195 142.144  0.00  0.00    +0.000 C 
ATOM     29  C   UNL     1     106.056 125.884 142.937  0.00  0.00    +0.000 C 
BRANCH  28  31
ATOM     30  O   UNL     1     108.397 126.909 142.472  0.00  0.00    +0.000 OA
ATOM     31  C   UNL     1     107.804 126.718 141.931  0.00  0.00    +0.000 C 
ENDBRANCH  28  31
ENDBRANCH  20  29
ENDBRANCH   3  20
TORSDOF 4
ENDMDL
