MODEL 1
REMARK VINA RESULT:      -9.4      0.000      0.000
REMARK  Name = 44258391
REMARK  10 active torsions:
REMARK  status: ('A' for Active; 'I' for Inactive)
REMARK    1  A    between atoms: O_1  and  C_17
REMARK    2  A    between atoms: O_1  and  C_22
REMARK    3  A    between atoms: O_9  and  C_28
REMARK    4  A    between atoms: O_9  and  C_36
REMARK    5  A    between atoms: O_10  and  C_30
REMARK    6  A    between atoms: O_15  and  C_44
REMARK    7  A    between atoms: O_16  and  C_46
REMARK    8  A    between atoms: C_19  and  C_27
REMARK    9  A    between atoms: C_21  and  C_28
REMARK   10  A    between atoms: C_38  and  C_41
REMARK                            x       y       z     vdW  Elec       q    Type
REMARK                         _______ _______ _______ _____ _____    ______ ____
ROOT
ATOM      1  O   UNL     1     112.999 127.515 138.925  0.00  0.00    +0.000 OA
ATOM      2  O   UNL     1     113.724 128.258 141.172  0.00  0.00    +0.000 OA
ATOM      3  O   UNL     1     114.270 126.827 140.559  0.00  0.00    +0.000 OA
ATOM      4  C   UNL     1     112.966 128.479 139.980  0.00  0.00    +0.000 C 
ATOM      5  C   UNL     1     113.482 128.010 140.423  0.00  0.00    +0.000 C 
ATOM      6  C   UNL     1     112.725 128.231 139.231  0.00  0.00    +0.000 C 
ATOM      7  C   UNL     1     113.756 127.294 140.117  0.00  0.00    +0.000 C 
ATOM      8  C   UNL     1     113.513 127.048 139.367  0.00  0.00    +0.000 C 
ENDROOT
BRANCH   6  12
ATOM      9  O   UNL     1     113.315 129.205 138.038  0.00  0.00    +0.000 OA
ATOM     10  O   UNL     1     110.633 130.119 137.450  0.00  0.00    +0.000 OA
ATOM     11  O   UNL     1     113.121 130.171 136.983  0.00  0.00    +0.000 OA
ATOM     12  C   UNL     1     112.209 128.700 138.789  0.00  0.00    +0.000 A 
ATOM     13  C   UNL     1     112.505 129.187 138.192  0.00  0.00    +0.000 A 
ATOM     14  C   UNL     1     111.399 128.681 138.943  0.00  0.00    +0.000 A 
ATOM     15  C   UNL     1     111.989 129.655 137.749  0.00  0.00    +0.000 A 
ATOM     16  C   UNL     1     110.885 129.149 138.500  0.00  0.00    +0.000 A 
ATOM     17  C   UNL     1     111.179 129.636 137.903  0.00  0.00    +0.000 A 
ATOM     18  C   UNL     1     112.310 130.158 137.130  0.00  0.00    +0.000 A 
ATOM     19  C   UNL     1     111.777 130.649 136.666  0.00  0.00    +0.000 A 
ATOM     20  C   UNL     1     110.934 130.629 136.826  0.00  0.00    +0.000 A 
BRANCH  20  21
ATOM     21  C   UNL     1     110.416 131.097 136.385  0.00  0.00    +0.000 A 
ATOM     22  C   UNL     1     110.357 131.905 136.540  0.00  0.00    +0.000 A 
ATOM     23  C   UNL     1     109.958 130.756 135.790  0.00  0.00    +0.000 A 
ATOM     24  C   UNL     1     109.839 132.372 136.098  0.00  0.00    +0.000 A 
ATOM     25  C   UNL     1     109.442 131.222 135.349  0.00  0.00    +0.000 A 
ATOM     26  C   UNL     1     109.382 132.030 135.503  0.00  0.00    +0.000 A 
BRANCH  24  27
ATOM     27  O   UNL     1     109.780 133.180 136.252  0.00  0.00    +0.000 OA
ATOM     28  C   UNL     1     110.419 133.585 136.579  0.00  0.00    +0.000 C 
ENDBRANCH  24  27
BRANCH  26  29
ATOM     29  O   UNL     1     108.864 132.497 135.062  0.00  0.00    +0.000 OA
ATOM     30  C   UNL     1     108.268 132.143 134.614  0.00  0.00    +0.000 C 
ENDBRANCH  26  29
ENDBRANCH  20  21
BRANCH  14  31
ATOM     31  O   UNL     1     111.105 128.193 139.540  0.00  0.00    +0.000 OA
ATOM     32  C   UNL     1     110.296 128.034 139.580  0.00  0.00    +0.000 C 
ENDBRANCH  14  31
ENDBRANCH   6  12
BRANCH   4  33
ATOM     33  O   UNL     1     112.693 129.194 140.287  0.00  0.00    +0.000 OA
BRANCH  33  38
ATOM     34  O   UNL     1     113.980 129.815 140.252  0.00  0.00    +0.000 OA
ATOM     35  O   UNL     1     112.261 130.160 141.553  0.00  0.00    +0.000 OA
ATOM     36  O   UNL     1     113.332 131.263 142.152  0.00  0.00    +0.000 OA
ATOM     37  O   UNL     1     114.834 131.402 141.484  0.00  0.00    +0.000 OA
ATOM     38  C   UNL     1     113.229 129.746 140.586  0.00  0.00    +0.000 C 
ATOM     39  C   UNL     1     113.013 130.229 141.219  0.00  0.00    +0.000 C 
ATOM     40  C   UNL     1     113.548 130.781 141.518  0.00  0.00    +0.000 C 
ATOM     41  C   UNL     1     114.299 130.849 141.184  0.00  0.00    +0.000 C 
ATOM     42  C   UNL     1     114.515 130.367 140.551  0.00  0.00    +0.000 C 
ATOM     43  C   UNL     1     115.266 130.436 140.217  0.00  0.00    +0.000 C 
ENDBRANCH  33  38
ENDBRANCH   4  33
BRANCH   8  44
ATOM     44  C   UNL     1     113.787 126.332 139.061  0.00  0.00    +0.000 C 
BRANCH  44  45
ATOM     45  O   UNL     1     113.758 126.193 138.248  0.00  0.00    +0.000 OA
BRANCH  45  47
ATOM     46  O   UNL     1     113.305 124.864 137.985  0.00  0.00    +0.000 OA
ATOM     47  C   UNL     1     113.899 125.436 137.953  0.00  0.00    +0.000 C 
ATOM     48  C   UNL     1     114.634 125.250 137.628  0.00  0.00    +0.000 C 
ENDBRANCH  45  47
ENDBRANCH  44  45
ENDBRANCH   8  44
TORSDOF 10
ENDMDL
MODEL 2
REMARK VINA RESULT:      -9.3      3.622      7.170
REMARK  Name = 44258391
REMARK  10 active torsions:
REMARK  status: ('A' for Active; 'I' for Inactive)
REMARK    1  A    between atoms: O_1  and  C_17
REMARK    2  A    between atoms: O_1  and  C_22
REMARK    3  A    between atoms: O_9  and  C_28
REMARK    4  A    between atoms: O_9  and  C_36
REMARK    5  A    between atoms: O_10  and  C_30
REMARK    6  A    between atoms: O_15  and  C_44
REMARK    7  A    between atoms: O_16  and  C_46
REMARK    8  A    between atoms: C_19  and  C_27
REMARK    9  A    between atoms: C_21  and  C_28
REMARK   10  A    between atoms: C_38  and  C_41
REMARK                            x       y       z     vdW  Elec       q    Type
REMARK                         _______ _______ _______ _____ _____    ______ ____
ROOT
ATOM      1  O   UNL     1     110.444 130.760 141.461  0.00  0.00    +0.000 OA
ATOM      2  O   UNL     1     112.373 130.505 139.932  0.00  0.00    +0.000 OA
ATOM      3  O   UNL     1     110.835 130.360 139.352  0.00  0.00    +0.000 OA
ATOM      4  C   UNL     1     111.857 130.748 141.242  0.00  0.00    +0.000 C 
ATOM      5  C   UNL     1     111.730 130.590 140.441  0.00  0.00    +0.000 C 
ATOM      6  C   UNL     1     111.213 130.833 141.751  0.00  0.00    +0.000 C 
ATOM      7  C   UNL     1     110.961 130.518 140.151  0.00  0.00    +0.000 C 
ATOM      8  C   UNL     1     110.319 130.603 140.662  0.00  0.00    +0.000 C 
ENDROOT
BRANCH   6  12
ATOM      9  O   UNL     1     111.608 132.359 142.239  0.00  0.00    +0.000 OA
ATOM     10  O   UNL     1     111.722 131.458 144.987  0.00  0.00    +0.000 OA
ATOM     11  O   UNL     1     111.937 133.310 143.274  0.00  0.00    +0.000 OA
ATOM     12  C   UNL     1     111.340 130.991 142.552  0.00  0.00    +0.000 A 
ATOM     13  C   UNL     1     111.537 131.754 142.795  0.00  0.00    +0.000 A 
ATOM     14  C   UNL     1     111.269 130.385 143.108  0.00  0.00    +0.000 A 
ATOM     15  C   UNL     1     111.663 131.912 143.595  0.00  0.00    +0.000 A 
ATOM     16  C   UNL     1     111.395 130.543 143.907  0.00  0.00    +0.000 A 
ATOM     17  C   UNL     1     111.593 131.306 144.152  0.00  0.00    +0.000 A 
ATOM     18  C   UNL     1     111.868 132.711 143.836  0.00  0.00    +0.000 A 
ATOM     19  C   UNL     1     112.001 132.881 144.669  0.00  0.00    +0.000 A 
ATOM     20  C   UNL     1     111.927 132.251 145.248  0.00  0.00    +0.000 A 
BRANCH  20  21
ATOM     21  C   UNL     1     112.053 132.406 146.048  0.00  0.00    +0.000 A 
ATOM     22  C   UNL     1     111.500 132.843 146.476  0.00  0.00    +0.000 A 
ATOM     23  C   UNL     1     112.733 132.123 146.421  0.00  0.00    +0.000 A 
ATOM     24  C   UNL     1     111.626 132.998 147.276  0.00  0.00    +0.000 A 
ATOM     25  C   UNL     1     112.859 132.278 147.221  0.00  0.00    +0.000 A 
ATOM     26  C   UNL     1     112.306 132.715 147.649  0.00  0.00    +0.000 A 
BRANCH  24  27
ATOM     27  O   UNL     1     111.073 133.436 147.704  0.00  0.00    +0.000 OA
ATOM     28  C   UNL     1     110.281 133.436 147.474  0.00  0.00    +0.000 C 
ENDBRANCH  24  27
BRANCH  26  29
ATOM     29  O   UNL     1     112.432 132.870 148.449  0.00  0.00    +0.000 OA
ATOM     30  C   UNL     1     113.009 132.452 148.864  0.00  0.00    +0.000 C 
ENDBRANCH  26  29
ENDBRANCH  20  21
BRANCH  14  31
ATOM     31  O   UNL     1     111.072 129.622 142.863  0.00  0.00    +0.000 OA
ATOM     32  C   UNL     1     110.823 129.064 143.417  0.00  0.00    +0.000 C 
ENDBRANCH  14  31
ENDBRANCH   6  12
BRANCH   4  33
ATOM     33  O   UNL     1     112.626 130.821 141.532  0.00  0.00    +0.000 OA
BRANCH  33  38
ATOM     34  O   UNL     1     113.024 129.474 141.266  0.00  0.00    +0.000 OA
ATOM     35  O   UNL     1     114.144 131.345 141.156  0.00  0.00    +0.000 OA
ATOM     36  O   UNL     1     115.302 130.261 140.702  0.00  0.00    +0.000 OA
ATOM     37  O   UNL     1     114.942 128.652 140.624  0.00  0.00    +0.000 OA
ATOM     38  C   UNL     1     113.204 130.278 141.305  0.00  0.00    +0.000 C 
ATOM     39  C   UNL     1     113.964 130.540 141.117  0.00  0.00    +0.000 C 
ATOM     40  C   UNL     1     114.543 129.999 140.890  0.00  0.00    +0.000 C 
ATOM     41  C   UNL     1     114.362 129.195 140.851  0.00  0.00    +0.000 C 
ATOM     42  C   UNL     1     113.603 128.933 141.039  0.00  0.00    +0.000 C 
ATOM     43  C   UNL     1     113.423 128.128 141.000  0.00  0.00    +0.000 C 
ENDBRANCH  33  38
ENDBRANCH   4  33
BRANCH   8  44
ATOM     44  C   UNL     1     109.550 130.530 140.372  0.00  0.00    +0.000 C 
BRANCH  44  45
ATOM     45  O   UNL     1     108.914 130.830 140.807  0.00  0.00    +0.000 OA
BRANCH  45  47
ATOM     46  O   UNL     1     107.827 131.002 139.896  0.00  0.00    +0.000 OA
ATOM     47  C   UNL     1     108.141 130.659 140.578  0.00  0.00    +0.000 C 
ATOM     48  C   UNL     1     107.681 130.145 141.030  0.00  0.00    +0.000 C 
ENDBRANCH  45  47
ENDBRANCH  44  45
ENDBRANCH   8  44
TORSDOF 10
ENDMDL
MODEL 3
REMARK VINA RESULT:      -9.2      7.310     10.701
REMARK  Name = 44258391
REMARK  10 active torsions:
REMARK  status: ('A' for Active; 'I' for Inactive)
REMARK    1  A    between atoms: O_1  and  C_17
REMARK    2  A    between atoms: O_1  and  C_22
REMARK    3  A    between atoms: O_9  and  C_28
REMARK    4  A    between atoms: O_9  and  C_36
REMARK    5  A    between atoms: O_10  and  C_30
REMARK    6  A    between atoms: O_15  and  C_44
REMARK    7  A    between atoms: O_16  and  C_46
REMARK    8  A    between atoms: C_19  and  C_27
REMARK    9  A    between atoms: C_21  and  C_28
REMARK   10  A    between atoms: C_38  and  C_41
REMARK                            x       y       z     vdW  Elec       q    Type
REMARK                         _______ _______ _______ _____ _____    ______ ____
ROOT
ATOM      1  O   UNL     1     105.342 128.701 143.441  0.00  0.00    +0.000 OA
ATOM      2  O   UNL     1     106.755 128.307 141.448  0.00  0.00    +0.000 OA
ATOM      3  O   UNL     1     105.412 129.259 141.332  0.00  0.00    +0.000 OA
ATOM      4  C   UNL     1     106.485 128.094 142.834  0.00  0.00    +0.000 C 
ATOM      5  C   UNL     1     106.284 128.439 142.112  0.00  0.00    +0.000 C 
ATOM      6  C   UNL     1     106.014 128.225 143.499  0.00  0.00    +0.000 C 
ATOM      7  C   UNL     1     105.612 128.915 142.054  0.00  0.00    +0.000 C 
ATOM      8  C   UNL     1     105.142 129.045 142.719  0.00  0.00    +0.000 C 
ENDROOT
BRANCH   6  12
ATOM      9  O   UNL     1     105.278 126.828 143.979  0.00  0.00    +0.000 OA
ATOM     10  O   UNL     1     106.834 126.842 146.420  0.00  0.00    +0.000 OA
ATOM     11  O   UNL     1     105.091 125.763 144.934  0.00  0.00    +0.000 OA
ATOM     12  C   UNL     1     106.215 127.881 144.221  0.00  0.00    +0.000 A 
ATOM     13  C   UNL     1     105.847 127.182 144.461  0.00  0.00    +0.000 A 
ATOM     14  C   UNL     1     106.783 128.234 144.704  0.00  0.00    +0.000 A 
ATOM     15  C   UNL     1     106.048 126.837 145.184  0.00  0.00    +0.000 A 
ATOM     16  C   UNL     1     106.983 127.890 145.425  0.00  0.00    +0.000 A 
ATOM     17  C   UNL     1     106.616 127.191 145.666  0.00  0.00    +0.000 A 
ATOM     18  C   UNL     1     105.657 126.110 145.421  0.00  0.00    +0.000 A 
ATOM     19  C   UNL     1     105.863 125.746 146.173  0.00  0.00    +0.000 A 
ATOM     20  C   UNL     1     106.454 126.114 146.675  0.00  0.00    +0.000 A 
BRANCH  20  21
ATOM     21  C   UNL     1     106.657 125.772 147.398  0.00  0.00    +0.000 A 
ATOM     22  C   UNL     1     106.215 125.941 148.074  0.00  0.00    +0.000 A 
ATOM     23  C   UNL     1     107.302 125.259 147.445  0.00  0.00    +0.000 A 
ATOM     24  C   UNL     1     106.418 125.598 148.796  0.00  0.00    +0.000 A 
ATOM     25  C   UNL     1     107.505 124.917 148.167  0.00  0.00    +0.000 A 
ATOM     26  C   UNL     1     107.063 125.086 148.842  0.00  0.00    +0.000 A 
BRANCH  24  27
ATOM     27  O   UNL     1     105.976 125.768 149.472  0.00  0.00    +0.000 OA
ATOM     28  C   UNL     1     105.362 126.317 149.435  0.00  0.00    +0.000 C 
ENDBRANCH  24  27
BRANCH  26  29
ATOM     29  O   UNL     1     107.266 124.743 149.565  0.00  0.00    +0.000 OA
ATOM     30  C   UNL     1     107.910 124.230 149.612  0.00  0.00    +0.000 C 
ENDBRANCH  26  29
ENDBRANCH  20  21
BRANCH  14  31
ATOM     31  O   UNL     1     107.150 128.933 144.463  0.00  0.00    +0.000 OA
ATOM     32  C   UNL     1     107.592 129.373 145.003  0.00  0.00    +0.000 C 
ENDBRANCH  14  31
ENDBRANCH   6  12
BRANCH   4  33
ATOM     33  O   UNL     1     107.156 127.618 142.892  0.00  0.00    +0.000 OA
BRANCH  33  38
ATOM     34  O   UNL     1     106.664 126.556 142.073  0.00  0.00    +0.000 OA
ATOM     35  O   UNL     1     108.677 127.369 142.302  0.00  0.00    +0.000 OA
ATOM     36  O   UNL     1     108.945 126.182 141.187  0.00  0.00    +0.000 OA
ATOM     37  O   UNL     1     107.692 125.244 140.663  0.00  0.00    +0.000 OA
ATOM     38  C   UNL     1     107.290 127.024 142.335  0.00  0.00    +0.000 C 
ATOM     39  C   UNL     1     108.050 126.900 142.040  0.00  0.00    +0.000 C 
ATOM     40  C   UNL     1     108.185 126.307 141.482  0.00  0.00    +0.000 C 
ATOM     41  C   UNL     1     107.558 125.838 141.221  0.00  0.00    +0.000 C 
ATOM     42  C   UNL     1     106.798 125.963 141.516  0.00  0.00    +0.000 C 
ATOM     43  C   UNL     1     106.172 125.494 141.254  0.00  0.00    +0.000 C 
ENDBRANCH  33  38
ENDBRANCH   4  33
BRANCH   8  44
ATOM     44  C   UNL     1     104.470 129.521 142.661  0.00  0.00    +0.000 C 
BRANCH  44  45
ATOM     45  O   UNL     1     104.028 129.694 143.337  0.00  0.00    +0.000 OA
BRANCH  45  47
ATOM     46  O   UNL     1     102.837 130.207 142.735  0.00  0.00    +0.000 OA
ATOM     47  C   UNL     1     103.432 130.264 143.304  0.00  0.00    +0.000 C 
ATOM     48  C   UNL     1     103.430 130.890 143.841  0.00  0.00    +0.000 C 
ENDBRANCH  45  47
ENDBRANCH  44  45
ENDBRANCH   8  44
TORSDOF 10
ENDMDL
MODEL 4
REMARK VINA RESULT:      -9.2     10.267     12.367
REMARK  Name = 44258391
REMARK  10 active torsions:
REMARK  status: ('A' for Active; 'I' for Inactive)
REMARK    1  A    between atoms: O_1  and  C_17
REMARK    2  A    between atoms: O_1  and  C_22
REMARK    3  A    between atoms: O_9  and  C_28
REMARK    4  A    between atoms: O_9  and  C_36
REMARK    5  A    between atoms: O_10  and  C_30
REMARK    6  A    between atoms: O_15  and  C_44
REMARK    7  A    between atoms: O_16  and  C_46
REMARK    8  A    between atoms: C_19  and  C_27
REMARK    9  A    between atoms: C_21  and  C_28
REMARK   10  A    between atoms: C_38  and  C_41
REMARK                            x       y       z     vdW  Elec       q    Type
REMARK                         _______ _______ _______ _____ _____    ______ ____
ROOT
ATOM      1  O   UNL     1     103.979 125.491 146.770  0.00  0.00    +0.000 OA
ATOM      2  O   UNL     1     106.040 124.122 146.812  0.00  0.00    +0.000 OA
ATOM      3  O   UNL     1     104.576 123.403 146.563  0.00  0.00    +0.000 OA
ATOM      4  C   UNL     1     105.398 125.395 146.909  0.00  0.00    +0.000 C 
ATOM      5  C   UNL     1     105.353 124.578 146.798  0.00  0.00    +0.000 C 
ATOM      6  C   UNL     1     104.711 125.851 146.894  0.00  0.00    +0.000 C 
ATOM      7  C   UNL     1     104.621 124.219 146.673  0.00  0.00    +0.000 C 
ATOM      8  C   UNL     1     103.934 124.676 146.659  0.00  0.00    +0.000 C 
ENDROOT
BRANCH   6  12
ATOM      9  O   UNL     1     104.375 126.503 148.373  0.00  0.00    +0.000 OA
ATOM     10  O   UNL     1     104.896 129.152 147.329  0.00  0.00    +0.000 OA
ATOM     11  O   UNL     1     104.244 127.640 149.252  0.00  0.00    +0.000 OA
ATOM     12  C   UNL     1     104.756 126.668 147.005  0.00  0.00    +0.000 A 
ATOM     13  C   UNL     1     104.588 126.993 147.744  0.00  0.00    +0.000 A 
ATOM     14  C   UNL     1     104.968 127.159 146.377  0.00  0.00    +0.000 A 
ATOM     15  C   UNL     1     104.633 127.810 147.855  0.00  0.00    +0.000 A 
ATOM     16  C   UNL     1     105.013 127.974 146.488  0.00  0.00    +0.000 A 
ATOM     17  C   UNL     1     104.846 128.301 147.227  0.00  0.00    +0.000 A 
ATOM     18  C   UNL     1     104.456 128.137 148.630  0.00  0.00    +0.000 A 
ATOM     19  C   UNL     1     104.501 128.987 148.751  0.00  0.00    +0.000 A 
ATOM     20  C   UNL     1     104.722 129.498 148.097  0.00  0.00    +0.000 A 
BRANCH  20  21
ATOM     21  C   UNL     1     104.768 130.315 148.205  0.00  0.00    +0.000 A 
ATOM     22  C   UNL     1     104.157 130.801 147.939  0.00  0.00    +0.000 A 
ATOM     23  C   UNL     1     105.425 130.645 148.579  0.00  0.00    +0.000 A 
ATOM     24  C   UNL     1     104.204 131.618 148.047  0.00  0.00    +0.000 A 
ATOM     25  C   UNL     1     105.471 131.461 148.687  0.00  0.00    +0.000 A 
ATOM     26  C   UNL     1     104.861 131.947 148.422  0.00  0.00    +0.000 A 
BRANCH  24  27
ATOM     27  O   UNL     1     103.593 132.104 147.781  0.00  0.00    +0.000 OA
ATOM     28  C   UNL     1     102.859 131.778 147.593  0.00  0.00    +0.000 C 
ENDBRANCH  24  27
BRANCH  26  29
ATOM     29  O   UNL     1     104.907 132.764 148.530  0.00  0.00    +0.000 OA
ATOM     30  C   UNL     1     105.578 133.097 148.875  0.00  0.00    +0.000 C 
ENDBRANCH  26  29
ENDBRANCH  20  21
BRANCH  14  31
ATOM     31  O   UNL     1     105.136 126.832 145.638  0.00  0.00    +0.000 OA
ATOM     32  C   UNL     1     105.249 127.325 144.986  0.00  0.00    +0.000 C 
ENDBRANCH  14  31
ENDBRANCH   6  12
BRANCH   4  33
ATOM     33  O   UNL     1     106.130 125.755 147.034  0.00  0.00    +0.000 OA
BRANCH  33  38
ATOM     34  O   UNL     1     106.385 125.150 148.303  0.00  0.00    +0.000 OA
ATOM     35  O   UNL     1     107.738 125.680 146.675  0.00  0.00    +0.000 OA
ATOM     36  O   UNL     1     108.798 125.038 147.765  0.00  0.00    +0.000 OA
ATOM     37  O   UNL     1     108.248 124.471 149.214  0.00  0.00    +0.000 OA
ATOM     38  C   UNL     1     106.659 125.434 147.579  0.00  0.00    +0.000 C 
ATOM     39  C   UNL     1     107.463 125.397 147.400  0.00  0.00    +0.000 C 
ATOM     40  C   UNL     1     107.993 125.076 147.944  0.00  0.00    +0.000 C 
ATOM     41  C   UNL     1     107.718 124.792 148.668  0.00  0.00    +0.000 C 
ATOM     42  C   UNL     1     106.914 124.829 148.848  0.00  0.00    +0.000 C 
ATOM     43  C   UNL     1     106.640 124.545 149.572  0.00  0.00    +0.000 C 
ENDBRANCH  33  38
ENDBRANCH   4  33
BRANCH   8  44
ATOM     44  C   UNL     1     103.202 124.316 146.534  0.00  0.00    +0.000 C 
BRANCH  44  45
ATOM     45  O   UNL     1     102.506 124.743 146.655  0.00  0.00    +0.000 OA
BRANCH  45  47
ATOM     46  O   UNL     1     101.504 124.036 145.922  0.00  0.00    +0.000 OA
ATOM     47  C   UNL     1     101.776 124.359 146.631  0.00  0.00    +0.000 C 
ATOM     48  C   UNL     1     101.320 124.297 147.315  0.00  0.00    +0.000 C 
ENDBRANCH  45  47
ENDBRANCH  44  45
ENDBRANCH   8  44
TORSDOF 10
ENDMDL
MODEL 5
REMARK VINA RESULT:      -9.1      2.100      5.763
REMARK  Name = 44258391
REMARK  10 active torsions:
REMARK  status: ('A' for Active; 'I' for Inactive)
REMARK    1  A    between atoms: O_1  and  C_17
REMARK    2  A    between atoms: O_1  and  C_22
REMARK    3  A    between atoms: O_9  and  C_28
REMARK    4  A    between atoms: O_9  and  C_36
REMARK    5  A    between atoms: O_10  and  C_30
REMARK    6  A    between atoms: O_15  and  C_44
REMARK    7  A    between atoms: O_16  and  C_46
REMARK    8  A    between atoms: C_19  and  C_27
REMARK    9  A    between atoms: C_21  and  C_28
REMARK   10  A    between atoms: C_38  and  C_41
REMARK                            x       y       z     vdW  Elec       q    Type
REMARK                         _______ _______ _______ _____ _____    ______ ____
ROOT
ATOM      1  O   UNL     1     109.278 130.736 137.308  0.00  0.00    +0.000 OA
ATOM      2  O   UNL     1     109.951 132.138 139.233  0.00  0.00    +0.000 OA
ATOM      3  O   UNL     1     108.749 132.645 138.224  0.00  0.00    +0.000 OA
ATOM      4  C   UNL     1     110.104 130.949 138.455  0.00  0.00    +0.000 C 
ATOM      5  C   UNL     1     109.727 131.671 138.592  0.00  0.00    +0.000 C 
ATOM      6  C   UNL     1     109.880 130.483 137.813  0.00  0.00    +0.000 C 
ATOM      7  C   UNL     1     109.125 131.924 138.087  0.00  0.00    +0.000 C 
ATOM      8  C   UNL     1     108.902 131.456 137.445  0.00  0.00    +0.000 C 
ENDROOT
BRANCH   6  12
ATOM      9  O   UNL     1     109.194 129.079 138.344  0.00  0.00    +0.000 OA
ATOM     10  O   UNL     1     111.414 127.575 137.254  0.00  0.00    +0.000 OA
ATOM     11  O   UNL     1     109.204 127.643 138.487  0.00  0.00    +0.000 OA
ATOM     12  C   UNL     1     110.257 129.761 137.676  0.00  0.00    +0.000 A 
ATOM     13  C   UNL     1     109.914 129.060 137.941  0.00  0.00    +0.000 A 
ATOM     14  C   UNL     1     110.977 129.742 137.273  0.00  0.00    +0.000 A 
ATOM     15  C   UNL     1     110.291 128.338 137.805  0.00  0.00    +0.000 A 
ATOM     16  C   UNL     1     111.354 129.021 137.137  0.00  0.00    +0.000 A 
ATOM     17  C   UNL     1     111.011 128.319 137.402  0.00  0.00    +0.000 A 
ATOM     18  C   UNL     1     109.923 127.615 138.086  0.00  0.00    +0.000 A 
ATOM     19  C   UNL     1     110.312 126.860 137.947  0.00  0.00    +0.000 A 
ATOM     20  C   UNL     1     111.062 126.840 137.528  0.00  0.00    +0.000 A 
BRANCH  20  21
ATOM     21  C   UNL     1     111.441 126.121 137.390  0.00  0.00    +0.000 A 
ATOM     22  C   UNL     1     112.187 125.979 137.712  0.00  0.00    +0.000 A 
ATOM     23  C   UNL     1     111.074 125.543 136.930  0.00  0.00    +0.000 A 
ATOM     24  C   UNL     1     112.566 125.259 137.573  0.00  0.00    +0.000 A 
ATOM     25  C   UNL     1     111.452 124.824 136.791  0.00  0.00    +0.000 A 
ATOM     26  C   UNL     1     112.198 124.682 137.113  0.00  0.00    +0.000 A 
BRANCH  24  27
ATOM     27  O   UNL     1     113.312 125.118 137.895  0.00  0.00    +0.000 OA
ATOM     28  C   UNL     1     113.793 125.750 138.113  0.00  0.00    +0.000 C 
ENDBRANCH  24  27
BRANCH  26  29
ATOM     29  O   UNL     1     112.577 123.962 136.975  0.00  0.00    +0.000 OA
ATOM     30  C   UNL     1     112.140 123.304 136.737  0.00  0.00    +0.000 C 
ENDBRANCH  26  29
ENDBRANCH  20  21
BRANCH  14  31
ATOM     31  O   UNL     1     111.320 130.444 137.008  0.00  0.00    +0.000 OA
ATOM     32  C   UNL     1     111.954 130.420 136.482  0.00  0.00    +0.000 C 
ENDBRANCH  14  31
ENDBRANCH   6  12
BRANCH   4  33
ATOM     33  O   UNL     1     110.705 130.696 138.960  0.00  0.00    +0.000 OA
BRANCH  33  38
ATOM     34  O   UNL     1     109.844 130.549 140.090  0.00  0.00    +0.000 OA
ATOM     35  O   UNL     1     111.968 131.037 139.966  0.00  0.00    +0.000 OA
ATOM     36  O   UNL     1     111.738 131.060 141.599  0.00  0.00    +0.000 OA
ATOM     37  O   UNL     1     110.245 130.743 142.227  0.00  0.00    +0.000 OA
ATOM     38  C   UNL     1     110.589 130.708 139.776  0.00  0.00    +0.000 C 
ATOM     39  C   UNL     1     111.221 130.878 140.280  0.00  0.00    +0.000 C 
ATOM     40  C   UNL     1     111.106 130.890 141.096  0.00  0.00    +0.000 C 
ATOM     41  C   UNL     1     110.360 130.731 141.409  0.00  0.00    +0.000 C 
ATOM     42  C   UNL     1     109.729 130.561 140.906  0.00  0.00    +0.000 C 
ATOM     43  C   UNL     1     108.982 130.403 141.221  0.00  0.00    +0.000 C 
ENDBRANCH  33  38
ENDBRANCH   4  33
BRANCH   8  44
ATOM     44  C   UNL     1     108.301 131.710 136.940  0.00  0.00    +0.000 C 
BRANCH  44  45
ATOM     45  O   UNL     1     108.205 131.355 136.201  0.00  0.00    +0.000 OA
BRANCH  45  47
ATOM     46  O   UNL     1     106.812 131.371 135.883  0.00  0.00    +0.000 OA
ATOM     47  C   UNL     1     107.588 131.590 135.707  0.00  0.00    +0.000 C 
ATOM     48  C   UNL     1     107.746 132.044 135.037  0.00  0.00    +0.000 C 
ENDBRANCH  45  47
ENDBRANCH  44  45
ENDBRANCH   8  44
TORSDOF 10
ENDMDL
MODEL 6
REMARK VINA RESULT:      -9.0      3.692      6.949
REMARK  Name = 44258391
REMARK  10 active torsions:
REMARK  status: ('A' for Active; 'I' for Inactive)
REMARK    1  A    between atoms: O_1  and  C_17
REMARK    2  A    between atoms: O_1  and  C_22
REMARK    3  A    between atoms: O_9  and  C_28
REMARK    4  A    between atoms: O_9  and  C_36
REMARK    5  A    between atoms: O_10  and  C_30
REMARK    6  A    between atoms: O_15  and  C_44
REMARK    7  A    between atoms: O_16  and  C_46
REMARK    8  A    between atoms: C_19  and  C_27
REMARK    9  A    between atoms: C_21  and  C_28
REMARK   10  A    between atoms: C_38  and  C_41
REMARK                            x       y       z     vdW  Elec       q    Type
REMARK                         _______ _______ _______ _____ _____    ______ ____
ROOT
ATOM      1  O   UNL     1     112.431 129.784 141.551  0.00  0.00    +0.000 OA
ATOM      2  O   UNL     1     110.516 130.011 140.000  0.00  0.00    +0.000 OA
ATOM      3  O   UNL     1     111.894 129.250 139.504  0.00  0.00    +0.000 OA
ATOM      4  C   UNL     1     111.104 130.241 141.282  0.00  0.00    +0.000 C 
ATOM      5  C   UNL     1     111.155 129.935 140.516  0.00  0.00    +0.000 C 
ATOM      6  C   UNL     1     111.742 130.164 141.798  0.00  0.00    +0.000 C 
ATOM      7  C   UNL     1     111.843 129.554 140.269  0.00  0.00    +0.000 C 
ATOM      8  C   UNL     1     112.481 129.479 140.787  0.00  0.00    +0.000 C 
ENDROOT
BRANCH   6  12
ATOM      9  O   UNL     1     111.921 131.785 142.054  0.00  0.00    +0.000 OA
ATOM     10  O   UNL     1     111.535 131.386 144.894  0.00  0.00    +0.000 OA
ATOM     11  O   UNL     1     111.965 132.928 142.933  0.00  0.00    +0.000 OA
ATOM     12  C   UNL     1     111.692 130.470 142.564  0.00  0.00    +0.000 A 
ATOM     13  C   UNL     1     111.781 131.280 142.691  0.00  0.00    +0.000 A 
ATOM     14  C   UNL     1     111.552 129.965 143.201  0.00  0.00    +0.000 A 
ATOM     15  C   UNL     1     111.730 131.585 143.456  0.00  0.00    +0.000 A 
ATOM     16  C   UNL     1     111.501 130.270 143.965  0.00  0.00    +0.000 A 
ATOM     17  C   UNL     1     111.590 131.080 144.094  0.00  0.00    +0.000 A 
ATOM     18  C   UNL     1     111.825 132.431 143.575  0.00  0.00    +0.000 A 
ATOM     19  C   UNL     1     111.773 132.755 144.371  0.00  0.00    +0.000 A 
ATOM     20  C   UNL     1     111.628 132.229 145.034  0.00  0.00    +0.000 A 
BRANCH  20  21
ATOM     21  C   UNL     1     111.576 132.532 145.800  0.00  0.00    +0.000 A 
ATOM     22  C   UNL     1     110.881 132.895 146.054  0.00  0.00    +0.000 A 
ATOM     23  C   UNL     1     112.221 132.471 146.311  0.00  0.00    +0.000 A 
ATOM     24  C   UNL     1     110.831 133.198 146.821  0.00  0.00    +0.000 A 
ATOM     25  C   UNL     1     112.170 132.773 147.076  0.00  0.00    +0.000 A 
ATOM     26  C   UNL     1     111.476 133.136 147.331  0.00  0.00    +0.000 A 
BRANCH  24  27
ATOM     27  O   UNL     1     110.135 133.561 147.075  0.00  0.00    +0.000 OA
ATOM     28  C   UNL     1     109.414 133.358 146.731  0.00  0.00    +0.000 C 
ENDBRANCH  24  27
BRANCH  26  29
ATOM     29  O   UNL     1     111.424 133.439 148.097  0.00  0.00    +0.000 OA
ATOM     30  C   UNL     1     112.013 133.267 148.649  0.00  0.00    +0.000 C 
ENDBRANCH  26  29
ENDBRANCH  20  21
BRANCH  14  31
ATOM     31  O   UNL     1     111.462 129.155 143.073  0.00  0.00    +0.000 OA
ATOM     32  C   UNL     1     111.503 128.630 143.708  0.00  0.00    +0.000 C 
ENDBRANCH  14  31
ENDBRANCH   6  12
BRANCH   4  33
ATOM     33  O   UNL     1     110.415 130.621 141.529  0.00  0.00    +0.000 OA
BRANCH  33  38
ATOM     34  O   UNL     1     109.568 129.473 141.467  0.00  0.00    +0.000 OA
ATOM     35  O   UNL     1     109.164 131.572 141.026  0.00  0.00    +0.000 OA
ATOM     36  O   UNL     1     107.691 130.899 140.711  0.00  0.00    +0.000 OA
ATOM     37  O   UNL     1     107.469 129.275 140.900  0.00  0.00    +0.000 OA
ATOM     38  C   UNL     1     109.679 130.284 141.372  0.00  0.00    +0.000 C 
ATOM     39  C   UNL     1     109.053 130.759 141.120  0.00  0.00    +0.000 C 
ATOM     40  C   UNL     1     108.317 130.423 140.963  0.00  0.00    +0.000 C 
ATOM     41  C   UNL     1     108.206 129.611 141.058  0.00  0.00    +0.000 C 
ATOM     42  C   UNL     1     108.832 129.136 141.309  0.00  0.00    +0.000 C 
ATOM     43  C   UNL     1     108.720 128.324 141.404  0.00  0.00    +0.000 C 
ENDBRANCH  33  38
ENDBRANCH   4  33
BRANCH   8  44
ATOM     44  C   UNL     1     113.170 129.098 140.539  0.00  0.00    +0.000 C 
BRANCH  44  45
ATOM     45  O   UNL     1     113.646 128.706 141.089  0.00  0.00    +0.000 OA
BRANCH  45  47
ATOM     46  O   UNL     1     114.992 128.845 140.631  0.00  0.00    +0.000 OA
ATOM     47  C   UNL     1     114.357 128.364 140.849  0.00  0.00    +0.000 C 
ATOM     48  C   UNL     1     114.433 127.544 140.827  0.00  0.00    +0.000 C 
ENDBRANCH  45  47
ENDBRANCH  44  45
ENDBRANCH   8  44
TORSDOF 10
ENDMDL
MODEL 7
REMARK VINA RESULT:      -9.0      1.253      2.171
REMARK  Name = 44258391
REMARK  10 active torsions:
REMARK  status: ('A' for Active; 'I' for Inactive)
REMARK    1  A    between atoms: O_1  and  C_17
REMARK    2  A    between atoms: O_1  and  C_22
REMARK    3  A    between atoms: O_9  and  C_28
REMARK    4  A    between atoms: O_9  and  C_36
REMARK    5  A    between atoms: O_10  and  C_30
REMARK    6  A    between atoms: O_15  and  C_44
REMARK    7  A    between atoms: O_16  and  C_46
REMARK    8  A    between atoms: C_19  and  C_27
REMARK    9  A    between atoms: C_21  and  C_28
REMARK   10  A    between atoms: C_38  and  C_41
REMARK                            x       y       z     vdW  Elec       q    Type
REMARK                         _______ _______ _______ _____ _____    ______ ____
ROOT
ATOM      1  O   UNL     1     112.526 126.702 137.538  0.00  0.00    +0.000 OA
ATOM      2  O   UNL     1     113.935 127.191 139.513  0.00  0.00    +0.000 OA
ATOM      3  O   UNL     1     113.830 125.648 138.935  0.00  0.00    +0.000 OA
ATOM      4  C   UNL     1     113.048 127.636 138.485  0.00  0.00    +0.000 C 
ATOM      5  C   UNL     1     113.466 127.027 138.855  0.00  0.00    +0.000 C 
ATOM      6  C   UNL     1     112.579 127.473 137.827  0.00  0.00    +0.000 C 
ATOM      7  C   UNL     1     113.413 126.256 138.566  0.00  0.00    +0.000 C 
ATOM      8  C   UNL     1     112.943 126.094 137.907  0.00  0.00    +0.000 C 
ENDROOT
BRANCH   6  12
ATOM      9  O   UNL     1     110.984 127.712 138.178  0.00  0.00    +0.000 OA
ATOM     10  O   UNL     1     110.904 129.935 136.327  0.00  0.00    +0.000 OA
ATOM     11  O   UNL     1     109.745 128.430 138.001  0.00  0.00    +0.000 OA
ATOM     12  C   UNL     1     112.161 128.082 137.457  0.00  0.00    +0.000 A 
ATOM     13  C   UNL     1     111.364 128.201 137.633  0.00  0.00    +0.000 A 
ATOM     14  C   UNL     1     112.541 128.571 136.912  0.00  0.00    +0.000 A 
ATOM     15  C   UNL     1     110.947 128.810 137.263  0.00  0.00    +0.000 A 
ATOM     16  C   UNL     1     112.124 129.179 136.543  0.00  0.00    +0.000 A 
ATOM     17  C   UNL     1     111.327 129.299 136.718  0.00  0.00    +0.000 A 
ATOM     18  C   UNL     1     110.117 128.923 137.455  0.00  0.00    +0.000 A 
ATOM     19  C   UNL     1     109.677 129.556 137.073  0.00  0.00    +0.000 A 
ATOM     20  C   UNL     1     110.073 130.065 136.506  0.00  0.00    +0.000 A 
BRANCH  20  21
ATOM     21  C   UNL     1     109.658 130.674 136.135  0.00  0.00    +0.000 A 
ATOM     22  C   UNL     1     109.840 131.461 136.305  0.00  0.00    +0.000 A 
ATOM     23  C   UNL     1     109.061 130.497 135.594  0.00  0.00    +0.000 A 
ATOM     24  C   UNL     1     109.425 132.070 135.934  0.00  0.00    +0.000 A 
ATOM     25  C   UNL     1     108.646 131.105 135.223  0.00  0.00    +0.000 A 
ATOM     26  C   UNL     1     108.828 131.891 135.393  0.00  0.00    +0.000 A 
BRANCH  24  27
ATOM     27  O   UNL     1     109.607 132.856 136.104  0.00  0.00    +0.000 OA
ATOM     28  C   UNL     1     110.253 133.034 136.583  0.00  0.00    +0.000 C 
ENDBRANCH  24  27
BRANCH  26  29
ATOM     29  O   UNL     1     108.413 132.500 135.022  0.00  0.00    +0.000 OA
ATOM     30  C   UNL     1     107.716 132.335 134.613  0.00  0.00    +0.000 C 
ENDBRANCH  26  29
ENDBRANCH  20  21
BRANCH  14  31
ATOM     31  O   UNL     1     113.339 128.451 136.737  0.00  0.00    +0.000 OA
ATOM     32  C   UNL     1     113.671 128.801 136.067  0.00  0.00    +0.000 C 
ENDBRANCH  14  31
ENDBRANCH   6  12
BRANCH   4  33
ATOM     33  O   UNL     1     113.101 128.407 138.773  0.00  0.00    +0.000 OA
BRANCH  33  38
ATOM     34  O   UNL     1     112.448 128.114 140.010  0.00  0.00    +0.000 OA
ATOM     35  O   UNL     1     113.988 129.581 139.520  0.00  0.00    +0.000 OA
ATOM     36  O   UNL     1     113.777 129.876 141.130  0.00  0.00    +0.000 OA
ATOM     37  O   UNL     1     112.681 128.995 141.993  0.00  0.00    +0.000 OA
ATOM     38  C   UNL     1     112.996 128.554 139.579  0.00  0.00    +0.000 C 
ATOM     39  C   UNL     1     113.439 129.141 139.952  0.00  0.00    +0.000 C 
ATOM     40  C   UNL     1     113.334 129.288 140.757  0.00  0.00    +0.000 C 
ATOM     41  C   UNL     1     112.786 128.848 141.188  0.00  0.00    +0.000 C 
ATOM     42  C   UNL     1     112.343 128.261 140.814  0.00  0.00    +0.000 C 
ATOM     43  C   UNL     1     111.794 127.821 141.247  0.00  0.00    +0.000 C 
ENDBRANCH  33  38
ENDBRANCH   4  33
BRANCH   8  44
ATOM     44  C   UNL     1     112.890 125.323 137.619  0.00  0.00    +0.000 C 
BRANCH  44  45
ATOM     45  O   UNL     1     112.662 125.190 136.836  0.00  0.00    +0.000 OA
BRANCH  45  47
ATOM     46  O   UNL     1     113.157 123.896 136.488  0.00  0.00    +0.000 OA
ATOM     47  C   UNL     1     112.525 124.420 136.572  0.00  0.00    +0.000 C 
ATOM     48  C   UNL     1     111.759 124.176 136.391  0.00  0.00    +0.000 C 
ENDBRANCH  45  47
ENDBRANCH  44  45
ENDBRANCH   8  44
TORSDOF 10
ENDMDL
MODEL 8
REMARK VINA RESULT:      -9.0      2.731      5.976
REMARK  Name = 44258391
REMARK  10 active torsions:
REMARK  status: ('A' for Active; 'I' for Inactive)
REMARK    1  A    between atoms: O_1  and  C_17
REMARK    2  A    between atoms: O_1  and  C_22
REMARK    3  A    between atoms: O_9  and  C_28
REMARK    4  A    between atoms: O_9  and  C_36
REMARK    5  A    between atoms: O_10  and  C_30
REMARK    6  A    between atoms: O_15  and  C_44
REMARK    7  A    between atoms: O_16  and  C_46
REMARK    8  A    between atoms: C_19  and  C_27
REMARK    9  A    between atoms: C_21  and  C_28
REMARK   10  A    between atoms: C_38  and  C_41
REMARK                            x       y       z     vdW  Elec       q    Type
REMARK                         _______ _______ _______ _____ _____    ______ ____
ROOT
ATOM      1  O   UNL     1     112.358 128.548 137.556  0.00  0.00    +0.000 OA
ATOM      2  O   UNL     1     112.835 126.798 135.873  0.00  0.00    +0.000 OA
ATOM      3  O   UNL     1     113.741 128.177 135.909  0.00  0.00    +0.000 OA
ATOM      4  C   UNL     1     112.064 127.275 136.977  0.00  0.00    +0.000 C 
ATOM      5  C   UNL     1     112.676 127.382 136.433  0.00  0.00    +0.000 C 
ATOM      6  C   UNL     1     111.905 127.859 137.538  0.00  0.00    +0.000 C 
ATOM      7  C   UNL     1     113.129 128.071 136.452  0.00  0.00    +0.000 C 
ATOM      8  C   UNL     1     112.969 128.654 137.013  0.00  0.00    +0.000 C 
ENDROOT
BRANCH   6  12
ATOM      9  O   UNL     1     112.237 127.307 139.057  0.00  0.00    +0.000 OA
ATOM     10  O   UNL     1     109.423 127.433 139.723  0.00  0.00    +0.000 OA
ATOM     11  O   UNL     1     111.813 126.915 140.380  0.00  0.00    +0.000 OA
ATOM     12  C   UNL     1     111.292 127.753 138.081  0.00  0.00    +0.000 A 
ATOM     13  C   UNL     1     111.459 127.477 138.840  0.00  0.00    +0.000 A 
ATOM     14  C   UNL     1     110.515 127.922 137.864  0.00  0.00    +0.000 A 
ATOM     15  C   UNL     1     110.846 127.370 139.384  0.00  0.00    +0.000 A 
ATOM     16  C   UNL     1     109.903 127.816 138.407  0.00  0.00    +0.000 A 
ATOM     17  C   UNL     1     110.069 127.540 139.167  0.00  0.00    +0.000 A 
ATOM     18  C   UNL     1     111.033 127.082 140.172  0.00  0.00    +0.000 A 
ATOM     19  C   UNL     1     110.399 126.970 140.742  0.00  0.00    +0.000 A 
ATOM     20  C   UNL     1     109.589 127.146 140.516  0.00  0.00    +0.000 A 
BRANCH  20  21
ATOM     21  C   UNL     1     108.975 127.041 141.057  0.00  0.00    +0.000 A 
ATOM     22  C   UNL     1     108.566 126.324 141.083  0.00  0.00    +0.000 A 
ATOM     23  C   UNL     1     108.770 127.651 141.573  0.00  0.00    +0.000 A 
ATOM     24  C   UNL     1     107.952 126.220 141.625  0.00  0.00    +0.000 A 
ATOM     25  C   UNL     1     108.157 127.547 142.113  0.00  0.00    +0.000 A 
ATOM     26  C   UNL     1     107.748 126.831 142.140  0.00  0.00    +0.000 A 
BRANCH  24  27
ATOM     27  O   UNL     1     107.544 125.503 141.650  0.00  0.00    +0.000 OA
ATOM     28  C   UNL     1     107.550 125.002 140.996  0.00  0.00    +0.000 C 
ENDBRANCH  24  27
BRANCH  26  29
ATOM     29  O   UNL     1     107.134 126.726 142.681  0.00  0.00    +0.000 OA
ATOM     30  C   UNL     1     106.948 127.326 143.215  0.00  0.00    +0.000 C 
ENDBRANCH  26  29
ENDBRANCH  20  21
BRANCH  14  31
ATOM     31  O   UNL     1     110.349 128.198 137.105  0.00  0.00    +0.000 OA
ATOM     32  C   UNL     1     109.614 128.532 136.939  0.00  0.00    +0.000 C 
ENDBRANCH  14  31
ENDBRANCH   6  12
BRANCH   4  33
ATOM     33  O   UNL     1     111.611 126.586 136.959  0.00  0.00    +0.000 OA
BRANCH  33  38
ATOM     34  O   UNL     1     112.706 125.738 137.313  0.00  0.00    +0.000 OA
ATOM     35  O   UNL     1     110.906 125.335 136.145  0.00  0.00    +0.000 OA
ATOM     36  O   UNL     1     111.648 123.863 136.093  0.00  0.00    +0.000 OA
ATOM     37  O   UNL     1     113.095 123.640 136.855  0.00  0.00    +0.000 OA
ATOM     38  C   UNL     1     111.983 125.850 136.933  0.00  0.00    +0.000 C 
ATOM     39  C   UNL     1     111.630 125.224 136.526  0.00  0.00    +0.000 C 
ATOM     40  C   UNL     1     112.001 124.488 136.500  0.00  0.00    +0.000 C 
ATOM     41  C   UNL     1     112.724 124.377 136.881  0.00  0.00    +0.000 C 
ATOM     42  C   UNL     1     113.076 125.003 137.287  0.00  0.00    +0.000 C 
ATOM     43  C   UNL     1     113.800 124.891 137.668  0.00  0.00    +0.000 C 
ENDBRANCH  33  38
ENDBRANCH   4  33
BRANCH   8  44
ATOM     44  C   UNL     1     113.422 129.344 137.032  0.00  0.00    +0.000 C 
BRANCH  44  45
ATOM     45  O   UNL     1     113.110 130.034 137.361  0.00  0.00    +0.000 OA
BRANCH  45  47
ATOM     46  O   UNL     1     114.213 130.717 137.960  0.00  0.00    +0.000 OA
ATOM     47  C   UNL     1     113.581 130.708 137.429  0.00  0.00    +0.000 C 
ATOM     48  C   UNL     1     113.420 131.372 136.968  0.00  0.00    +0.000 C 
ENDBRANCH  45  47
ENDBRANCH  44  45
ENDBRANCH   8  44
TORSDOF 10
ENDMDL
MODEL 9
REMARK VINA RESULT:      -8.9      2.238      5.750
REMARK  Name = 44258391
REMARK  10 active torsions:
REMARK  status: ('A' for Active; 'I' for Inactive)
REMARK    1  A    between atoms: O_1  and  C_17
REMARK    2  A    between atoms: O_1  and  C_22
REMARK    3  A    between atoms: O_9  and  C_28
REMARK    4  A    between atoms: O_9  and  C_36
REMARK    5  A    between atoms: O_10  and  C_30
REMARK    6  A    between atoms: O_15  and  C_44
REMARK    7  A    between atoms: O_16  and  C_46
REMARK    8  A    between atoms: C_19  and  C_27
REMARK    9  A    between atoms: C_21  and  C_28
REMARK   10  A    between atoms: C_38  and  C_41
REMARK                            x       y       z     vdW  Elec       q    Type
REMARK                         _______ _______ _______ _____ _____    ______ ____
ROOT
ATOM      1  O   UNL     1     109.979 130.349 138.418  0.00  0.00    +0.000 OA
ATOM      2  O   UNL     1     108.385 129.664 140.183  0.00  0.00    +0.000 OA
ATOM      3  O   UNL     1     108.448 131.239 139.693  0.00  0.00    +0.000 OA
ATOM      4  C   UNL     1     109.416 129.333 139.250  0.00  0.00    +0.000 C 
ATOM      5  C   UNL     1     108.916 129.893 139.594  0.00  0.00    +0.000 C 
ATOM      6  C   UNL     1     109.947 129.562 138.662  0.00  0.00    +0.000 C 
ATOM      7  C   UNL     1     108.948 130.680 139.350  0.00  0.00    +0.000 C 
ATOM      8  C   UNL     1     109.480 130.908 138.761  0.00  0.00    +0.000 C 
ENDROOT
BRANCH   6  12
ATOM      9  O   UNL     1     111.500 129.404 139.198  0.00  0.00    +0.000 OA
ATOM     10  O   UNL     1     111.958 127.298 137.265  0.00  0.00    +0.000 OA
ATOM     11  O   UNL     1     112.798 128.775 139.142  0.00  0.00    +0.000 OA
ATOM     12  C   UNL     1     110.448 129.002 138.318  0.00  0.00    +0.000 A 
ATOM     13  C   UNL     1     111.224 128.923 138.586  0.00  0.00    +0.000 A 
ATOM     14  C   UNL     1     110.171 128.522 137.707  0.00  0.00    +0.000 A 
ATOM     15  C   UNL     1     111.724 128.364 138.242  0.00  0.00    +0.000 A 
ATOM     16  C   UNL     1     110.671 127.963 137.364  0.00  0.00    +0.000 A 
ATOM     17  C   UNL     1     111.447 127.884 137.631  0.00  0.00    +0.000 A 
ATOM     18  C   UNL     1     112.530 128.292 138.531  0.00  0.00    +0.000 A 
ATOM     19  C   UNL     1     113.056 127.710 138.176  0.00  0.00    +0.000 A 
ATOM     20  C   UNL     1     112.768 127.210 137.540  0.00  0.00    +0.000 A 
BRANCH  20  21
ATOM     21  C   UNL     1     113.266 126.650 137.194  0.00  0.00    +0.000 A 
ATOM     22  C   UNL     1     113.148 125.847 137.342  0.00  0.00    +0.000 A 
ATOM     23  C   UNL     1     113.881 126.894 136.702  0.00  0.00    +0.000 A 
ATOM     24  C   UNL     1     113.647 125.287 136.996  0.00  0.00    +0.000 A 
ATOM     25  C   UNL     1     114.379 126.335 136.357  0.00  0.00    +0.000 A 
ATOM     26  C   UNL     1     114.262 125.532 136.503  0.00  0.00    +0.000 A 
BRANCH  24  27
ATOM     27  O   UNL     1     113.529 124.484 137.143  0.00  0.00    +0.000 OA
ATOM     28  C   UNL     1     112.764 124.187 137.218  0.00  0.00    +0.000 C 
ENDBRANCH  24  27
BRANCH  26  29
ATOM     29  O   UNL     1     114.759 124.972 136.158  0.00  0.00    +0.000 OA
ATOM     30  C   UNL     1     115.417 125.216 135.724  0.00  0.00    +0.000 C 
ENDBRANCH  26  29
ENDBRANCH  20  21
BRANCH  14  31
ATOM     31  O   UNL     1     109.395 128.602 137.439  0.00  0.00    +0.000 OA
ATOM     32  C   UNL     1     109.174 128.278 136.714  0.00  0.00    +0.000 C 
ENDBRANCH  14  31
ENDBRANCH   6  12
BRANCH   4  33
ATOM     33  O   UNL     1     109.385 128.546 139.495  0.00  0.00    +0.000 OA
BRANCH  33  38
ATOM     34  O   UNL     1     109.882 128.826 140.805  0.00  0.00    +0.000 OA
ATOM     35  O   UNL     1     108.555 127.248 140.087  0.00  0.00    +0.000 OA
ATOM     36  O   UNL     1     108.637 126.880 141.693  0.00  0.00    +0.000 OA
ATOM     37  O   UNL     1     109.549 127.809 142.708  0.00  0.00    +0.000 OA
ATOM     38  C   UNL     1     109.426 128.362 140.298  0.00  0.00    +0.000 C 
ATOM     39  C   UNL     1     109.011 127.713 140.594  0.00  0.00    +0.000 C 
ATOM     40  C   UNL     1     109.052 127.529 141.397  0.00  0.00    +0.000 C 
ATOM     41  C   UNL     1     109.508 127.993 141.904  0.00  0.00    +0.000 C 
ATOM     42  C   UNL     1     109.923 128.642 141.608  0.00  0.00    +0.000 C 
ATOM     43  C   UNL     1     110.378 129.106 142.115  0.00  0.00    +0.000 C 
ENDBRANCH  33  38
ENDBRANCH   4  33
BRANCH   8  44
ATOM     44  C   UNL     1     109.511 131.695 138.517  0.00  0.00    +0.000 C 
BRANCH  44  45
ATOM     45  O   UNL     1     110.143 131.959 138.056  0.00  0.00    +0.000 OA
BRANCH  45  47
ATOM     46  O   UNL     1     110.231 133.343 138.400  0.00  0.00    +0.000 OA
ATOM     47  C   UNL     1     110.185 132.751 137.827  0.00  0.00    +0.000 C 
ATOM     48  C   UNL     1     110.180 132.949 137.027  0.00  0.00    +0.000 C 
ENDBRANCH  45  47
ENDBRANCH  44  45
ENDBRANCH   8  44
TORSDOF 10
ENDMDL
MODEL 10
REMARK VINA RESULT:      -8.9      2.184      5.070
REMARK  Name = 44258391
REMARK  10 active torsions:
REMARK  status: ('A' for Active; 'I' for Inactive)
REMARK    1  A    between atoms: O_1  and  C_17
REMARK    2  A    between atoms: O_1  and  C_22
REMARK    3  A    between atoms: O_9  and  C_28
REMARK    4  A    between atoms: O_9  and  C_36
REMARK    5  A    between atoms: O_10  and  C_30
REMARK    6  A    between atoms: O_15  and  C_44
REMARK    7  A    between atoms: O_16  and  C_46
REMARK    8  A    between atoms: C_19  and  C_27
REMARK    9  A    between atoms: C_21  and  C_28
REMARK   10  A    between atoms: C_38  and  C_41
REMARK                            x       y       z     vdW  Elec       q    Type
REMARK                         _______ _______ _______ _____ _____    ______ ____
ROOT
ATOM      1  O   UNL     1     112.409 126.740 137.357  0.00  0.00    +0.000 OA
ATOM      2  O   UNL     1     110.502 126.662 135.780  0.00  0.00    +0.000 OA
ATOM      3  O   UNL     1     111.878 125.811 135.454  0.00  0.00    +0.000 OA
ATOM      4  C   UNL     1     111.085 127.140 136.994  0.00  0.00    +0.000 C 
ATOM      5  C   UNL     1     111.138 126.688 136.305  0.00  0.00    +0.000 C 
ATOM      6  C   UNL     1     111.721 127.165 137.519  0.00  0.00    +0.000 C 
ATOM      7  C   UNL     1     111.826 126.262 136.142  0.00  0.00    +0.000 C 
ATOM      8  C   UNL     1     112.461 126.289 136.669  0.00  0.00    +0.000 C 
ENDROOT
BRANCH   6  12
ATOM      9  O   UNL     1     112.382 128.676 137.567  0.00  0.00    +0.000 OA
ATOM     10  O   UNL     1     111.502 128.981 140.308  0.00  0.00    +0.000 OA
ATOM     11  O   UNL     1     112.676 129.906 138.264  0.00  0.00    +0.000 OA
ATOM     12  C   UNL     1     111.668 127.617 138.208  0.00  0.00    +0.000 A 
ATOM     13  C   UNL     1     111.999 128.372 138.232  0.00  0.00    +0.000 A 
ATOM     14  C   UNL     1     111.285 127.313 138.873  0.00  0.00    +0.000 A 
ATOM     15  C   UNL     1     111.946 128.824 138.921  0.00  0.00    +0.000 A 
ATOM     16  C   UNL     1     111.233 127.765 139.561  0.00  0.00    +0.000 A 
ATOM     17  C   UNL     1     111.563 128.521 139.585  0.00  0.00    +0.000 A 
ATOM     18  C   UNL     1     112.295 129.610 138.932  0.00  0.00    +0.000 A 
ATOM     19  C   UNL     1     112.243 130.085 139.647  0.00  0.00    +0.000 A 
ATOM     20  C   UNL     1     111.844 129.769 140.339  0.00  0.00    +0.000 A 
BRANCH  20  21
ATOM     21  C   UNL     1     111.790 130.218 141.029  0.00  0.00    +0.000 A 
ATOM     22  C   UNL     1     111.066 130.542 141.254  0.00  0.00    +0.000 A 
ATOM     23  C   UNL     1     112.461 130.344 141.492  0.00  0.00    +0.000 A 
ATOM     24  C   UNL     1     111.013 130.992 141.945  0.00  0.00    +0.000 A 
ATOM     25  C   UNL     1     112.407 130.793 142.181  0.00  0.00    +0.000 A 
ATOM     26  C   UNL     1     111.684 131.117 142.408  0.00  0.00    +0.000 A 
BRANCH  24  27
ATOM     27  O   UNL     1     110.288 131.315 142.171  0.00  0.00    +0.000 OA
ATOM     28  C   UNL     1     109.586 130.937 141.963  0.00  0.00    +0.000 C 
ENDBRANCH  24  27
BRANCH  26  29
ATOM     29  O   UNL     1     111.630 131.567 143.097  0.00  0.00    +0.000 OA
ATOM     30  C   UNL     1     112.315 131.832 143.471  0.00  0.00    +0.000 C 
ENDBRANCH  26  29
ENDBRANCH  20  21
BRANCH  14  31
ATOM     31  O   UNL     1     110.954 126.558 138.848  0.00  0.00    +0.000 OA
ATOM     32  C   UNL     1     110.721 126.187 139.548  0.00  0.00    +0.000 C 
ENDBRANCH  14  31
ENDBRANCH   6  12
BRANCH   4  33
ATOM     33  O   UNL     1     110.397 127.565 137.157  0.00  0.00    +0.000 OA
BRANCH  33  38
ATOM     34  O   UNL     1     110.553 128.494 136.083  0.00  0.00    +0.000 OA
ATOM     35  O   UNL     1     108.758 127.645 136.988  0.00  0.00    +0.000 OA
ATOM     36  O   UNL     1     108.094 128.614 135.830  0.00  0.00    +0.000 OA
ATOM     37  O   UNL     1     109.069 129.503 134.840  0.00  0.00    +0.000 OA
ATOM     38  C   UNL     1     110.066 128.050 136.577  0.00  0.00    +0.000 C 
ATOM     39  C   UNL     1     109.246 128.090 136.493  0.00  0.00    +0.000 C 
ATOM     40  C   UNL     1     108.914 128.574 135.914  0.00  0.00    +0.000 C 
ATOM     41  C   UNL     1     109.402 129.018 135.419  0.00  0.00    +0.000 C 
ATOM     42  C   UNL     1     110.222 128.979 135.504  0.00  0.00    +0.000 C 
ATOM     43  C   UNL     1     110.709 129.424 135.008  0.00  0.00    +0.000 C 
ENDBRANCH  33  38
ENDBRANCH   4  33
BRANCH   8  44
ATOM     44  C   UNL     1     113.149 125.863 136.506  0.00  0.00    +0.000 C 
BRANCH  44  45
ATOM     45  O   UNL     1     113.741 125.801 137.078  0.00  0.00    +0.000 OA
BRANCH  45  47
ATOM     46  O   UNL     1     114.927 125.613 136.303  0.00  0.00    +0.000 OA
ATOM     47  C   UNL     1     114.428 125.374 136.915  0.00  0.00    +0.000 C 
ATOM     48  C   UNL     1     114.616 124.709 137.366  0.00  0.00    +0.000 C 
ENDBRANCH  45  47
ENDBRANCH  44  45
ENDBRANCH   8  44
TORSDOF 10
ENDMDL
