MODEL 1
REMARK VINA RESULT:      -7.9      0.000      0.000
REMARK  Name = 
REMARK  4 active torsions:
REMARK  status: ('A' for Active; 'I' for Inactive)
REMARK    1  A    between atoms: C_3  and  O_5
REMARK    2  A    between atoms: C_6  and  C_11
REMARK    3  A    between atoms: C_14  and  O_19
REMARK    4  A    between atoms: C_17  and  O_22
REMARK                            x       y       z     vdW  Elec       q    Type
REMARK                         _______ _______ _______ _____ _____    ______ ____
ROOT
ATOM      1  O   UNL     1     105.578 124.418 145.485  0.00  0.00    +0.000 OA
ATOM      2  C   UNL     1     105.134 124.406 146.181  0.00  0.00    +0.000 A 
ATOM      3  C   UNL     1     104.339 124.189 146.159  0.00  0.00    +0.000 A 
ATOM      4  C   UNL     1     105.488 124.610 146.898  0.00  0.00    +0.000 A 
ATOM      5  C   UNL     1     103.895 124.176 146.855  0.00  0.00    +0.000 A 
ATOM      6  C   UNL     1     105.044 124.597 147.595  0.00  0.00    +0.000 A 
ATOM      7  C   UNL     1     106.283 124.826 146.920  0.00  0.00    +0.000 A 
ATOM      8  O   UNL     1     104.248 124.380 147.572  0.00  0.00    +0.000 OA
ATOM      9  C   UNL     1     105.396 124.801 148.311  0.00  0.00    +0.000 A 
ATOM     10  O   UNL     1     106.726 124.839 146.224  0.00  0.00    +0.000 OA
ATOM     11  C   UNL     1     106.636 125.030 147.637  0.00  0.00    +0.000 A 
ATOM     12  C   UNL     1     106.192 125.018 148.334  0.00  0.00    +0.000 A 
ATOM     13  C   UNL     1     104.953 124.788 149.007  0.00  0.00    +0.000 C 
ENDROOT
BRANCH   5  14
ATOM     14  C   UNL     1     103.100 123.960 146.833  0.00  0.00    +0.000 A 
ATOM     15  C   UNL     1     102.887 123.164 146.875  0.00  0.00    +0.000 A 
ATOM     16  C   UNL     1     102.516 124.539 146.768  0.00  0.00    +0.000 A 
ATOM     17  C   UNL     1     102.092 122.948 146.852  0.00  0.00    +0.000 A 
ATOM     18  C   UNL     1     101.720 124.324 146.745  0.00  0.00    +0.000 A 
ATOM     19  C   UNL     1     101.509 123.528 146.788  0.00  0.00    +0.000 A 
ATOM     20  O   UNL     1     100.712 123.312 146.765  0.00  0.00    +0.000 OA
ENDBRANCH   5  14
BRANCH   3  21
ATOM     21  O   UNL     1     103.986 123.985 145.441  0.00  0.00    +0.000 OA
ATOM     22  C   UNL     1     104.445 123.684 144.826  0.00  0.00    +0.000 C 
ENDBRANCH   3  21
BRANCH  11  23
ATOM     23  O   UNL     1     107.431 125.247 147.659  0.00  0.00    +0.000 OA
ATOM     24  C   UNL     1     107.666 125.983 147.371  0.00  0.00    +0.000 C 
ENDBRANCH  11  23
BRANCH  12  25
ATOM     25  O   UNL     1     106.544 125.221 149.051  0.00  0.00    +0.000 OA
ATOM     26  C   UNL     1     106.722 124.637 149.605  0.00  0.00    +0.000 C 
ENDBRANCH  12  25
TORSDOF 4
ENDMDL
MODEL 2
REMARK VINA RESULT:      -7.8      1.200      4.062
REMARK  Name = 
REMARK  4 active torsions:
REMARK  status: ('A' for Active; 'I' for Inactive)
REMARK    1  A    between atoms: C_3  and  O_5
REMARK    2  A    between atoms: C_6  and  C_11
REMARK    3  A    between atoms: C_14  and  O_19
REMARK    4  A    between atoms: C_17  and  O_22
REMARK                            x       y       z     vdW  Elec       q    Type
REMARK                         _______ _______ _______ _____ _____    ______ ____
ROOT
ATOM      1  O   UNL     1     104.430 123.577 144.883  0.00  0.00    +0.000 OA
ATOM      2  C   UNL     1     104.480 123.976 145.603  0.00  0.00    +0.000 A 
ATOM      3  C   UNL     1     105.145 124.432 145.777  0.00  0.00    +0.000 A 
ATOM      4  C   UNL     1     103.863 123.920 146.149  0.00  0.00    +0.000 A 
ATOM      5  C   UNL     1     105.194 124.832 146.498  0.00  0.00    +0.000 A 
ATOM      6  C   UNL     1     103.913 124.320 146.870  0.00  0.00    +0.000 A 
ATOM      7  C   UNL     1     103.199 123.465 145.976  0.00  0.00    +0.000 A 
ATOM      8  O   UNL     1     104.579 124.776 147.043  0.00  0.00    +0.000 OA
ATOM      9  C   UNL     1     103.298 124.264 147.416  0.00  0.00    +0.000 A 
ATOM     10  O   UNL     1     103.149 123.065 145.256  0.00  0.00    +0.000 OA
ATOM     11  C   UNL     1     102.582 123.408 146.522  0.00  0.00    +0.000 A 
ATOM     12  C   UNL     1     102.632 123.808 147.242  0.00  0.00    +0.000 A 
ATOM     13  C   UNL     1     103.347 124.664 148.136  0.00  0.00    +0.000 C 
ENDROOT
BRANCH   5  14
ATOM     14  C   UNL     1     105.860 125.288 146.671  0.00  0.00    +0.000 A 
ATOM     15  C   UNL     1     106.517 124.941 147.028  0.00  0.00    +0.000 A 
ATOM     16  C   UNL     1     105.868 126.092 146.487  0.00  0.00    +0.000 A 
ATOM     17  C   UNL     1     107.181 125.396 147.201  0.00  0.00    +0.000 A 
ATOM     18  C   UNL     1     106.533 126.549 146.659  0.00  0.00    +0.000 A 
ATOM     19  C   UNL     1     107.189 126.200 147.016  0.00  0.00    +0.000 A 
ATOM     20  O   UNL     1     107.855 126.657 147.189  0.00  0.00    +0.000 OA
ENDBRANCH   5  14
BRANCH   3  21
ATOM     21  O   UNL     1     105.761 124.488 145.231  0.00  0.00    +0.000 OA
ATOM     22  C   UNL     1     105.603 124.442 144.423  0.00  0.00    +0.000 C 
ENDBRANCH   3  21
BRANCH  11  23
ATOM     23  O   UNL     1     101.917 122.953 146.348  0.00  0.00    +0.000 OA
ATOM     24  C   UNL     1     101.341 123.243 145.835  0.00  0.00    +0.000 C 
ENDBRANCH  11  23
BRANCH  12  25
ATOM     25  O   UNL     1     102.016 123.752 147.788  0.00  0.00    +0.000 OA
ATOM     26  C   UNL     1     102.109 123.298 148.471  0.00  0.00    +0.000 C 
ENDBRANCH  12  25
TORSDOF 4
ENDMDL
MODEL 3
REMARK VINA RESULT:      -7.8      7.050      7.856
REMARK  Name = 
REMARK  4 active torsions:
REMARK  status: ('A' for Active; 'I' for Inactive)
REMARK    1  A    between atoms: C_3  and  O_5
REMARK    2  A    between atoms: C_6  and  C_11
REMARK    3  A    between atoms: C_14  and  O_19
REMARK    4  A    between atoms: C_17  and  O_22
REMARK                            x       y       z     vdW  Elec       q    Type
REMARK                         _______ _______ _______ _____ _____    ______ ____
ROOT
ATOM      1  O   UNL     1     103.414 128.627 140.405  0.00  0.00    +0.000 OA
ATOM      2  C   UNL     1     103.432 129.138 141.052  0.00  0.00    +0.000 A 
ATOM      3  C   UNL     1     102.960 129.815 141.056  0.00  0.00    +0.000 A 
ATOM      4  C   UNL     1     103.922 128.972 141.695  0.00  0.00    +0.000 A 
ATOM      5  C   UNL     1     102.978 130.327 141.704  0.00  0.00    +0.000 A 
ATOM      6  C   UNL     1     103.940 129.484 142.343  0.00  0.00    +0.000 A 
ATOM      7  C   UNL     1     104.393 128.296 141.691  0.00  0.00    +0.000 A 
ATOM      8  O   UNL     1     103.467 130.161 142.346  0.00  0.00    +0.000 OA
ATOM      9  C   UNL     1     104.429 129.319 142.985  0.00  0.00    +0.000 A 
ATOM     10  O   UNL     1     104.375 127.785 141.044  0.00  0.00    +0.000 OA
ATOM     11  C   UNL     1     104.883 128.130 142.334  0.00  0.00    +0.000 A 
ATOM     12  C   UNL     1     104.901 128.642 142.982  0.00  0.00    +0.000 A 
ATOM     13  C   UNL     1     104.447 129.830 143.632  0.00  0.00    +0.000 C 
ENDROOT
BRANCH   5  14
ATOM     14  C   UNL     1     102.506 131.004 141.707  0.00  0.00    +0.000 A 
ATOM     15  C   UNL     1     102.801 131.714 141.412  0.00  0.00    +0.000 A 
ATOM     16  C   UNL     1     101.738 130.968 142.006  0.00  0.00    +0.000 A 
ATOM     17  C   UNL     1     102.329 132.390 141.416  0.00  0.00    +0.000 A 
ATOM     18  C   UNL     1     101.265 131.644 142.010  0.00  0.00    +0.000 A 
ATOM     19  C   UNL     1     101.561 132.355 141.715  0.00  0.00    +0.000 A 
ATOM     20  O   UNL     1     101.088 133.032 141.719  0.00  0.00    +0.000 OA
ENDBRANCH   5  14
BRANCH   3  21
ATOM     21  O   UNL     1     102.470 129.981 140.413  0.00  0.00    +0.000 OA
ATOM     22  C   UNL     1     102.293 129.390 139.866  0.00  0.00    +0.000 C 
ENDBRANCH   3  21
BRANCH  11  23
ATOM     23  O   UNL     1     105.354 127.454 142.330  0.00  0.00    +0.000 OA
ATOM     24  C   UNL     1     106.066 127.450 141.913  0.00  0.00    +0.000 C 
ENDBRANCH  11  23
BRANCH  12  25
ATOM     25  O   UNL     1     105.390 128.476 143.624  0.00  0.00    +0.000 OA
ATOM     26  C   UNL     1     105.061 128.266 144.351  0.00  0.00    +0.000 C 
ENDBRANCH  12  25
TORSDOF 4
ENDMDL
MODEL 4
REMARK VINA RESULT:      -7.8      1.143      4.579
REMARK  Name = 
REMARK  4 active torsions:
REMARK  status: ('A' for Active; 'I' for Inactive)
REMARK    1  A    between atoms: C_3  and  O_5
REMARK    2  A    between atoms: C_6  and  C_11
REMARK    3  A    between atoms: C_14  and  O_19
REMARK    4  A    between atoms: C_17  and  O_22
REMARK                            x       y       z     vdW  Elec       q    Type
REMARK                         _______ _______ _______ _____ _____    ______ ____
ROOT
ATOM      1  O   UNL     1     102.832 125.592 148.223  0.00  0.00    +0.000 OA
ATOM      2  C   UNL     1     103.334 125.134 147.754  0.00  0.00    +0.000 A 
ATOM      3  C   UNL     1     104.146 125.275 147.760  0.00  0.00    +0.000 A 
ATOM      4  C   UNL     1     103.021 124.536 147.280  0.00  0.00    +0.000 A 
ATOM      5  C   UNL     1     104.648 124.817 147.290  0.00  0.00    +0.000 A 
ATOM      6  C   UNL     1     103.523 124.077 146.811  0.00  0.00    +0.000 A 
ATOM      7  C   UNL     1     102.209 124.395 147.274  0.00  0.00    +0.000 A 
ATOM      8  O   UNL     1     104.336 124.219 146.817  0.00  0.00    +0.000 OA
ATOM      9  C   UNL     1     103.212 123.479 146.337  0.00  0.00    +0.000 A 
ATOM     10  O   UNL     1     101.708 124.853 147.743  0.00  0.00    +0.000 OA
ATOM     11  C   UNL     1     101.897 123.796 146.800  0.00  0.00    +0.000 A 
ATOM     12  C   UNL     1     102.399 123.337 146.331  0.00  0.00    +0.000 A 
ATOM     13  C   UNL     1     103.713 123.021 145.868  0.00  0.00    +0.000 C 
ENDROOT
BRANCH   5  14
ATOM     14  C   UNL     1     105.461 124.958 147.297  0.00  0.00    +0.000 A 
ATOM     15  C   UNL     1     105.802 125.434 146.716  0.00  0.00    +0.000 A 
ATOM     16  C   UNL     1     105.933 124.624 147.885  0.00  0.00    +0.000 A 
ATOM     17  C   UNL     1     106.614 125.575 146.722  0.00  0.00    +0.000 A 
ATOM     18  C   UNL     1     106.745 124.764 147.892  0.00  0.00    +0.000 A 
ATOM     19  C   UNL     1     107.086 125.240 147.310  0.00  0.00    +0.000 A 
ATOM     20  O   UNL     1     107.899 125.381 147.317  0.00  0.00    +0.000 OA
ENDBRANCH   5  14
BRANCH   3  21
ATOM     21  O   UNL     1     104.458 125.874 148.234  0.00  0.00    +0.000 OA
ATOM     22  C   UNL     1     103.991 126.520 148.445  0.00  0.00    +0.000 C 
ENDBRANCH   3  21
BRANCH  11  23
ATOM     23  O   UNL     1     101.085 123.655 146.794  0.00  0.00    +0.000 OA
ATOM     24  C   UNL     1     100.738 123.218 147.402  0.00  0.00    +0.000 C 
ENDBRANCH  11  23
BRANCH  12  25
ATOM     25  O   UNL     1     102.087 122.739 145.857  0.00  0.00    +0.000 OA
ATOM     26  C   UNL     1     102.067 122.830 145.037  0.00  0.00    +0.000 C 
ENDBRANCH  12  25
TORSDOF 4
ENDMDL
MODEL 5
REMARK VINA RESULT:      -7.7     12.711     14.788
REMARK  Name = 
REMARK  4 active torsions:
REMARK  status: ('A' for Active; 'I' for Inactive)
REMARK    1  A    between atoms: C_3  and  O_5
REMARK    2  A    between atoms: C_6  and  C_11
REMARK    3  A    between atoms: C_14  and  O_19
REMARK    4  A    between atoms: C_17  and  O_22
REMARK                            x       y       z     vdW  Elec       q    Type
REMARK                         _______ _______ _______ _____ _____    ______ ____
ROOT
ATOM      1  O   UNL     1     111.285 127.975 135.664  0.00  0.00    +0.000 OA
ATOM      2  C   UNL     1     112.087 127.885 135.834  0.00  0.00    +0.000 A 
ATOM      3  C   UNL     1     112.606 128.514 135.716  0.00  0.00    +0.000 A 
ATOM      4  C   UNL     1     112.368 127.166 136.124  0.00  0.00    +0.000 A 
ATOM      5  C   UNL     1     113.410 128.424 135.887  0.00  0.00    +0.000 A 
ATOM      6  C   UNL     1     113.172 127.076 136.296  0.00  0.00    +0.000 A 
ATOM      7  C   UNL     1     111.849 126.537 136.243  0.00  0.00    +0.000 A 
ATOM      8  O   UNL     1     113.691 127.706 136.176  0.00  0.00    +0.000 OA
ATOM      9  C   UNL     1     113.453 126.357 136.585  0.00  0.00    +0.000 A 
ATOM     10  O   UNL     1     111.047 126.626 136.072  0.00  0.00    +0.000 OA
ATOM     11  C   UNL     1     112.131 125.817 136.533  0.00  0.00    +0.000 A 
ATOM     12  C   UNL     1     112.934 125.727 136.704  0.00  0.00    +0.000 A 
ATOM     13  C   UNL     1     114.255 126.268 136.756  0.00  0.00    +0.000 C 
ENDROOT
BRANCH   5  14
ATOM     14  C   UNL     1     113.929 129.054 135.767  0.00  0.00    +0.000 A 
ATOM     15  C   UNL     1     114.030 129.623 136.355  0.00  0.00    +0.000 A 
ATOM     16  C   UNL     1     114.348 129.115 135.059  0.00  0.00    +0.000 A 
ATOM     17  C   UNL     1     114.550 130.252 136.236  0.00  0.00    +0.000 A 
ATOM     18  C   UNL     1     114.867 129.744 134.938  0.00  0.00    +0.000 A 
ATOM     19  C   UNL     1     114.968 130.312 135.527  0.00  0.00    +0.000 A 
ATOM     20  O   UNL     1     115.488 130.942 135.407  0.00  0.00    +0.000 OA
ENDBRANCH   5  14
BRANCH   3  21
ATOM     21  O   UNL     1     112.325 129.234 135.426  0.00  0.00    +0.000 OA
ATOM     22  C   UNL     1     111.588 129.271 135.057  0.00  0.00    +0.000 C 
ENDBRANCH   3  21
BRANCH  11  23
ATOM     23  O   UNL     1     111.611 125.188 136.652  0.00  0.00    +0.000 OA
ATOM     24  C   UNL     1     111.136 125.168 137.327  0.00  0.00    +0.000 C 
ENDBRANCH  11  23
BRANCH  12  25
ATOM     25  O   UNL     1     113.215 125.009 136.994  0.00  0.00    +0.000 OA
ATOM     26  C   UNL     1     113.663 124.514 136.508  0.00  0.00    +0.000 C 
ENDBRANCH  12  25
TORSDOF 4
ENDMDL
MODEL 6
REMARK VINA RESULT:      -7.7     10.199     12.278
REMARK  Name = 
REMARK  4 active torsions:
REMARK  status: ('A' for Active; 'I' for Inactive)
REMARK    1  A    between atoms: C_3  and  O_5
REMARK    2  A    between atoms: C_6  and  C_11
REMARK    3  A    between atoms: C_14  and  O_19
REMARK    4  A    between atoms: C_17  and  O_22
REMARK                            x       y       z     vdW  Elec       q    Type
REMARK                         _______ _______ _______ _____ _____    ______ ____
ROOT
ATOM      1  O   UNL     1     111.040 125.693 138.330  0.00  0.00    +0.000 OA
ATOM      2  C   UNL     1     111.831 125.881 138.467  0.00  0.00    +0.000 A 
ATOM      3  C   UNL     1     112.406 125.674 137.914  0.00  0.00    +0.000 A 
ATOM      4  C   UNL     1     112.046 126.278 139.159  0.00  0.00    +0.000 A 
ATOM      5  C   UNL     1     113.198 125.864 138.052  0.00  0.00    +0.000 A 
ATOM      6  C   UNL     1     112.838 126.467 139.296  0.00  0.00    +0.000 A 
ATOM      7  C   UNL     1     111.471 126.485 139.712  0.00  0.00    +0.000 A 
ATOM      8  O   UNL     1     113.414 126.259 138.742  0.00  0.00    +0.000 OA
ATOM      9  C   UNL     1     113.054 126.863 139.986  0.00  0.00    +0.000 A 
ATOM     10  O   UNL     1     110.680 126.296 139.575  0.00  0.00    +0.000 OA
ATOM     11  C   UNL     1     111.686 126.881 140.403  0.00  0.00    +0.000 A 
ATOM     12  C   UNL     1     112.478 127.070 140.540  0.00  0.00    +0.000 A 
ATOM     13  C   UNL     1     113.845 127.052 140.124  0.00  0.00    +0.000 C 
ENDROOT
BRANCH   5  14
ATOM     14  C   UNL     1     113.773 125.656 137.498  0.00  0.00    +0.000 A 
ATOM     15  C   UNL     1     114.188 124.948 137.578  0.00  0.00    +0.000 A 
ATOM     16  C   UNL     1     113.934 126.158 136.863  0.00  0.00    +0.000 A 
ATOM     17  C   UNL     1     114.763 124.741 137.025  0.00  0.00    +0.000 A 
ATOM     18  C   UNL     1     114.508 125.951 136.308  0.00  0.00    +0.000 A 
ATOM     19  C   UNL     1     114.923 125.243 136.389  0.00  0.00    +0.000 A 
ATOM     20  O   UNL     1     115.498 125.036 135.835  0.00  0.00    +0.000 OA
ENDBRANCH   5  14
BRANCH   3  21
ATOM     21  O   UNL     1     112.191 125.278 137.223  0.00  0.00    +0.000 OA
ATOM     22  C   UNL     1     111.442 124.940 137.157  0.00  0.00    +0.000 C 
ENDBRANCH   3  21
BRANCH  11  23
ATOM     23  O   UNL     1     111.111 127.088 140.956  0.00  0.00    +0.000 OA
ATOM     24  C   UNL     1     110.717 126.501 141.381  0.00  0.00    +0.000 C 
ENDBRANCH  11  23
BRANCH  12  25
ATOM     25  O   UNL     1     112.694 127.466 141.231  0.00  0.00    +0.000 OA
ATOM     26  C   UNL     1     112.911 128.262 141.200  0.00  0.00    +0.000 C 
ENDBRANCH  12  25
TORSDOF 4
ENDMDL
MODEL 7
REMARK VINA RESULT:      -7.7     12.939     14.075
REMARK  Name = 
REMARK  4 active torsions:
REMARK  status: ('A' for Active; 'I' for Inactive)
REMARK    1  A    between atoms: C_3  and  O_5
REMARK    2  A    between atoms: C_6  and  C_11
REMARK    3  A    between atoms: C_14  and  O_19
REMARK    4  A    between atoms: C_17  and  O_22
REMARK                            x       y       z     vdW  Elec       q    Type
REMARK                         _______ _______ _______ _____ _____    ______ ____
ROOT
ATOM      1  O   UNL     1     112.458 128.516 135.831  0.00  0.00    +0.000 OA
ATOM      2  C   UNL     1     112.336 127.712 135.972  0.00  0.00    +0.000 A 
ATOM      3  C   UNL     1     112.938 127.255 136.300  0.00  0.00    +0.000 A 
ATOM      4  C   UNL     1     111.610 127.367 135.785  0.00  0.00    +0.000 A 
ATOM      5  C   UNL     1     112.816 126.451 136.441  0.00  0.00    +0.000 A 
ATOM      6  C   UNL     1     111.487 126.563 135.927  0.00  0.00    +0.000 A 
ATOM      7  C   UNL     1     111.007 127.824 135.457  0.00  0.00    +0.000 A 
ATOM      8  O   UNL     1     112.091 126.105 136.255  0.00  0.00    +0.000 OA
ATOM      9  C   UNL     1     110.762 126.217 135.740  0.00  0.00    +0.000 A 
ATOM     10  O   UNL     1     111.130 128.628 135.316  0.00  0.00    +0.000 OA
ATOM     11  C   UNL     1     110.281 127.479 135.270  0.00  0.00    +0.000 A 
ATOM     12  C   UNL     1     110.159 126.674 135.412  0.00  0.00    +0.000 A 
ATOM     13  C   UNL     1     110.640 125.414 135.882  0.00  0.00    +0.000 C 
ENDROOT
BRANCH   5  14
ATOM     14  C   UNL     1     113.419 125.993 136.770  0.00  0.00    +0.000 A 
ATOM     15  C   UNL     1     113.957 125.606 136.280  0.00  0.00    +0.000 A 
ATOM     16  C   UNL     1     113.484 125.924 137.589  0.00  0.00    +0.000 A 
ATOM     17  C   UNL     1     114.559 125.149 136.608  0.00  0.00    +0.000 A 
ATOM     18  C   UNL     1     114.087 125.468 137.919  0.00  0.00    +0.000 A 
ATOM     19  C   UNL     1     114.624 125.080 137.427  0.00  0.00    +0.000 A 
ATOM     20  O   UNL     1     115.228 124.623 137.757  0.00  0.00    +0.000 OA
ENDBRANCH   5  14
BRANCH   3  21
ATOM     21  O   UNL     1     113.664 127.600 136.487  0.00  0.00    +0.000 OA
ATOM     22  C   UNL     1     113.854 128.347 136.193  0.00  0.00    +0.000 C 
ENDBRANCH   3  21
BRANCH  11  23
ATOM     23  O   UNL     1     109.679 127.936 134.942  0.00  0.00    +0.000 OA
ATOM     24  C   UNL     1     109.238 128.443 135.422  0.00  0.00    +0.000 C 
ENDBRANCH  11  23
BRANCH  12  25
ATOM     25  O   UNL     1     109.434 126.329 135.225  0.00  0.00    +0.000 OA
ATOM     26  C   UNL     1     109.385 125.774 134.617  0.00  0.00    +0.000 C 
ENDBRANCH  12  25
TORSDOF 4
ENDMDL
MODEL 8
REMARK VINA RESULT:      -7.7     12.143     13.698
REMARK  Name = 
REMARK  4 active torsions:
REMARK  status: ('A' for Active; 'I' for Inactive)
REMARK    1  A    between atoms: C_3  and  O_5
REMARK    2  A    between atoms: C_6  and  C_11
REMARK    3  A    between atoms: C_14  and  O_19
REMARK    4  A    between atoms: C_17  and  O_22
REMARK                            x       y       z     vdW  Elec       q    Type
REMARK                         _______ _______ _______ _____ _____    ______ ____
ROOT
ATOM      1  O   UNL     1     110.393 127.009 134.891  0.00  0.00    +0.000 OA
ATOM      2  C   UNL     1     111.027 126.819 135.384  0.00  0.00    +0.000 A 
ATOM      3  C   UNL     1     111.098 126.057 135.689  0.00  0.00    +0.000 A 
ATOM      4  C   UNL     1     111.588 127.394 135.573  0.00  0.00    +0.000 A 
ATOM      5  C   UNL     1     111.732 125.867 136.183  0.00  0.00    +0.000 A 
ATOM      6  C   UNL     1     112.223 127.204 136.067  0.00  0.00    +0.000 A 
ATOM      7  C   UNL     1     111.517 128.156 135.268  0.00  0.00    +0.000 A 
ATOM      8  O   UNL     1     112.293 126.440 136.371  0.00  0.00    +0.000 OA
ATOM      9  C   UNL     1     112.784 127.777 136.255  0.00  0.00    +0.000 A 
ATOM     10  O   UNL     1     110.884 128.346 134.775  0.00  0.00    +0.000 OA
ATOM     11  C   UNL     1     112.079 128.731 135.456  0.00  0.00    +0.000 A 
ATOM     12  C   UNL     1     112.713 128.541 135.951  0.00  0.00    +0.000 A 
ATOM     13  C   UNL     1     113.418 127.588 136.749  0.00  0.00    +0.000 C 
ENDROOT
BRANCH   5  14
ATOM     14  C   UNL     1     111.803 125.103 136.488  0.00  0.00    +0.000 A 
ATOM     15  C   UNL     1     112.201 124.523 136.059  0.00  0.00    +0.000 A 
ATOM     16  C   UNL     1     111.474 124.921 137.222  0.00  0.00    +0.000 A 
ATOM     17  C   UNL     1     112.272 123.760 136.364  0.00  0.00    +0.000 A 
ATOM     18  C   UNL     1     111.544 124.158 137.528  0.00  0.00    +0.000 A 
ATOM     19  C   UNL     1     111.943 123.578 137.098  0.00  0.00    +0.000 A 
ATOM     20  O   UNL     1     112.013 122.814 137.404  0.00  0.00    +0.000 OA
ENDBRANCH   5  14
BRANCH   3  21
ATOM     21  O   UNL     1     110.536 125.482 135.501  0.00  0.00    +0.000 OA
ATOM     22  C   UNL     1     109.944 125.648 134.951  0.00  0.00    +0.000 C 
ENDBRANCH   3  21
BRANCH  11  23
ATOM     23  O   UNL     1     112.008 129.493 135.152  0.00  0.00    +0.000 OA
ATOM     24  C   UNL     1     111.429 130.002 135.446  0.00  0.00    +0.000 C 
ENDBRANCH  11  23
BRANCH  12  25
ATOM     25  O   UNL     1     113.275 129.114 136.139  0.00  0.00    +0.000 OA
ATOM     26  C   UNL     1     114.026 129.085 135.798  0.00  0.00    +0.000 C 
ENDBRANCH  12  25
TORSDOF 4
ENDMDL
MODEL 9
REMARK VINA RESULT:      -7.6     13.008     14.023
REMARK  Name = 
REMARK  4 active torsions:
REMARK  status: ('A' for Active; 'I' for Inactive)
REMARK    1  A    between atoms: C_3  and  O_5
REMARK    2  A    between atoms: C_6  and  C_11
REMARK    3  A    between atoms: C_14  and  O_19
REMARK    4  A    between atoms: C_17  and  O_22
REMARK                            x       y       z     vdW  Elec       q    Type
REMARK                         _______ _______ _______ _____ _____    ______ ____
ROOT
ATOM      1  O   UNL     1     110.745 126.419 135.869  0.00  0.00    +0.000 OA
ATOM      2  C   UNL     1     111.479 126.729 136.084  0.00  0.00    +0.000 A 
ATOM      3  C   UNL     1     112.078 126.225 136.342  0.00  0.00    +0.000 A 
ATOM      4  C   UNL     1     111.612 127.542 136.039  0.00  0.00    +0.000 A 
ATOM      5  C   UNL     1     112.813 126.535 136.557  0.00  0.00    +0.000 A 
ATOM      6  C   UNL     1     112.347 127.851 136.253  0.00  0.00    +0.000 A 
ATOM      7  C   UNL     1     111.013 128.045 135.780  0.00  0.00    +0.000 A 
ATOM      8  O   UNL     1     112.947 127.347 136.512  0.00  0.00    +0.000 OA
ATOM      9  C   UNL     1     112.481 128.663 136.209  0.00  0.00    +0.000 A 
ATOM     10  O   UNL     1     110.279 127.736 135.566  0.00  0.00    +0.000 OA
ATOM     11  C   UNL     1     111.147 128.858 135.735  0.00  0.00    +0.000 A 
ATOM     12  C   UNL     1     111.882 129.168 135.950  0.00  0.00    +0.000 A 
ATOM     13  C   UNL     1     113.216 128.973 136.423  0.00  0.00    +0.000 C 
ENDROOT
BRANCH   5  14
ATOM     14  C   UNL     1     113.413 126.031 136.816  0.00  0.00    +0.000 A 
ATOM     15  C   UNL     1     113.938 125.701 136.273  0.00  0.00    +0.000 A 
ATOM     16  C   UNL     1     113.486 125.856 137.619  0.00  0.00    +0.000 A 
ATOM     17  C   UNL     1     114.537 125.197 136.532  0.00  0.00    +0.000 A 
ATOM     18  C   UNL     1     114.086 125.352 137.879  0.00  0.00    +0.000 A 
ATOM     19  C   UNL     1     114.611 125.023 137.335  0.00  0.00    +0.000 A 
ATOM     20  O   UNL     1     115.211 124.518 137.595  0.00  0.00    +0.000 OA
ENDBRANCH   5  14
BRANCH   3  21
ATOM     21  O   UNL     1     111.945 125.412 136.387  0.00  0.00    +0.000 OA
ATOM     22  C   UNL     1     111.258 125.088 136.066  0.00  0.00    +0.000 C 
ENDBRANCH   3  21
BRANCH  11  23
ATOM     23  O   UNL     1     110.547 129.361 135.477  0.00  0.00    +0.000 OA
ATOM     24  C   UNL     1     110.351 129.391 134.676  0.00  0.00    +0.000 C 
ENDBRANCH  11  23
BRANCH  12  25
ATOM     25  O   UNL     1     112.016 129.980 135.905  0.00  0.00    +0.000 OA
ATOM     26  C   UNL     1     112.073 130.428 136.596  0.00  0.00    +0.000 C 
ENDBRANCH  12  25
TORSDOF 4
ENDMDL
MODEL 10
REMARK VINA RESULT:      -7.5      1.303      2.174
REMARK  Name = 
REMARK  4 active torsions:
REMARK  status: ('A' for Active; 'I' for Inactive)
REMARK    1  A    between atoms: C_3  and  O_5
REMARK    2  A    between atoms: C_6  and  C_11
REMARK    3  A    between atoms: C_14  and  O_19
REMARK    4  A    between atoms: C_17  and  O_22
REMARK                            x       y       z     vdW  Elec       q    Type
REMARK                         _______ _______ _______ _____ _____    ______ ____
ROOT
ATOM      1  O   UNL     1     103.484 123.182 145.350  0.00  0.00    +0.000 OA
ATOM      2  C   UNL     1     103.573 123.681 146.001  0.00  0.00    +0.000 A 
ATOM      3  C   UNL     1     102.984 123.716 146.576  0.00  0.00    +0.000 A 
ATOM      4  C   UNL     1     104.252 124.144 146.075  0.00  0.00    +0.000 A 
ATOM      5  C   UNL     1     103.073 124.216 147.228  0.00  0.00    +0.000 A 
ATOM      6  C   UNL     1     104.341 124.643 146.727  0.00  0.00    +0.000 A 
ATOM      7  C   UNL     1     104.841 124.108 145.500  0.00  0.00    +0.000 A 
ATOM      8  O   UNL     1     103.751 124.679 147.303  0.00  0.00    +0.000 OA
ATOM      9  C   UNL     1     105.019 125.106 146.802  0.00  0.00    +0.000 A 
ATOM     10  O   UNL     1     104.752 123.609 144.849  0.00  0.00    +0.000 OA
ATOM     11  C   UNL     1     105.520 124.571 145.574  0.00  0.00    +0.000 A 
ATOM     12  C   UNL     1     105.609 125.071 146.226  0.00  0.00    +0.000 A 
ATOM     13  C   UNL     1     105.108 125.605 147.452  0.00  0.00    +0.000 C 
ENDROOT
BRANCH   5  14
ATOM     14  C   UNL     1     102.483 124.252 147.804  0.00  0.00    +0.000 A 
ATOM     15  C   UNL     1     102.505 123.741 148.450  0.00  0.00    +0.000 A 
ATOM     16  C   UNL     1     101.870 124.799 147.732  0.00  0.00    +0.000 A 
ATOM     17  C   UNL     1     101.915 123.776 149.025  0.00  0.00    +0.000 A 
ATOM     18  C   UNL     1     101.279 124.835 148.307  0.00  0.00    +0.000 A 
ATOM     19  C   UNL     1     101.302 124.324 148.953  0.00  0.00    +0.000 A 
ATOM     20  O   UNL     1     100.711 124.360 149.529  0.00  0.00    +0.000 OA
ENDBRANCH   5  14
BRANCH   3  21
ATOM     21  O   UNL     1     102.305 123.253 146.502  0.00  0.00    +0.000 OA
ATOM     22  C   UNL     1     102.174 122.820 145.813  0.00  0.00    +0.000 C 
ENDBRANCH   3  21
BRANCH  11  23
ATOM     23  O   UNL     1     106.109 124.535 144.999  0.00  0.00    +0.000 OA
ATOM     24  C   UNL     1     105.962 124.821 144.239  0.00  0.00    +0.000 C 
ENDBRANCH  11  23
BRANCH  12  25
ATOM     25  O   UNL     1     106.287 125.534 146.301  0.00  0.00    +0.000 OA
ATOM     26  C   UNL     1     106.862 125.338 146.860  0.00  0.00    +0.000 C 
ENDBRANCH  12  25
TORSDOF 4
ENDMDL
