MODEL 1
REMARK VINA RESULT:     -10.8      0.000      0.000
REMARK  Name = 131836071
REMARK  10 active torsions:
REMARK  status: ('A' for Active; 'I' for Inactive)
REMARK    1  A    between atoms: O_2  and  C_17
REMARK    2  A    between atoms: O_2  and  C_19
REMARK    3  A    between atoms: C_18  and  C_23
REMARK    4  A    between atoms: C_22  and  C_31
REMARK    5  A    between atoms: C_30  and  C_34
REMARK    6  A    between atoms: C_33  and  C_35
REMARK    7  A    between atoms: C_34  and  C_36
REMARK    8  A    between atoms: C_37  and  C_40
REMARK    9  A    between atoms: C_40  and  C_41
REMARK   10  A    between atoms: C_41  and  C_46
REMARK                            x       y       z     vdW  Elec       q    Type
REMARK                         _______ _______ _______ _____ _____    ______ ____
ROOT
ATOM      1  O   UNL     1     110.199 131.776 136.400  0.00  0.00    +0.000 OA
ATOM      2  O   UNL     1     110.109 128.891 136.086  0.00  0.00    +0.000 OA
ATOM      3  O   UNL     1     111.298 128.620 138.305  0.00  0.00    +0.000 OA
ATOM      4  C   UNL     1     110.942 130.148 137.714  0.00  0.00    +0.000 A 
ATOM      5  C   UNL     1     110.770 130.903 137.429  0.00  0.00    +0.000 A 
ATOM      6  C   UNL     1     110.726 129.483 137.275  0.00  0.00    +0.000 A 
ATOM      7  C   UNL     1     110.421 132.472 136.853  0.00  0.00    +0.000 C 
ATOM      8  C   UNL     1     110.383 130.994 136.707  0.00  0.00    +0.000 A 
ATOM      9  C   UNL     1     110.339 129.574 136.552  0.00  0.00    +0.000 A 
ATOM     10  C   UNL     1     111.000 131.588 137.896  0.00  0.00    +0.000 C 
ATOM     11  C   UNL     1     110.824 132.377 137.605  0.00  0.00    +0.000 C 
ATOM     12  C   UNL     1     110.167 130.330 136.268  0.00  0.00    +0.000 A 
ATOM     13  C   UNL     1     110.910 128.703 137.581  0.00  0.00    +0.000 A 
ATOM     14  C   UNL     1     110.688 128.006 137.128  0.00  0.00    +0.000 A 
ATOM     15  C   UNL     1     110.445 133.292 136.940  0.00  0.00    +0.000 C 
ATOM     16  C   UNL     1     110.285 128.101 136.376  0.00  0.00    +0.000 A 
ENDROOT
BRANCH  16  19
ATOM     17  O   UNL     1     108.748 127.509 136.478  0.00  0.00    +0.000 OA
ATOM     18  O   UNL     1     109.418 125.450 134.612  0.00  0.00    +0.000 OA
ATOM     19  C   UNL     1     110.068 127.438 135.935  0.00  0.00    +0.000 A 
ATOM     20  C   UNL     1     109.299 127.142 135.986  0.00  0.00    +0.000 A 
ATOM     21  C   UNL     1     110.620 127.072 135.443  0.00  0.00    +0.000 A 
ATOM     22  C   UNL     1     109.083 126.479 135.545  0.00  0.00    +0.000 A 
ATOM     23  C   UNL     1     110.403 126.410 135.002  0.00  0.00    +0.000 A 
ATOM     24  C   UNL     1     109.635 126.113 135.053  0.00  0.00    +0.000 A 
ENDBRANCH  16  19
BRANCH   7  26
ATOM     25  O   UNL     1     110.377 133.728 136.174  0.00  0.00    +0.000 OA
ATOM     26  C   UNL     1     110.098 132.958 136.270  0.00  0.00    +0.000 C 
ENDBRANCH   7  26
BRANCH   4  27
ATOM     27  O   UNL     1     111.329 130.057 138.437  0.00  0.00    +0.000 OA
BRANCH  27  35
ATOM     28  O   UNL     1     112.607 130.141 137.802  0.00  0.00    +0.000 OA
ATOM     29  O   UNL     1     113.668 130.574 139.995  0.00  0.00    +0.000 OA
ATOM     30  O   UNL     1     112.037 130.346 139.899  0.00  0.00    +0.000 OA
ATOM     31  O   UNL     1     114.591 130.514 138.629  0.00  0.00    +0.000 OA
ATOM     32  C   UNL     1     113.315 130.430 139.264  0.00  0.00    +0.000 C 
ATOM     33  C   UNL     1     112.498 130.316 139.216  0.00  0.00    +0.000 C 
ATOM     34  C   UNL     1     113.776 130.400 138.581  0.00  0.00    +0.000 C 
ATOM     35  C   UNL     1     112.144 130.171 138.484  0.00  0.00    +0.000 C 
ATOM     36  C   UNL     1     113.422 130.255 137.850  0.00  0.00    +0.000 C 
BRANCH  36  39
ATOM     37  O   UNL     1     114.143 129.498 136.875  0.00  0.00    +0.000 OA
ATOM     38  O   UNL     1     114.086 130.922 136.776  0.00  0.00    +0.000 OA
ATOM     39  C   UNL     1     113.883 130.225 137.167  0.00  0.00    +0.000 C 
ENDBRANCH  36  39
ENDBRANCH  27  35
ENDBRANCH   4  27
BRANCH  14  40
ATOM     40  C   UNL     1     110.861 127.252 137.415  0.00  0.00    +0.000 C 
BRANCH  40  41
ATOM     41  C   UNL     1     111.644 127.036 137.561  0.00  0.00    +0.000 C 
ATOM     42  C   UNL     1     111.809 126.384 138.040  0.00  0.00    +0.000 C 
ATOM     43  C   UNL     1     111.191 125.949 138.372  0.00  0.00    +0.000 C 
BRANCH  42  44
ATOM     44  C   UNL     1     112.591 126.167 138.186  0.00  0.00    +0.000 C 
BRANCH  44  45
ATOM     45  C   UNL     1     112.947 125.577 137.733  0.00  0.00    +0.000 C 
BRANCH  45  46
ATOM     46  C   UNL     1     113.770 125.520 137.703  0.00  0.00    +0.000 C 
ATOM     47  C   UNL     1     114.125 124.907 137.280  0.00  0.00    +0.000 C 
ATOM     48  C   UNL     1     114.948 124.849 137.250  0.00  0.00    +0.000 C 
ATOM     49  C   UNL     1     113.659 124.351 136.888  0.00  0.00    +0.000 C 
ENDBRANCH  45  46
ENDBRANCH  44  45
ENDBRANCH  42  44
ENDBRANCH  40  41
ENDBRANCH  14  40
TORSDOF 10
ENDMDL
MODEL 2
REMARK VINA RESULT:     -10.5      1.894      3.685
REMARK  Name = 131836071
REMARK  10 active torsions:
REMARK  status: ('A' for Active; 'I' for Inactive)
REMARK    1  A    between atoms: O_2  and  C_17
REMARK    2  A    between atoms: O_2  and  C_19
REMARK    3  A    between atoms: C_18  and  C_23
REMARK    4  A    between atoms: C_22  and  C_31
REMARK    5  A    between atoms: C_30  and  C_34
REMARK    6  A    between atoms: C_33  and  C_35
REMARK    7  A    between atoms: C_34  and  C_36
REMARK    8  A    between atoms: C_37  and  C_40
REMARK    9  A    between atoms: C_40  and  C_41
REMARK   10  A    between atoms: C_41  and  C_46
REMARK                            x       y       z     vdW  Elec       q    Type
REMARK                         _______ _______ _______ _____ _____    ______ ____
ROOT
ATOM      1  O   UNL     1     114.583 129.428 135.405  0.00  0.00    +0.000 OA
ATOM      2  O   UNL     1     113.228 127.024 136.308  0.00  0.00    +0.000 OA
ATOM      3  O   UNL     1     112.422 128.262 138.364  0.00  0.00    +0.000 OA
ATOM      4  C   UNL     1     113.368 129.042 137.222  0.00  0.00    +0.000 A 
ATOM      5  C   UNL     1     113.833 129.432 136.664  0.00  0.00    +0.000 A 
ATOM      6  C   UNL     1     113.167 128.249 137.108  0.00  0.00    +0.000 A 
ATOM      7  C   UNL     1     114.796 130.253 135.517  0.00  0.00    +0.000 C 
ATOM      8  C   UNL     1     114.098 129.031 135.993  0.00  0.00    +0.000 A 
ATOM      9  C   UNL     1     113.431 127.848 136.438  0.00  0.00    +0.000 A 
ATOM     10  C   UNL     1     114.037 130.258 136.793  0.00  0.00    +0.000 C 
ATOM     11  C   UNL     1     114.521 130.670 136.215  0.00  0.00    +0.000 C 
ATOM     12  C   UNL     1     113.896 128.240 135.880  0.00  0.00    +0.000 A 
ATOM     13  C   UNL     1     112.682 127.854 137.696  0.00  0.00    +0.000 A 
ATOM     14  C   UNL     1     112.469 127.028 137.584  0.00  0.00    +0.000 A 
ATOM     15  C   UNL     1     115.182 130.934 135.258  0.00  0.00    +0.000 C 
ATOM     16  C   UNL     1     112.744 126.611 136.886  0.00  0.00    +0.000 A 
ENDROOT
BRANCH  16  19
ATOM     17  O   UNL     1     111.467 126.214 135.918  0.00  0.00    +0.000 OA
ATOM     18  O   UNL     1     111.946 123.442 136.424  0.00  0.00    +0.000 OA
ATOM     19  C   UNL     1     112.544 125.819 136.770  0.00  0.00    +0.000 A 
ATOM     20  C   UNL     1     111.906 125.620 136.286  0.00  0.00    +0.000 A 
ATOM     21  C   UNL     1     112.983 125.225 137.139  0.00  0.00    +0.000 A 
ATOM     22  C   UNL     1     111.706 124.828 136.171  0.00  0.00    +0.000 A 
ATOM     23  C   UNL     1     112.783 124.433 137.023  0.00  0.00    +0.000 A 
ATOM     24  C   UNL     1     112.145 124.234 136.540  0.00  0.00    +0.000 A 
ENDBRANCH  16  19
BRANCH   7  26
ATOM     25  O   UNL     1     115.710 130.876 134.612  0.00  0.00    +0.000 OA
ATOM     26  C   UNL     1     115.216 130.244 134.807  0.00  0.00    +0.000 C 
ENDBRANCH   7  26
BRANCH   4  27
ATOM     27  O   UNL     1     113.104 129.443 137.892  0.00  0.00    +0.000 OA
BRANCH  27  35
ATOM     28  O   UNL     1     111.919 129.847 137.204  0.00  0.00    +0.000 OA
ATOM     29  O   UNL     1     111.385 131.416 139.041  0.00  0.00    +0.000 OA
ATOM     30  O   UNL     1     112.748 130.489 139.118  0.00  0.00    +0.000 OA
ATOM     31  O   UNL     1     110.379 131.297 137.740  0.00  0.00    +0.000 OA
ATOM     32  C   UNL     1     111.563 130.893 138.429  0.00  0.00    +0.000 C 
ATOM     33  C   UNL     1     112.245 130.429 138.467  0.00  0.00    +0.000 C 
ATOM     34  C   UNL     1     111.060 130.833 137.778  0.00  0.00    +0.000 C 
ATOM     35  C   UNL     1     112.423 129.906 137.854  0.00  0.00    +0.000 C 
ATOM     36  C   UNL     1     111.238 130.310 137.165  0.00  0.00    +0.000 C 
BRANCH  36  39
ATOM     37  O   UNL     1     110.837 130.750 135.866  0.00  0.00    +0.000 OA
ATOM     38  O   UNL     1     110.128 129.691 136.513  0.00  0.00    +0.000 OA
ATOM     39  C   UNL     1     110.735 130.250 136.515  0.00  0.00    +0.000 C 
ENDBRANCH  36  39
ENDBRANCH  27  35
ENDBRANCH   4  27
BRANCH  14  40
ATOM     40  C   UNL     1     112.003 126.640 138.144  0.00  0.00    +0.000 C 
BRANCH  40  41
ATOM     41  C   UNL     1     112.160 126.735 138.949  0.00  0.00    +0.000 C 
ATOM     42  C   UNL     1     111.583 126.543 139.506  0.00  0.00    +0.000 C 
ATOM     43  C   UNL     1     110.850 126.256 139.260  0.00  0.00    +0.000 C 
BRANCH  42  44
ATOM     44  C   UNL     1     111.740 126.637 140.311  0.00  0.00    +0.000 C 
BRANCH  44  45
ATOM     45  C   UNL     1     111.370 127.240 140.735  0.00  0.00    +0.000 C 
BRANCH  45  46
ATOM     46  C   UNL     1     111.593 127.393 141.515  0.00  0.00    +0.000 C 
ATOM     47  C   UNL     1     111.321 128.072 141.895  0.00  0.00    +0.000 C 
ATOM     48  C   UNL     1     111.544 128.225 142.675  0.00  0.00    +0.000 C 
ATOM     49  C   UNL     1     110.827 128.599 141.498  0.00  0.00    +0.000 C 
ENDBRANCH  45  46
ENDBRANCH  44  45
ENDBRANCH  42  44
ENDBRANCH  40  41
ENDBRANCH  14  40
TORSDOF 10
ENDMDL
MODEL 3
REMARK VINA RESULT:     -10.4      8.369     10.261
REMARK  Name = 131836071
REMARK  10 active torsions:
REMARK  status: ('A' for Active; 'I' for Inactive)
REMARK    1  A    between atoms: O_2  and  C_17
REMARK    2  A    between atoms: O_2  and  C_19
REMARK    3  A    between atoms: C_18  and  C_23
REMARK    4  A    between atoms: C_22  and  C_31
REMARK    5  A    between atoms: C_30  and  C_34
REMARK    6  A    between atoms: C_33  and  C_35
REMARK    7  A    between atoms: C_34  and  C_36
REMARK    8  A    between atoms: C_37  and  C_40
REMARK    9  A    between atoms: C_40  and  C_41
REMARK   10  A    between atoms: C_41  and  C_46
REMARK                            x       y       z     vdW  Elec       q    Type
REMARK                         _______ _______ _______ _____ _____    ______ ____
ROOT
ATOM      1  O   UNL     1     106.386 125.116 146.615  0.00  0.00    +0.000 OA
ATOM      2  O   UNL     1     106.314 125.626 143.758  0.00  0.00    +0.000 OA
ATOM      3  O   UNL     1     105.359 127.929 144.202  0.00  0.00    +0.000 OA
ATOM      4  C   UNL     1     105.717 126.899 145.475  0.00  0.00    +0.000 A 
ATOM      5  C   UNL     1     105.890 126.398 146.107  0.00  0.00    +0.000 A 
ATOM      6  C   UNL     1     105.855 126.649 144.701  0.00  0.00    +0.000 A 
ATOM      7  C   UNL     1     106.245 125.370 147.424  0.00  0.00    +0.000 C 
ATOM      8  C   UNL     1     106.202 125.647 145.965  0.00  0.00    +0.000 A 
ATOM      9  C   UNL     1     106.166 125.898 144.559  0.00  0.00    +0.000 A 
ATOM     10  C   UNL     1     105.743 126.669 146.909  0.00  0.00    +0.000 C 
ATOM     11  C   UNL     1     105.921 126.152 147.571  0.00  0.00    +0.000 C 
ATOM     12  C   UNL     1     106.339 125.397 145.191  0.00  0.00    +0.000 A 
ATOM     13  C   UNL     1     105.670 127.179 144.051  0.00  0.00    +0.000 A 
ATOM     14  C   UNL     1     105.811 126.925 143.242  0.00  0.00    +0.000 A 
ATOM     15  C   UNL     1     106.267 125.223 148.235  0.00  0.00    +0.000 C 
ATOM     16  C   UNL     1     106.135 126.143 143.094  0.00  0.00    +0.000 A 
ENDROOT
BRANCH  16  19
ATOM     17  O   UNL     1     107.656 126.225 142.460  0.00  0.00    +0.000 OA
ATOM     18  O   UNL     1     106.688 125.133 140.002  0.00  0.00    +0.000 OA
ATOM     19  C   UNL     1     106.274 125.891 142.321  0.00  0.00    +0.000 A 
ATOM     20  C   UNL     1     107.034 125.932 142.004  0.00  0.00    +0.000 A 
ATOM     21  C   UNL     1     105.651 125.597 141.866  0.00  0.00    +0.000 A 
ATOM     22  C   UNL     1     107.172 125.679 141.230  0.00  0.00    +0.000 A 
ATOM     23  C   UNL     1     105.790 125.345 141.093  0.00  0.00    +0.000 A 
ATOM     24  C   UNL     1     106.550 125.385 140.775  0.00  0.00    +0.000 A 
ENDBRANCH  16  19
BRANCH   7  26
ATOM     25  O   UNL     1     106.546 124.499 148.515  0.00  0.00    +0.000 OA
ATOM     26  C   UNL     1     106.525 124.647 147.704  0.00  0.00    +0.000 C 
ENDBRANCH   7  26
BRANCH   4  27
ATOM     27  O   UNL     1     105.406 127.650 145.617  0.00  0.00    +0.000 OA
BRANCH  27  35
ATOM     28  O   UNL     1     106.720 128.209 145.647  0.00  0.00    +0.000 OA
ATOM     29  O   UNL     1     105.804 130.313 146.574  0.00  0.00    +0.000 OA
ATOM     30  O   UNL     1     104.795 129.052 146.235  0.00  0.00    +0.000 OA
ATOM     31  O   UNL     1     107.423 130.170 146.295  0.00  0.00    +0.000 OA
ATOM     32  C   UNL     1     106.110 129.612 146.265  0.00  0.00    +0.000 C 
ATOM     33  C   UNL     1     105.605 128.981 146.095  0.00  0.00    +0.000 C 
ATOM     34  C   UNL     1     106.919 129.540 146.125  0.00  0.00    +0.000 C 
ATOM     35  C   UNL     1     105.910 128.279 145.786  0.00  0.00    +0.000 C 
ATOM     36  C   UNL     1     107.225 128.839 145.816  0.00  0.00    +0.000 C 
BRANCH  36  39
ATOM     37  O   UNL     1     108.530 128.465 146.263  0.00  0.00    +0.000 OA
ATOM     38  O   UNL     1     108.349 129.000 144.951  0.00  0.00    +0.000 OA
ATOM     39  C   UNL     1     108.034 128.768 145.677  0.00  0.00    +0.000 C 
ENDBRANCH  36  39
ENDBRANCH  27  35
ENDBRANCH   4  27
BRANCH  14  40
ATOM     40  C   UNL     1     105.636 127.429 142.612  0.00  0.00    +0.000 C 
BRANCH  40  41
ATOM     41  C   UNL     1     104.918 127.835 142.595  0.00  0.00    +0.000 C 
ATOM     42  C   UNL     1     104.846 128.525 142.149  0.00  0.00    +0.000 C 
ATOM     43  C   UNL     1     105.491 128.808 141.720  0.00  0.00    +0.000 C 
BRANCH  42  44
ATOM     44  C   UNL     1     104.128 128.931 142.132  0.00  0.00    +0.000 C 
BRANCH  44  45
ATOM     45  C   UNL     1     103.750 129.071 141.412  0.00  0.00    +0.000 C 
BRANCH  45  46
ATOM     46  C   UNL     1     103.156 129.641 141.362  0.00  0.00    +0.000 C 
ATOM     47  C   UNL     1     102.635 129.638 140.722  0.00  0.00    +0.000 C 
ATOM     48  C   UNL     1     102.041 130.208 140.672  0.00  0.00    +0.000 C 
ATOM     49  C   UNL     1     102.707 129.066 140.133  0.00  0.00    +0.000 C 
ENDBRANCH  45  46
ENDBRANCH  44  45
ENDBRANCH  42  44
ENDBRANCH  40  41
ENDBRANCH  14  40
TORSDOF 10
ENDMDL
MODEL 4
REMARK VINA RESULT:     -10.3      2.042      3.455
REMARK  Name = 131836071
REMARK  10 active torsions:
REMARK  status: ('A' for Active; 'I' for Inactive)
REMARK    1  A    between atoms: O_2  and  C_17
REMARK    2  A    between atoms: O_2  and  C_19
REMARK    3  A    between atoms: C_18  and  C_23
REMARK    4  A    between atoms: C_22  and  C_31
REMARK    5  A    between atoms: C_30  and  C_34
REMARK    6  A    between atoms: C_33  and  C_35
REMARK    7  A    between atoms: C_34  and  C_36
REMARK    8  A    between atoms: C_37  and  C_40
REMARK    9  A    between atoms: C_40  and  C_41
REMARK   10  A    between atoms: C_41  and  C_46
REMARK                            x       y       z     vdW  Elec       q    Type
REMARK                         _______ _______ _______ _____ _____    ______ ____
ROOT
ATOM      1  O   UNL     1     109.232 131.328 135.499  0.00  0.00    +0.000 OA
ATOM      2  O   UNL     1     111.948 130.332 135.747  0.00  0.00    +0.000 OA
ATOM      3  O   UNL     1     111.215 128.835 137.653  0.00  0.00    +0.000 OA
ATOM      4  C   UNL     1     110.110 129.835 136.887  0.00  0.00    +0.000 A 
ATOM      5  C   UNL     1     109.560 130.325 136.515  0.00  0.00    +0.000 A 
ATOM      6  C   UNL     1     110.897 129.835 136.637  0.00  0.00    +0.000 A 
ATOM      7  C   UNL     1     108.412 131.333 135.755  0.00  0.00    +0.000 C 
ATOM      8  C   UNL     1     109.796 130.814 135.894  0.00  0.00    +0.000 A 
ATOM      9  C   UNL     1     111.133 130.323 136.016  0.00  0.00    +0.000 A 
ATOM     10  C   UNL     1     108.743 130.317 136.785  0.00  0.00    +0.000 C 
ATOM     11  C   UNL     1     108.166 130.825 136.402  0.00  0.00    +0.000 C 
ATOM     12  C   UNL     1     110.582 130.813 135.645  0.00  0.00    +0.000 A 
ATOM     13  C   UNL     1     111.460 129.320 137.032  0.00  0.00    +0.000 A 
ATOM     14  C   UNL     1     112.281 129.315 136.777  0.00  0.00    +0.000 A 
ATOM     15  C   UNL     1     107.641 131.618 135.682  0.00  0.00    +0.000 C 
ATOM     16  C   UNL     1     112.526 129.824 136.130  0.00  0.00    +0.000 A 
ENDROOT
BRANCH  16  19
ATOM     17  O   UNL     1     113.570 130.973 136.689  0.00  0.00    +0.000 OA
ATOM     18  O   UNL     1     115.668 129.827 135.123  0.00  0.00    +0.000 OA
ATOM     19  C   UNL     1     113.312 129.825 135.878  0.00  0.00    +0.000 A 
ATOM     20  C   UNL     1     113.834 130.400 136.158  0.00  0.00    +0.000 A 
ATOM     21  C   UNL     1     113.575 129.251 135.347  0.00  0.00    +0.000 A 
ATOM     22  C   UNL     1     114.620 130.400 135.905  0.00  0.00    +0.000 A 
ATOM     23  C   UNL     1     114.361 129.252 135.096  0.00  0.00    +0.000 A 
ATOM     24  C   UNL     1     114.883 129.826 135.374  0.00  0.00    +0.000 A 
ENDBRANCH  16  19
BRANCH   7  26
ATOM     25  O   UNL     1     107.449 132.027 134.958  0.00  0.00    +0.000 OA
ATOM     26  C   UNL     1     108.233 131.898 135.181  0.00  0.00    +0.000 C 
ENDBRANCH   7  26
BRANCH   4  27
ATOM     27  O   UNL     1     109.874 129.346 137.509  0.00  0.00    +0.000 OA
BRANCH  27  35
ATOM     28  O   UNL     1     110.148 130.383 138.453  0.00  0.00    +0.000 OA
ATOM     29  O   UNL     1     108.971 129.097 140.209  0.00  0.00    +0.000 OA
ATOM     30  O   UNL     1     109.089 128.489 138.679  0.00  0.00    +0.000 OA
ATOM     31  O   UNL     1     109.638 130.562 140.567  0.00  0.00    +0.000 OA
ATOM     32  C   UNL     1     109.363 129.526 139.623  0.00  0.00    +0.000 C 
ATOM     33  C   UNL     1     109.422 129.221 138.858  0.00  0.00    +0.000 C 
ATOM     34  C   UNL     1     109.697 130.259 139.802  0.00  0.00    +0.000 C 
ATOM     35  C   UNL     1     109.815 129.650 138.273  0.00  0.00    +0.000 C 
ATOM     36  C   UNL     1     110.089 130.687 139.217  0.00  0.00    +0.000 C 
BRANCH  36  39
ATOM     37  O   UNL     1     109.976 132.109 139.313  0.00  0.00    +0.000 OA
ATOM     38  O   UNL     1     111.203 131.464 139.659  0.00  0.00    +0.000 OA
ATOM     39  C   UNL     1     110.422 131.420 139.396  0.00  0.00    +0.000 C 
ENDBRANCH  36  39
ENDBRANCH  27  35
ENDBRANCH   4  27
BRANCH  14  40
ATOM     40  C   UNL     1     112.829 128.824 137.151  0.00  0.00    +0.000 C 
BRANCH  40  41
ATOM     41  C   UNL     1     112.685 128.013 137.206  0.00  0.00    +0.000 C 
ATOM     42  C   UNL     1     113.072 127.565 137.781  0.00  0.00    +0.000 C 
ATOM     43  C   UNL     1     113.600 127.928 138.300  0.00  0.00    +0.000 C 
BRANCH  42  44
ATOM     44  C   UNL     1     112.929 126.754 137.837  0.00  0.00    +0.000 C 
BRANCH  44  45
ATOM     45  C   UNL     1     113.486 126.217 137.551  0.00  0.00    +0.000 C 
BRANCH  45  46
ATOM     46  C   UNL     1     113.271 125.432 137.416  0.00  0.00    +0.000 C 
ATOM     47  C   UNL     1     113.840 124.883 137.182  0.00  0.00    +0.000 C 
ATOM     48  C   UNL     1     113.625 124.098 137.046  0.00  0.00    +0.000 C 
ATOM     49  C   UNL     1     114.624 125.117 137.083  0.00  0.00    +0.000 C 
ENDBRANCH  45  46
ENDBRANCH  44  45
ENDBRANCH  42  44
ENDBRANCH  40  41
ENDBRANCH  14  40
TORSDOF 10
ENDMDL
MODEL 5
REMARK VINA RESULT:     -10.3      8.041     10.217
REMARK  Name = 131836071
REMARK  10 active torsions:
REMARK  status: ('A' for Active; 'I' for Inactive)
REMARK    1  A    between atoms: O_2  and  C_17
REMARK    2  A    between atoms: O_2  and  C_19
REMARK    3  A    between atoms: C_18  and  C_23
REMARK    4  A    between atoms: C_22  and  C_31
REMARK    5  A    between atoms: C_30  and  C_34
REMARK    6  A    between atoms: C_33  and  C_35
REMARK    7  A    between atoms: C_34  and  C_36
REMARK    8  A    between atoms: C_37  and  C_40
REMARK    9  A    between atoms: C_40  and  C_41
REMARK   10  A    between atoms: C_41  and  C_46
REMARK                            x       y       z     vdW  Elec       q    Type
REMARK                         _______ _______ _______ _____ _____    ______ ____
ROOT
ATOM      1  O   UNL     1     105.360 123.943 142.011  0.00  0.00    +0.000 OA
ATOM      2  O   UNL     1     105.178 124.833 144.769  0.00  0.00    +0.000 OA
ATOM      3  O   UNL     1     107.017 126.519 144.337  0.00  0.00    +0.000 OA
ATOM      4  C   UNL     1     106.488 125.507 143.109  0.00  0.00    +0.000 A 
ATOM      5  C   UNL     1     106.233 125.013 142.500  0.00  0.00    +0.000 A 
ATOM      6  C   UNL     1     106.144 125.451 143.858  0.00  0.00    +0.000 A 
ATOM      7  C   UNL     1     105.715 123.996 141.231  0.00  0.00    +0.000 C 
ATOM      8  C   UNL     1     105.634 124.463 142.638  0.00  0.00    +0.000 A 
ATOM      9  C   UNL     1     105.545 124.901 143.996  0.00  0.00    +0.000 A 
ATOM     10  C   UNL     1     106.600 125.081 141.726  0.00  0.00    +0.000 C 
ATOM     11  C   UNL     1     106.339 124.569 141.087  0.00  0.00    +0.000 C 
ATOM     12  C   UNL     1     105.290 124.407 143.385  0.00  0.00    +0.000 A 
ATOM     13  C   UNL     1     106.418 125.971 144.484  0.00  0.00    +0.000 A 
ATOM     14  C   UNL     1     106.063 125.918 145.265  0.00  0.00    +0.000 A 
ATOM     15  C   UNL     1     105.765 123.741 140.448  0.00  0.00    +0.000 C 
ATOM     16  C   UNL     1     105.439 125.345 145.409  0.00  0.00    +0.000 A 
ENDROOT
BRANCH  16  19
ATOM     17  O   UNL     1     105.950 124.187 146.467  0.00  0.00    +0.000 OA
ATOM     18  O   UNL     1     104.054 125.114 148.395  0.00  0.00    +0.000 OA
ATOM     19  C   UNL     1     105.093 125.287 146.155  0.00  0.00    +0.000 A 
ATOM     20  C   UNL     1     105.348 124.708 146.685  0.00  0.00    +0.000 A 
ATOM     21  C   UNL     1     104.492 125.809 146.372  0.00  0.00    +0.000 A 
ATOM     22  C   UNL     1     105.001 124.650 147.431  0.00  0.00    +0.000 A 
ATOM     23  C   UNL     1     104.146 125.751 147.119  0.00  0.00    +0.000 A 
ATOM     24  C   UNL     1     104.400 125.172 147.648  0.00  0.00    +0.000 A 
ENDBRANCH  16  19
BRANCH   7  26
ATOM     25  O   UNL     1     105.317 123.090 140.200  0.00  0.00    +0.000 OA
ATOM     26  C   UNL     1     105.221 123.393 140.961  0.00  0.00    +0.000 C 
ENDBRANCH   7  26
BRANCH   4  27
ATOM     27  O   UNL     1     107.088 126.058 142.971  0.00  0.00    +0.000 OA
BRANCH  27  35
ATOM     28  O   UNL     1     106.123 127.010 142.519  0.00  0.00    +0.000 OA
ATOM     29  O   UNL     1     107.949 128.494 141.751  0.00  0.00    +0.000 OA
ATOM     30  O   UNL     1     108.305 127.047 142.460  0.00  0.00    +0.000 OA
ATOM     31  O   UNL     1     106.376 128.951 141.555  0.00  0.00    +0.000 OA
ATOM     32  C   UNL     1     107.340 128.000 142.007  0.00  0.00    +0.000 C 
ATOM     33  C   UNL     1     107.518 127.275 142.362  0.00  0.00    +0.000 C 
ATOM     34  C   UNL     1     106.553 128.228 141.909  0.00  0.00    +0.000 C 
ATOM     35  C   UNL     1     106.909 126.780 142.617  0.00  0.00    +0.000 C 
ATOM     36  C   UNL     1     105.945 127.733 142.165  0.00  0.00    +0.000 C 
BRANCH  36  39
ATOM     37  O   UNL     1     104.757 128.334 142.683  0.00  0.00    +0.000 OA
ATOM     38  O   UNL     1     104.774 127.818 141.351  0.00  0.00    +0.000 OA
ATOM     39  C   UNL     1     105.159 127.962 142.067  0.00  0.00    +0.000 C 
ENDBRANCH  36  39
ENDBRANCH  27  35
ENDBRANCH   4  27
BRANCH  14  40
ATOM     40  C   UNL     1     106.320 126.414 145.873  0.00  0.00    +0.000 C 
BRANCH  40  41
ATOM     41  C   UNL     1     106.371 127.228 145.747  0.00  0.00    +0.000 C 
ATOM     42  C   UNL     1     106.827 127.695 146.252  0.00  0.00    +0.000 C 
ATOM     43  C   UNL     1     107.231 127.348 146.881  0.00  0.00    +0.000 C 
BRANCH  42  44
ATOM     44  C   UNL     1     106.878 128.509 146.127  0.00  0.00    +0.000 C 
BRANCH  44  45
ATOM     45  C   UNL     1     107.589 128.843 145.875  0.00  0.00    +0.000 C 
BRANCH  45  46
ATOM     46  C   UNL     1     107.606 129.625 145.611  0.00  0.00    +0.000 C 
ATOM     47  C   UNL     1     108.308 129.947 145.322  0.00  0.00    +0.000 C 
ATOM     48  C   UNL     1     108.326 130.728 145.059  0.00  0.00    +0.000 C 
ATOM     49  C   UNL     1     108.994 129.489 145.297  0.00  0.00    +0.000 C 
ENDBRANCH  45  46
ENDBRANCH  44  45
ENDBRANCH  42  44
ENDBRANCH  40  41
ENDBRANCH  14  40
TORSDOF 10
ENDMDL
MODEL 6
REMARK VINA RESULT:     -10.3      2.196      4.532
REMARK  Name = 131836071
REMARK  10 active torsions:
REMARK  status: ('A' for Active; 'I' for Inactive)
REMARK    1  A    between atoms: O_2  and  C_17
REMARK    2  A    between atoms: O_2  and  C_19
REMARK    3  A    between atoms: C_18  and  C_23
REMARK    4  A    between atoms: C_22  and  C_31
REMARK    5  A    between atoms: C_30  and  C_34
REMARK    6  A    between atoms: C_33  and  C_35
REMARK    7  A    between atoms: C_34  and  C_36
REMARK    8  A    between atoms: C_37  and  C_40
REMARK    9  A    between atoms: C_40  and  C_41
REMARK   10  A    between atoms: C_41  and  C_46
REMARK                            x       y       z     vdW  Elec       q    Type
REMARK                         _______ _______ _______ _____ _____    ______ ____
ROOT
ATOM      1  O   UNL     1     112.014 127.850 141.700  0.00  0.00    +0.000 OA
ATOM      2  O   UNL     1     112.585 126.513 139.186  0.00  0.00    +0.000 OA
ATOM      3  O   UNL     1     112.700 128.762 138.027  0.00  0.00    +0.000 OA
ATOM      4  C   UNL     1     112.377 128.670 139.670  0.00  0.00    +0.000 A 
ATOM      5  C   UNL     1     112.217 128.632 140.478  0.00  0.00    +0.000 A 
ATOM      6  C   UNL     1     112.498 127.975 139.241  0.00  0.00    +0.000 A 
ATOM      7  C   UNL     1     111.886 128.570 142.151  0.00  0.00    +0.000 C 
ATOM      8  C   UNL     1     112.179 127.901 140.858  0.00  0.00    +0.000 A 
ATOM      9  C   UNL     1     112.461 127.244 139.621  0.00  0.00    +0.000 A 
ATOM     10  C   UNL     1     112.092 129.363 140.914  0.00  0.00    +0.000 C 
ATOM     11  C   UNL     1     111.926 129.331 141.756  0.00  0.00    +0.000 C 
ATOM     12  C   UNL     1     112.301 127.207 140.430  0.00  0.00    +0.000 A 
ATOM     13  C   UNL     1     112.664 128.026 138.400  0.00  0.00    +0.000 A 
ATOM     14  C   UNL     1     112.791 127.306 137.947  0.00  0.00    +0.000 A 
ATOM     15  C   UNL     1     111.724 128.947 142.867  0.00  0.00    +0.000 C 
ATOM     16  C   UNL     1     112.752 126.545 138.343  0.00  0.00    +0.000 A 
ENDROOT
BRANCH  16  19
ATOM     17  O   UNL     1     111.460 125.677 137.796  0.00  0.00    +0.000 OA
ATOM     18  O   UNL     1     113.239 123.762 136.639  0.00  0.00    +0.000 OA
ATOM     19  C   UNL     1     112.873 125.849 137.917  0.00  0.00    +0.000 A 
ATOM     20  C   UNL     1     112.227 125.415 137.644  0.00  0.00    +0.000 A 
ATOM     21  C   UNL     1     113.641 125.588 137.765  0.00  0.00    +0.000 A 
ATOM     22  C   UNL     1     112.350 124.719 137.217  0.00  0.00    +0.000 A 
ATOM     23  C   UNL     1     113.762 124.892 137.339  0.00  0.00    +0.000 A 
ATOM     24  C   UNL     1     113.117 124.458 137.065  0.00  0.00    +0.000 A 
ENDBRANCH  16  19
BRANCH   7  26
ATOM     25  O   UNL     1     111.534 128.493 143.534  0.00  0.00    +0.000 OA
ATOM     26  C   UNL     1     111.773 128.124 142.836  0.00  0.00    +0.000 C 
ENDBRANCH   7  26
BRANCH   4  27
ATOM     27  O   UNL     1     112.414 129.401 139.289  0.00  0.00    +0.000 OA
BRANCH  27  35
ATOM     28  O   UNL     1     111.012 129.353 139.018  0.00  0.00    +0.000 OA
ATOM     29  O   UNL     1     111.059 131.735 138.349  0.00  0.00    +0.000 OA
ATOM     30  O   UNL     1     112.446 130.989 138.844  0.00  0.00    +0.000 OA
ATOM     31  O   UNL     1     109.642 130.892 138.301  0.00  0.00    +0.000 OA
ATOM     32  C   UNL     1     111.044 130.941 138.572  0.00  0.00    +0.000 C 
ATOM     33  C   UNL     1     111.737 130.568 138.820  0.00  0.00    +0.000 C 
ATOM     34  C   UNL     1     110.335 130.519 138.548  0.00  0.00    +0.000 C 
ATOM     35  C   UNL     1     111.722 129.773 139.043  0.00  0.00    +0.000 C 
ATOM     36  C   UNL     1     110.320 129.725 138.771  0.00  0.00    +0.000 C 
BRANCH  36  39
ATOM     37  O   UNL     1     109.109 129.302 139.402  0.00  0.00    +0.000 OA
ATOM     38  O   UNL     1     109.404 128.885 138.068  0.00  0.00    +0.000 OA
ATOM     39  C   UNL     1     109.611 129.304 138.747  0.00  0.00    +0.000 C 
ENDBRANCH  36  39
ENDBRANCH  27  35
ENDBRANCH   4  27
BRANCH  14  40
ATOM     40  C   UNL     1     112.951 127.347 137.139  0.00  0.00    +0.000 C 
BRANCH  40  41
ATOM     41  C   UNL     1     113.602 127.776 136.868  0.00  0.00    +0.000 C 
ATOM     42  C   UNL     1     113.616 128.056 136.092  0.00  0.00    +0.000 C 
ATOM     43  C   UNL     1     112.979 127.909 135.588  0.00  0.00    +0.000 C 
BRANCH  42  44
ATOM     44  C   UNL     1     114.266 128.485 135.820  0.00  0.00    +0.000 C 
BRANCH  44  45
ATOM     45  C   UNL     1     114.194 129.293 135.669  0.00  0.00    +0.000 C 
BRANCH  45  46
ATOM     46  C   UNL     1     114.774 129.685 135.234  0.00  0.00    +0.000 C 
ATOM     47  C   UNL     1     114.915 130.487 135.362  0.00  0.00    +0.000 C 
ATOM     48  C   UNL     1     115.495 130.879 134.926  0.00  0.00    +0.000 C 
ATOM     49  C   UNL     1     114.475 130.899 135.925  0.00  0.00    +0.000 C 
ENDBRANCH  45  46
ENDBRANCH  44  45
ENDBRANCH  42  44
ENDBRANCH  40  41
ENDBRANCH  14  40
TORSDOF 10
ENDMDL
MODEL 7
REMARK VINA RESULT:     -10.3      1.103      2.007
REMARK  Name = 131836071
REMARK  10 active torsions:
REMARK  status: ('A' for Active; 'I' for Inactive)
REMARK    1  A    between atoms: O_2  and  C_17
REMARK    2  A    between atoms: O_2  and  C_19
REMARK    3  A    between atoms: C_18  and  C_23
REMARK    4  A    between atoms: C_22  and  C_31
REMARK    5  A    between atoms: C_30  and  C_34
REMARK    6  A    between atoms: C_33  and  C_35
REMARK    7  A    between atoms: C_34  and  C_36
REMARK    8  A    between atoms: C_37  and  C_40
REMARK    9  A    between atoms: C_40  and  C_41
REMARK   10  A    between atoms: C_41  and  C_46
REMARK                            x       y       z     vdW  Elec       q    Type
REMARK                         _______ _______ _______ _____ _____    ______ ____
ROOT
ATOM      1  O   UNL     1     110.195 131.730 136.328  0.00  0.00    +0.000 OA
ATOM      2  O   UNL     1     110.089 128.843 136.033  0.00  0.00    +0.000 OA
ATOM      3  O   UNL     1     111.380 128.584 138.196  0.00  0.00    +0.000 OA
ATOM      4  C   UNL     1     110.998 130.109 137.614  0.00  0.00    +0.000 A 
ATOM      5  C   UNL     1     110.813 130.862 137.334  0.00  0.00    +0.000 A 
ATOM      6  C   UNL     1     110.761 129.442 137.189  0.00  0.00    +0.000 A 
ATOM      7  C   UNL     1     110.438 132.428 136.766  0.00  0.00    +0.000 C 
ATOM      8  C   UNL     1     110.393 130.950 136.630  0.00  0.00    +0.000 A 
ATOM      9  C   UNL     1     110.340 129.529 136.485  0.00  0.00    +0.000 A 
ATOM     10  C   UNL     1     111.065 131.549 137.786  0.00  0.00    +0.000 C 
ATOM     11  C   UNL     1     110.876 132.337 137.500  0.00  0.00    +0.000 C 
ATOM     12  C   UNL     1     110.157 130.284 136.206  0.00  0.00    +0.000 A 
ATOM     13  C   UNL     1     110.959 128.662 137.491  0.00  0.00    +0.000 A 
ATOM     14  C   UNL     1     110.715 127.964 137.053  0.00  0.00    +0.000 A 
ATOM     15  C   UNL     1     110.467 133.248 136.847  0.00  0.00    +0.000 C 
ATOM     16  C   UNL     1     110.277 128.055 136.319  0.00  0.00    +0.000 A 
ENDROOT
BRANCH  16  19
ATOM     17  O   UNL     1     108.742 127.473 136.486  0.00  0.00    +0.000 OA
ATOM     18  O   UNL     1     109.328 125.396 134.612  0.00  0.00    +0.000 OA
ATOM     19  C   UNL     1     110.040 127.390 135.893  0.00  0.00    +0.000 A 
ATOM     20  C   UNL     1     109.272 127.099 135.976  0.00  0.00    +0.000 A 
ATOM     21  C   UNL     1     110.570 127.017 135.383  0.00  0.00    +0.000 A 
ATOM     22  C   UNL     1     109.035 126.434 135.548  0.00  0.00    +0.000 A 
ATOM     23  C   UNL     1     110.333 126.352 134.956  0.00  0.00    +0.000 A 
ATOM     24  C   UNL     1     109.566 126.060 135.039  0.00  0.00    +0.000 A 
ENDBRANCH  16  19
BRANCH   7  26
ATOM     25  O   UNL     1     110.192 133.729 136.230  0.00  0.00    +0.000 OA
ATOM     26  C   UNL     1     110.088 132.911 136.197  0.00  0.00    +0.000 C 
ENDBRANCH   7  26
BRANCH   4  27
ATOM     27  O   UNL     1     111.418 130.021 138.319  0.00  0.00    +0.000 OA
BRANCH  27  35
ATOM     28  O   UNL     1     110.206 129.963 139.072  0.00  0.00    +0.000 OA
ATOM     29  O   UNL     1     111.478 130.385 141.153  0.00  0.00    +0.000 OA
ATOM     30  O   UNL     1     112.267 130.303 139.706  0.00  0.00    +0.000 OA
ATOM     31  O   UNL     1     109.842 130.185 141.213  0.00  0.00    +0.000 OA
ATOM     32  C   UNL     1     111.054 130.244 140.459  0.00  0.00    +0.000 C 
ATOM     33  C   UNL     1     111.448 130.203 139.735  0.00  0.00    +0.000 C 
ATOM     34  C   UNL     1     110.236 130.144 140.489  0.00  0.00    +0.000 C 
ATOM     35  C   UNL     1     111.024 130.062 139.042  0.00  0.00    +0.000 C 
ATOM     36  C   UNL     1     109.812 130.004 139.795  0.00  0.00    +0.000 C 
BRANCH  36  39
ATOM     37  O   UNL     1     108.674 129.185 140.073  0.00  0.00    +0.000 OA
ATOM     38  O   UNL     1     108.495 130.524 139.609  0.00  0.00    +0.000 OA
ATOM     39  C   UNL     1     108.994 129.904 139.826  0.00  0.00    +0.000 C 
ENDBRANCH  36  39
ENDBRANCH  27  35
ENDBRANCH   4  27
BRANCH  14  40
ATOM     40  C   UNL     1     110.901 127.211 137.335  0.00  0.00    +0.000 C 
BRANCH  40  41
ATOM     41  C   UNL     1     111.689 126.999 137.456  0.00  0.00    +0.000 C 
ATOM     42  C   UNL     1     111.873 126.360 137.945  0.00  0.00    +0.000 C 
ATOM     43  C   UNL     1     111.269 125.934 138.312  0.00  0.00    +0.000 C 
BRANCH  42  44
ATOM     44  C   UNL     1     112.661 126.147 138.067  0.00  0.00    +0.000 C 
BRANCH  44  45
ATOM     45  C   UNL     1     113.018 125.590 137.574  0.00  0.00    +0.000 C 
BRANCH  45  46
ATOM     46  C   UNL     1     113.768 125.298 137.757  0.00  0.00    +0.000 C 
ATOM     47  C   UNL     1     114.212 124.910 137.181  0.00  0.00    +0.000 C 
ATOM     48  C   UNL     1     114.962 124.618 137.364  0.00  0.00    +0.000 C 
ATOM     49  C   UNL     1     113.907 124.814 136.420  0.00  0.00    +0.000 C 
ENDBRANCH  45  46
ENDBRANCH  44  45
ENDBRANCH  42  44
ENDBRANCH  40  41
ENDBRANCH  14  40
TORSDOF 10
ENDMDL
MODEL 8
REMARK VINA RESULT:     -10.3      2.736      5.206
REMARK  Name = 131836071
REMARK  10 active torsions:
REMARK  status: ('A' for Active; 'I' for Inactive)
REMARK    1  A    between atoms: O_2  and  C_17
REMARK    2  A    between atoms: O_2  and  C_19
REMARK    3  A    between atoms: C_18  and  C_23
REMARK    4  A    between atoms: C_22  and  C_31
REMARK    5  A    between atoms: C_30  and  C_34
REMARK    6  A    between atoms: C_33  and  C_35
REMARK    7  A    between atoms: C_34  and  C_36
REMARK    8  A    between atoms: C_37  and  C_40
REMARK    9  A    between atoms: C_40  and  C_41
REMARK   10  A    between atoms: C_41  and  C_46
REMARK                            x       y       z     vdW  Elec       q    Type
REMARK                         _______ _______ _______ _____ _____    ______ ____
ROOT
ATOM      1  O   UNL     1     112.027 130.129 142.851  0.00  0.00    +0.000 OA
ATOM      2  O   UNL     1     112.699 130.164 140.026  0.00  0.00    +0.000 OA
ATOM      3  O   UNL     1     112.068 127.718 139.854  0.00  0.00    +0.000 OA
ATOM      4  C   UNL     1     111.946 128.525 141.319  0.00  0.00    +0.000 A 
ATOM      5  C   UNL     1     111.883 128.915 142.043  0.00  0.00    +0.000 A 
ATOM      6  C   UNL     1     112.214 128.932 140.653  0.00  0.00    +0.000 A 
ATOM      7  C   UNL     1     111.749 129.710 143.547  0.00  0.00    +0.000 C 
ATOM      8  C   UNL     1     112.088 129.712 142.101  0.00  0.00    +0.000 A 
ATOM      9  C   UNL     1     112.419 129.729 140.711  0.00  0.00    +0.000 A 
ATOM     10  C   UNL     1     111.603 128.480 142.729  0.00  0.00    +0.000 C 
ATOM     11  C   UNL     1     111.535 128.880 143.486  0.00  0.00    +0.000 C 
ATOM     12  C   UNL     1     112.355 130.119 141.436  0.00  0.00    +0.000 A 
ATOM     13  C   UNL     1     112.275 128.515 139.904  0.00  0.00    +0.000 A 
ATOM     14  C   UNL     1     112.553 128.934 139.207  0.00  0.00    +0.000 A 
ATOM     15  C   UNL     1     111.558 129.703 144.350  0.00  0.00    +0.000 C 
ATOM     16  C   UNL     1     112.766 129.764 139.268  0.00  0.00    +0.000 A 
ENDROOT
BRANCH  16  19
ATOM     17  O   UNL     1     111.726 130.715 138.410  0.00  0.00    +0.000 OA
ATOM     18  O   UNL     1     113.840 131.402 136.612  0.00  0.00    +0.000 OA
ATOM     19  C   UNL     1     113.034 130.174 138.604  0.00  0.00    +0.000 A 
ATOM     20  C   UNL     1     112.514 130.649 138.175  0.00  0.00    +0.000 A 
ATOM     21  C   UNL     1     113.823 130.107 138.370  0.00  0.00    +0.000 A 
ATOM     22  C   UNL     1     112.783 131.059 137.510  0.00  0.00    +0.000 A 
ATOM     23  C   UNL     1     114.091 130.517 137.706  0.00  0.00    +0.000 A 
ATOM     24  C   UNL     1     113.572 130.992 137.276  0.00  0.00    +0.000 A 
ENDBRANCH  16  19
BRANCH   7  26
ATOM     25  O   UNL     1     111.652 130.387 144.802  0.00  0.00    +0.000 OA
ATOM     26  C   UNL     1     111.831 130.397 143.997  0.00  0.00    +0.000 C 
ENDBRANCH   7  26
BRANCH   4  27
ATOM     27  O   UNL     1     111.741 127.728 141.260  0.00  0.00    +0.000 OA
BRANCH  27  35
ATOM     28  O   UNL     1     110.388 128.082 140.970  0.00  0.00    +0.000 OA
ATOM     29  O   UNL     1     109.709 125.718 141.244  0.00  0.00    +0.000 OA
ATOM     30  O   UNL     1     111.289 126.151 141.443  0.00  0.00    +0.000 OA
ATOM     31  O   UNL     1     108.583 126.861 140.862  0.00  0.00    +0.000 OA
ATOM     32  C   UNL     1     109.935 126.506 141.152  0.00  0.00    +0.000 C 
ATOM     33  C   UNL     1     110.726 126.723 141.252  0.00  0.00    +0.000 C 
ATOM     34  C   UNL     1     109.372 127.078 140.962  0.00  0.00    +0.000 C 
ATOM     35  C   UNL     1     110.952 127.511 141.161  0.00  0.00    +0.000 C 
ATOM     36  C   UNL     1     109.598 127.866 140.870  0.00  0.00    +0.000 C 
BRANCH  36  39
ATOM     37  O   UNL     1     108.903 128.640 139.891  0.00  0.00    +0.000 OA
ATOM     38  O   UNL     1     108.603 128.806 141.278  0.00  0.00    +0.000 OA
ATOM     39  C   UNL     1     109.035 128.437 140.680  0.00  0.00    +0.000 C 
ENDBRANCH  36  39
ENDBRANCH  27  35
ENDBRANCH   4  27
BRANCH  14  40
ATOM     40  C   UNL     1     112.615 128.541 138.484  0.00  0.00    +0.000 C 
BRANCH  40  41
ATOM     41  C   UNL     1     112.869 127.756 138.461  0.00  0.00    +0.000 C 
ATOM     42  C   UNL     1     112.725 127.296 137.792  0.00  0.00    +0.000 C 
ATOM     43  C   UNL     1     112.329 127.621 137.145  0.00  0.00    +0.000 C 
BRANCH  42  44
ATOM     44  C   UNL     1     112.979 126.511 137.768  0.00  0.00    +0.000 C 
BRANCH  44  45
ATOM     45  C   UNL     1     113.587 126.289 137.257  0.00  0.00    +0.000 C 
BRANCH  45  46
ATOM     46  C   UNL     1     113.959 125.559 137.351  0.00  0.00    +0.000 C 
ATOM     47  C   UNL     1     114.541 125.321 136.817  0.00  0.00    +0.000 C 
ATOM     48  C   UNL     1     114.912 124.590 136.911  0.00  0.00    +0.000 C 
ATOM     49  C   UNL     1     114.752 125.813 136.190  0.00  0.00    +0.000 C 
ENDBRANCH  45  46
ENDBRANCH  44  45
ENDBRANCH  42  44
ENDBRANCH  40  41
ENDBRANCH  14  40
TORSDOF 10
ENDMDL
MODEL 9
REMARK VINA RESULT:     -10.2      2.040      4.787
REMARK  Name = 131836071
REMARK  10 active torsions:
REMARK  status: ('A' for Active; 'I' for Inactive)
REMARK    1  A    between atoms: O_2  and  C_17
REMARK    2  A    between atoms: O_2  and  C_19
REMARK    3  A    between atoms: C_18  and  C_23
REMARK    4  A    between atoms: C_22  and  C_31
REMARK    5  A    between atoms: C_30  and  C_34
REMARK    6  A    between atoms: C_33  and  C_35
REMARK    7  A    between atoms: C_34  and  C_36
REMARK    8  A    between atoms: C_37  and  C_40
REMARK    9  A    between atoms: C_40  and  C_41
REMARK   10  A    between atoms: C_41  and  C_46
REMARK                            x       y       z     vdW  Elec       q    Type
REMARK                         _______ _______ _______ _____ _____    ______ ____
ROOT
ATOM      1  O   UNL     1     112.620 129.748 140.883  0.00  0.00    +0.000 OA
ATOM      2  O   UNL     1     113.394 130.069 138.103  0.00  0.00    +0.000 OA
ATOM      3  O   UNL     1     111.195 129.040 137.382  0.00  0.00    +0.000 OA
ATOM      4  C   UNL     1     111.550 129.227 139.009  0.00  0.00    +0.000 A 
ATOM      5  C   UNL     1     111.718 129.316 139.812  0.00  0.00    +0.000 A 
ATOM      6  C   UNL     1     112.099 129.473 138.444  0.00  0.00    +0.000 A 
ATOM      7  C   UNL     1     112.053 129.494 141.476  0.00  0.00    +0.000 C 
ATOM      8  C   UNL     1     112.434 129.651 140.050  0.00  0.00    +0.000 A 
ATOM      9  C   UNL     1     112.815 129.808 138.681  0.00  0.00    +0.000 A 
ATOM     10  C   UNL     1     111.139 129.055 140.391  0.00  0.00    +0.000 C 
ATOM     11  C   UNL     1     111.308 129.145 141.229  0.00  0.00    +0.000 C 
ATOM     12  C   UNL     1     112.981 129.897 139.485  0.00  0.00    +0.000 A 
ATOM     13  C   UNL     1     111.913 129.376 137.611  0.00  0.00    +0.000 A 
ATOM     14  C   UNL     1     112.480 129.630 137.017  0.00  0.00    +0.000 A 
ATOM     15  C   UNL     1     111.836 129.404 142.267  0.00  0.00    +0.000 C 
ATOM     16  C   UNL     1     113.225 129.979 137.264  0.00  0.00    +0.000 A 
ENDROOT
BRANCH  16  19
ATOM     17  O   UNL     1     113.320 131.573 136.847  0.00  0.00    +0.000 OA
ATOM     18  O   UNL     1     115.425 130.966 135.012  0.00  0.00    +0.000 OA
ATOM     19  C   UNL     1     113.775 130.226 136.701  0.00  0.00    +0.000 A 
ATOM     20  C   UNL     1     113.822 131.023 136.492  0.00  0.00    +0.000 A 
ATOM     21  C   UNL     1     114.277 129.676 136.347  0.00  0.00    +0.000 A 
ATOM     22  C   UNL     1     114.373 131.269 135.929  0.00  0.00    +0.000 A 
ATOM     23  C   UNL     1     114.827 129.923 135.784  0.00  0.00    +0.000 A 
ATOM     24  C   UNL     1     114.875 130.719 135.575  0.00  0.00    +0.000 A 
ENDBRANCH  16  19
BRANCH   7  26
ATOM     25  O   UNL     1     112.318 129.720 142.862  0.00  0.00    +0.000 OA
ATOM     26  C   UNL     1     112.565 129.739 142.075  0.00  0.00    +0.000 C 
ENDBRANCH   7  26
BRANCH   4  27
ATOM     27  O   UNL     1     110.835 128.892 138.771  0.00  0.00    +0.000 OA
BRANCH  27  35
ATOM     28  O   UNL     1     111.413 127.585 138.792  0.00  0.00    +0.000 OA
ATOM     29  O   UNL     1     109.153 126.584 138.658  0.00  0.00    +0.000 OA
ATOM     30  O   UNL     1     109.329 128.224 138.682  0.00  0.00    +0.000 OA
ATOM     31  O   UNL     1     110.484 125.612 138.723  0.00  0.00    +0.000 OA
ATOM     32  C   UNL     1     109.907 126.918 138.702  0.00  0.00    +0.000 C 
ATOM     33  C   UNL     1     109.994 127.739 138.715  0.00  0.00    +0.000 C 
ATOM     34  C   UNL     1     110.572 126.432 138.735  0.00  0.00    +0.000 C 
ATOM     35  C   UNL     1     110.748 128.072 138.759  0.00  0.00    +0.000 C 
ATOM     36  C   UNL     1     111.325 126.766 138.779  0.00  0.00    +0.000 C 
BRANCH  36  39
ATOM     37  O   UNL     1     112.282 126.027 139.541  0.00  0.00    +0.000 OA
ATOM     38  O   UNL     1     112.364 126.045 138.115  0.00  0.00    +0.000 OA
ATOM     39  C   UNL     1     111.990 126.279 138.812  0.00  0.00    +0.000 C 
ENDBRANCH  36  39
ENDBRANCH  27  35
ENDBRANCH   4  27
BRANCH  14  40
ATOM     40  C   UNL     1     112.309 129.540 136.214  0.00  0.00    +0.000 C 
BRANCH  40  41
ATOM     41  C   UNL     1     112.171 128.788 135.904  0.00  0.00    +0.000 C 
ATOM     42  C   UNL     1     111.748 128.704 135.201  0.00  0.00    +0.000 C 
ATOM     43  C   UNL     1     111.463 129.372 134.809  0.00  0.00    +0.000 C 
BRANCH  42  44
ATOM     44  C   UNL     1     111.609 127.953 134.890  0.00  0.00    +0.000 C 
BRANCH  44  45
ATOM     45  C   UNL     1     110.869 127.600 134.979  0.00  0.00    +0.000 C 
BRANCH  45  46
ATOM     46  C   UNL     1     110.789 126.783 134.898  0.00  0.00    +0.000 C 
ATOM     47  C   UNL     1     110.047 126.431 134.977  0.00  0.00    +0.000 C 
ATOM     48  C   UNL     1     109.967 125.614 134.896  0.00  0.00    +0.000 C 
ATOM     49  C   UNL     1     109.384 126.896 135.136  0.00  0.00    +0.000 C 
ENDBRANCH  45  46
ENDBRANCH  44  45
ENDBRANCH  42  44
ENDBRANCH  40  41
ENDBRANCH  14  40
TORSDOF 10
ENDMDL
MODEL 10
REMARK VINA RESULT:     -10.2      2.023      5.925
REMARK  Name = 131836071
REMARK  10 active torsions:
REMARK  status: ('A' for Active; 'I' for Inactive)
REMARK    1  A    between atoms: O_2  and  C_17
REMARK    2  A    between atoms: O_2  and  C_19
REMARK    3  A    between atoms: C_18  and  C_23
REMARK    4  A    between atoms: C_22  and  C_31
REMARK    5  A    between atoms: C_30  and  C_34
REMARK    6  A    between atoms: C_33  and  C_35
REMARK    7  A    between atoms: C_34  and  C_36
REMARK    8  A    between atoms: C_37  and  C_40
REMARK    9  A    between atoms: C_40  and  C_41
REMARK   10  A    between atoms: C_41  and  C_46
REMARK                            x       y       z     vdW  Elec       q    Type
REMARK                         _______ _______ _______ _____ _____    ______ ____
ROOT
ATOM      1  O   UNL     1     112.964 125.065 136.638  0.00  0.00    +0.000 OA
ATOM      2  O   UNL     1     113.400 127.915 136.289  0.00  0.00    +0.000 OA
ATOM      3  O   UNL     1     111.044 128.366 137.099  0.00  0.00    +0.000 OA
ATOM      4  C   UNL     1     111.620 126.795 137.000  0.00  0.00    +0.000 A 
ATOM      5  C   UNL     1     111.897 126.019 136.954  0.00  0.00    +0.000 A 
ATOM      6  C   UNL     1     112.112 127.422 136.782  0.00  0.00    +0.000 A 
ATOM      7  C   UNL     1     112.457 124.409 136.863  0.00  0.00    +0.000 C 
ATOM      8  C   UNL     1     112.664 125.870 136.690  0.00  0.00    +0.000 A 
ATOM      9  C   UNL     1     112.879 127.272 136.518  0.00  0.00    +0.000 A 
ATOM     10  C   UNL     1     111.376 125.375 137.183  0.00  0.00    +0.000 C 
ATOM     11  C   UNL     1     111.658 124.565 137.138  0.00  0.00    +0.000 C 
ATOM     12  C   UNL     1     113.155 126.496 136.473  0.00  0.00    +0.000 A 
ATOM     13  C   UNL     1     111.812 128.225 136.834  0.00  0.00    +0.000 A 
ATOM     14  C   UNL     1     112.319 128.882 136.609  0.00  0.00    +0.000 A 
ATOM     15  C   UNL     1     112.336 123.599 136.961  0.00  0.00    +0.000 C 
ATOM     16  C   UNL     1     113.118 128.726 136.334  0.00  0.00    +0.000 A 
ENDROOT
BRANCH  16  19
ATOM     17  O   UNL     1     113.407 129.030 134.738  0.00  0.00    +0.000 OA
ATOM     18  O   UNL     1     115.090 131.224 135.462  0.00  0.00    +0.000 OA
ATOM     19  C   UNL     1     113.611 129.350 136.116  0.00  0.00    +0.000 A 
ATOM     20  C   UNL     1     113.756 129.502 135.318  0.00  0.00    +0.000 A 
ATOM     21  C   UNL     1     113.959 129.822 136.696  0.00  0.00    +0.000 A 
ATOM     22  C   UNL     1     114.249 130.127 135.100  0.00  0.00    +0.000 A 
ATOM     23  C   UNL     1     114.452 130.447 136.478  0.00  0.00    +0.000 A 
ATOM     24  C   UNL     1     114.597 130.599 135.681  0.00  0.00    +0.000 A 
ENDBRANCH  16  19
BRANCH   7  26
ATOM     25  O   UNL     1     113.046 123.114 136.997  0.00  0.00    +0.000 OA
ATOM     26  C   UNL     1     113.061 123.877 136.684  0.00  0.00    +0.000 C 
ENDBRANCH   7  26
BRANCH   4  27
ATOM     27  O   UNL     1     110.853 126.945 137.263  0.00  0.00    +0.000 OA
BRANCH  27  35
ATOM     28  O   UNL     1     111.304 126.994 138.618  0.00  0.00    +0.000 OA
ATOM     29  O   UNL     1     108.960 126.866 139.403  0.00  0.00    +0.000 OA
ATOM     30  O   UNL     1     109.290 126.859 137.786  0.00  0.00    +0.000 OA
ATOM     31  O   UNL     1     110.192 126.958 140.496  0.00  0.00    +0.000 OA
ATOM     32  C   UNL     1     109.741 126.908 139.141  0.00  0.00    +0.000 C 
ATOM     33  C   UNL     1     109.907 126.905 138.332  0.00  0.00    +0.000 C 
ATOM     34  C   UNL     1     110.358 126.954 139.688  0.00  0.00    +0.000 C 
ATOM     35  C   UNL     1     110.688 126.948 138.071  0.00  0.00    +0.000 C 
ATOM     36  C   UNL     1     111.139 126.997 139.426  0.00  0.00    +0.000 C 
BRANCH  36  39
ATOM     37  O   UNL     1     112.049 127.779 140.203  0.00  0.00    +0.000 OA
ATOM     38  O   UNL     1     112.076 126.353 140.290  0.00  0.00    +0.000 OA
ATOM     39  C   UNL     1     111.754 127.043 139.973  0.00  0.00    +0.000 C 
ENDBRANCH  36  39
ENDBRANCH  27  35
ENDBRANCH   4  27
BRANCH  14  40
ATOM     40  C   UNL     1     112.039 129.657 136.656  0.00  0.00    +0.000 C 
BRANCH  40  41
ATOM     41  C   UNL     1     111.259 129.827 136.450  0.00  0.00    +0.000 C 
ATOM     42  C   UNL     1     110.921 130.546 136.673  0.00  0.00    +0.000 C 
ATOM     43  C   UNL     1     111.365 131.095 137.101  0.00  0.00    +0.000 C 
BRANCH  42  44
ATOM     44  C   UNL     1     110.141 130.717 136.468  0.00  0.00    +0.000 C 
BRANCH  44  45
ATOM     45  C   UNL     1     109.972 131.371 135.995  0.00  0.00    +0.000 C 
BRANCH  45  46
ATOM     46  C   UNL     1     109.285 131.385 135.539  0.00  0.00    +0.000 C 
ATOM     47  C   UNL     1     108.998 132.100 135.246  0.00  0.00    +0.000 C 
ATOM     48  C   UNL     1     108.310 132.114 134.790  0.00  0.00    +0.000 C 
ATOM     49  C   UNL     1     109.397 132.803 135.409  0.00  0.00    +0.000 C 
ENDBRANCH  45  46
ENDBRANCH  44  45
ENDBRANCH  42  44
ENDBRANCH  40  41
ENDBRANCH  14  40
TORSDOF 10
ENDMDL
