MODEL 1
REMARK VINA RESULT:      -7.4      0.000      0.000
REMARK  Name = 3010100
REMARK  5 active torsions:
REMARK  status: ('A' for Active; 'I' for Inactive)
REMARK    1  A    between atoms: O_2  and  C_10
REMARK    2  A    between atoms: O_3  and  C_11
REMARK    3  A    between atoms: O_4  and  C_12
REMARK    4  A    between atoms: O_5  and  C_13
REMARK    5  A    between atoms: C_14  and  C_17
REMARK                            x       y       z     vdW  Elec       q    Type
REMARK                         _______ _______ _______ _____ _____    ______ ____
ROOT
ATOM      1  O   UNL     1     112.294 126.741 136.373  0.00  0.00    +0.000 OA
ATOM      2  O   UNL     1     110.452 125.180 135.605  0.00  0.00    +0.000 OA
ATOM      3  C   UNL     1     110.953 126.535 135.817  0.00  0.00    +0.000 A 
ATOM      4  C   UNL     1     111.551 127.046 136.066  0.00  0.00    +0.000 A 
ATOM      5  C   UNL     1     110.245 126.842 135.524  0.00  0.00    +0.000 A 
ATOM      6  C   UNL     1     111.441 127.863 136.023  0.00  0.00    +0.000 A 
ATOM      7  C   UNL     1     110.134 127.658 135.481  0.00  0.00    +0.000 A 
ATOM      8  C   UNL     1     110.733 128.168 135.731  0.00  0.00    +0.000 A 
ATOM      9  C   UNL     1     112.414 125.890 136.420  0.00  0.00    +0.000 A 
ATOM     10  C   UNL     1     111.055 125.684 135.856  0.00  0.00    +0.000 A 
ATOM     11  C   UNL     1     111.791 125.359 136.160  0.00  0.00    +0.000 A 
ENDROOT
BRANCH   9  13
ATOM     12  O   UNL     1     115.252 124.681 137.592  0.00  0.00    +0.000 OA
ATOM     13  C   UNL     1     113.124 125.588 136.713  0.00  0.00    +0.000 A 
ATOM     14  C   UNL     1     113.199 125.419 137.517  0.00  0.00    +0.000 A 
ATOM     15  C   UNL     1     113.757 125.454 136.201  0.00  0.00    +0.000 A 
ATOM     16  C   UNL     1     113.908 125.117 137.810  0.00  0.00    +0.000 A 
ATOM     17  C   UNL     1     114.466 125.152 136.495  0.00  0.00    +0.000 A 
ATOM     18  C   UNL     1     114.542 124.983 137.299  0.00  0.00    +0.000 A 
ENDBRANCH   9  13
BRANCH   5  19
ATOM     19  O   UNL     1     109.647 126.331 135.275  0.00  0.00    +0.000 OA
ATOM     20  C   UNL     1     109.771 125.834 134.629  0.00  0.00    +0.000 C 
ENDBRANCH   5  19
BRANCH   6  21
ATOM     21  O   UNL     1     112.039 128.374 136.273  0.00  0.00    +0.000 OA
ATOM     22  C   UNL     1     111.994 128.730 137.014  0.00  0.00    +0.000 C 
ENDBRANCH   6  21
BRANCH   7  23
ATOM     23  O   UNL     1     109.426 127.964 135.189  0.00  0.00    +0.000 OA
ATOM     24  C   UNL     1     108.799 128.116 135.702  0.00  0.00    +0.000 C 
ENDBRANCH   7  23
BRANCH   8  25
ATOM     25  O   UNL     1     110.622 128.986 135.688  0.00  0.00    +0.000 OA
ATOM     26  C   UNL     1     110.838 129.395 135.005  0.00  0.00    +0.000 C 
ENDBRANCH   8  25
TORSDOF 5
ENDMDL
MODEL 2
REMARK VINA RESULT:      -7.3     13.033     13.696
REMARK  Name = 3010100
REMARK  5 active torsions:
REMARK  status: ('A' for Active; 'I' for Inactive)
REMARK    1  A    between atoms: O_2  and  C_10
REMARK    2  A    between atoms: O_3  and  C_11
REMARK    3  A    between atoms: O_4  and  C_12
REMARK    4  A    between atoms: O_5  and  C_13
REMARK    5  A    between atoms: C_14  and  C_17
REMARK                            x       y       z     vdW  Elec       q    Type
REMARK                         _______ _______ _______ _____ _____    ______ ____
ROOT
ATOM      1  O   UNL     1     104.493 124.749 147.400  0.00  0.00    +0.000 OA
ATOM      2  O   UNL     1     103.937 123.783 145.125  0.00  0.00    +0.000 OA
ATOM      3  C   UNL     1     103.571 124.029 146.518  0.00  0.00    +0.000 A 
ATOM      4  C   UNL     1     103.749 124.342 147.259  0.00  0.00    +0.000 A 
ATOM      5  C   UNL     1     102.852 123.640 146.396  0.00  0.00    +0.000 A 
ATOM      6  C   UNL     1     103.209 124.268 147.880  0.00  0.00    +0.000 A 
ATOM      7  C   UNL     1     102.314 123.566 147.016  0.00  0.00    +0.000 A 
ATOM      8  C   UNL     1     102.492 123.880 147.757  0.00  0.00    +0.000 A 
ATOM      9  C   UNL     1     105.059 124.829 146.757  0.00  0.00    +0.000 A 
ATOM     10  C   UNL     1     104.123 124.099 145.864  0.00  0.00    +0.000 A 
ATOM     11  C   UNL     1     104.873 124.503 145.985  0.00  0.00    +0.000 A 
ENDROOT
BRANCH   9  13
ATOM     12  O   UNL     1     107.925 126.386 147.259  0.00  0.00    +0.000 OA
ATOM     13  C   UNL     1     105.776 125.219 146.883  0.00  0.00    +0.000 A 
ATOM     14  C   UNL     1     105.859 126.010 146.664  0.00  0.00    +0.000 A 
ATOM     15  C   UNL     1     106.409 124.816 147.227  0.00  0.00    +0.000 A 
ATOM     16  C   UNL     1     106.575 126.398 146.789  0.00  0.00    +0.000 A 
ATOM     17  C   UNL     1     107.125 125.205 147.352  0.00  0.00    +0.000 A 
ATOM     18  C   UNL     1     107.208 125.997 147.133  0.00  0.00    +0.000 A 
ENDBRANCH   9  13
BRANCH   5  19
ATOM     19  O   UNL     1     102.674 123.327 145.654  0.00  0.00    +0.000 OA
ATOM     20  C   UNL     1     103.154 122.741 145.327  0.00  0.00    +0.000 C 
ENDBRANCH   5  19
BRANCH   6  21
ATOM     21  O   UNL     1     103.388 124.581 148.622  0.00  0.00    +0.000 OA
ATOM     22  C   UNL     1     103.072 125.308 148.849  0.00  0.00    +0.000 C 
ENDBRANCH   6  21
BRANCH   7  23
ATOM     23  O   UNL     1     101.596 123.178 146.894  0.00  0.00    +0.000 OA
ATOM     24  C   UNL     1     100.942 123.595 146.614  0.00  0.00    +0.000 C 
ENDBRANCH   7  23
BRANCH   8  25
ATOM     25  O   UNL     1     101.952 123.805 148.378  0.00  0.00    +0.000 OA
ATOM     26  C   UNL     1     101.989 123.151 148.879  0.00  0.00    +0.000 C 
ENDBRANCH   8  25
TORSDOF 5
ENDMDL
MODEL 3
REMARK VINA RESULT:      -7.3     12.485     13.460
REMARK  Name = 3010100
REMARK  5 active torsions:
REMARK  status: ('A' for Active; 'I' for Inactive)
REMARK    1  A    between atoms: O_2  and  C_10
REMARK    2  A    between atoms: O_3  and  C_11
REMARK    3  A    between atoms: O_4  and  C_12
REMARK    4  A    between atoms: O_5  and  C_13
REMARK    5  A    between atoms: C_14  and  C_17
REMARK                            x       y       z     vdW  Elec       q    Type
REMARK                         _______ _______ _______ _____ _____    ______ ____
ROOT
ATOM      1  O   UNL     1     104.132 124.494 146.168  0.00  0.00    +0.000 OA
ATOM      2  O   UNL     1     104.696 124.629 148.634  0.00  0.00    +0.000 OA
ATOM      3  C   UNL     1     105.056 124.877 147.241  0.00  0.00    +0.000 A 
ATOM      4  C   UNL     1     104.875 124.834 146.437  0.00  0.00    +0.000 A 
ATOM      5  C   UNL     1     105.772 125.206 147.485  0.00  0.00    +0.000 A 
ATOM      6  C   UNL     1     105.410 125.121 145.877  0.00  0.00    +0.000 A 
ATOM      7  C   UNL     1     106.306 125.493 146.926  0.00  0.00    +0.000 A 
ATOM      8  C   UNL     1     106.125 125.450 146.122  0.00  0.00    +0.000 A 
ATOM      9  C   UNL     1     103.571 124.194 146.747  0.00  0.00    +0.000 A 
ATOM     10  C   UNL     1     104.507 124.583 147.832  0.00  0.00    +0.000 A 
ATOM     11  C   UNL     1     103.759 124.239 147.584  0.00  0.00    +0.000 A 
ENDROOT
BRANCH   9  13
ATOM     12  O   UNL     1     100.710 122.882 145.754  0.00  0.00    +0.000 OA
ATOM     13  C   UNL     1     102.856 123.866 146.499  0.00  0.00    +0.000 A 
ATOM     14  C   UNL     1     102.157 124.300 146.567  0.00  0.00    +0.000 A 
ATOM     15  C   UNL     1     102.839 123.104 146.183  0.00  0.00    +0.000 A 
ATOM     16  C   UNL     1     101.443 123.972 146.319  0.00  0.00    +0.000 A 
ATOM     17  C   UNL     1     102.124 122.776 145.935  0.00  0.00    +0.000 A 
ATOM     18  C   UNL     1     101.426 123.210 146.003  0.00  0.00    +0.000 A 
ENDBRANCH   9  13
BRANCH   5  19
ATOM     19  O   UNL     1     105.953 125.249 148.288  0.00  0.00    +0.000 OA
ATOM     20  C   UNL     1     105.504 125.729 148.788  0.00  0.00    +0.000 C 
ENDBRANCH   5  19
BRANCH   6  21
ATOM     21  O   UNL     1     105.229 125.078 145.073  0.00  0.00    +0.000 OA
ATOM     22  C   UNL     1     105.624 124.539 144.590  0.00  0.00    +0.000 C 
ENDBRANCH   6  21
BRANCH   7  23
ATOM     23  O   UNL     1     107.023 125.822 147.170  0.00  0.00    +0.000 OA
ATOM     24  C   UNL     1     107.665 125.334 147.340  0.00  0.00    +0.000 C 
ENDBRANCH   7  23
BRANCH   8  25
ATOM     25  O   UNL     1     106.661 125.736 145.563  0.00  0.00    +0.000 OA
ATOM     26  C   UNL     1     106.591 126.510 145.285  0.00  0.00    +0.000 C 
ENDBRANCH   8  25
TORSDOF 5
ENDMDL
MODEL 4
REMARK VINA RESULT:      -7.2     10.857     11.476
REMARK  Name = 3010100
REMARK  5 active torsions:
REMARK  status: ('A' for Active; 'I' for Inactive)
REMARK    1  A    between atoms: O_2  and  C_10
REMARK    2  A    between atoms: O_3  and  C_11
REMARK    3  A    between atoms: O_4  and  C_12
REMARK    4  A    between atoms: O_5  and  C_13
REMARK    5  A    between atoms: C_14  and  C_17
REMARK                            x       y       z     vdW  Elec       q    Type
REMARK                         _______ _______ _______ _____ _____    ______ ____
ROOT
ATOM      1  O   UNL     1     106.630 125.558 146.311  0.00  0.00    +0.000 OA
ATOM      2  O   UNL     1     106.856 128.075 146.493  0.00  0.00    +0.000 OA
ATOM      3  C   UNL     1     106.510 126.891 145.711  0.00  0.00    +0.000 A 
ATOM      4  C   UNL     1     106.436 126.071 145.649  0.00  0.00    +0.000 A 
ATOM      5  C   UNL     1     106.320 127.372 145.068  0.00  0.00    +0.000 A 
ATOM      6  C   UNL     1     106.171 125.733 144.944  0.00  0.00    +0.000 A 
ATOM      7  C   UNL     1     106.056 127.034 144.364  0.00  0.00    +0.000 A 
ATOM      8  C   UNL     1     105.982 126.215 144.302  0.00  0.00    +0.000 A 
ATOM      9  C   UNL     1     106.906 125.905 147.048  0.00  0.00    +0.000 A 
ATOM     10  C   UNL     1     106.784 127.254 146.439  0.00  0.00    +0.000 A 
ATOM     11  C   UNL     1     106.984 126.758 147.113  0.00  0.00    +0.000 A 
ENDROOT
BRANCH   9  13
ATOM     12  O   UNL     1     107.663 123.967 149.609  0.00  0.00    +0.000 OA
ATOM     13  C   UNL     1     107.095 125.420 147.689  0.00  0.00    +0.000 A 
ATOM     14  C   UNL     1     107.877 125.190 147.814  0.00  0.00    +0.000 A 
ATOM     15  C   UNL     1     106.502 125.167 148.203  0.00  0.00    +0.000 A 
ATOM     16  C   UNL     1     108.066 124.705 148.454  0.00  0.00    +0.000 A 
ATOM     17  C   UNL     1     106.692 124.683 148.843  0.00  0.00    +0.000 A 
ATOM     18  C   UNL     1     107.474 124.452 148.968  0.00  0.00    +0.000 A 
ENDBRANCH   9  13
BRANCH   5  19
ATOM     19  O   UNL     1     106.395 128.191 145.131  0.00  0.00    +0.000 OA
ATOM     20  C   UNL     1     107.132 128.528 145.282  0.00  0.00    +0.000 C 
ENDBRANCH   5  19
BRANCH   6  21
ATOM     21  O   UNL     1     106.097 124.914 144.881  0.00  0.00    +0.000 OA
ATOM     22  C   UNL     1     105.354 124.562 144.947  0.00  0.00    +0.000 C 
ENDBRANCH   6  21
BRANCH   7  23
ATOM     23  O   UNL     1     105.866 127.516 143.721  0.00  0.00    +0.000 OA
ATOM     24  C   UNL     1     105.112 127.843 143.659  0.00  0.00    +0.000 C 
ENDBRANCH   7  23
BRANCH   8  25
ATOM     25  O   UNL     1     105.717 125.877 143.596  0.00  0.00    +0.000 OA
ATOM     26  C   UNL     1     106.257 125.692 143.001  0.00  0.00    +0.000 C 
ENDBRANCH   8  25
TORSDOF 5
ENDMDL
MODEL 5
REMARK VINA RESULT:      -7.2     13.637     14.331
REMARK  Name = 3010100
REMARK  5 active torsions:
REMARK  status: ('A' for Active; 'I' for Inactive)
REMARK    1  A    between atoms: O_2  and  C_10
REMARK    2  A    between atoms: O_3  and  C_11
REMARK    3  A    between atoms: O_4  and  C_12
REMARK    4  A    between atoms: O_5  and  C_13
REMARK    5  A    between atoms: C_14  and  C_17
REMARK                            x       y       z     vdW  Elec       q    Type
REMARK                         _______ _______ _______ _____ _____    ______ ____
ROOT
ATOM      1  O   UNL     1     104.418 124.578 147.249  0.00  0.00    +0.000 OA
ATOM      2  O   UNL     1     103.515 124.748 149.609  0.00  0.00    +0.000 OA
ATOM      3  C   UNL     1     103.335 124.361 148.213  0.00  0.00    +0.000 A 
ATOM      4  C   UNL     1     103.627 124.305 147.443  0.00  0.00    +0.000 A 
ATOM      5  C   UNL     1     102.573 124.095 148.385  0.00  0.00    +0.000 A 
ATOM      6  C   UNL     1     103.157 123.982 146.846  0.00  0.00    +0.000 A 
ATOM      7  C   UNL     1     102.104 123.773 147.789  0.00  0.00    +0.000 A 
ATOM      8  C   UNL     1     102.395 123.717 147.019  0.00  0.00    +0.000 A 
ATOM      9  C   UNL     1     104.912 124.915 147.867  0.00  0.00    +0.000 A 
ATOM     10  C   UNL     1     103.814 124.695 148.842  0.00  0.00    +0.000 A 
ATOM     11  C   UNL     1     104.609 124.974 148.669  0.00  0.00    +0.000 A 
ENDROOT
BRANCH   9  13
ATOM     12  O   UNL     1     107.957 125.975 147.161  0.00  0.00    +0.000 OA
ATOM     13  C   UNL     1     105.674 125.181 147.691  0.00  0.00    +0.000 A 
ATOM     14  C   UNL     1     106.325 124.701 147.854  0.00  0.00    +0.000 A 
ATOM     15  C   UNL     1     105.783 125.924 147.351  0.00  0.00    +0.000 A 
ATOM     16  C   UNL     1     107.085 124.966 147.678  0.00  0.00    +0.000 A 
ATOM     17  C   UNL     1     106.544 126.189 147.174  0.00  0.00    +0.000 A 
ATOM     18  C   UNL     1     107.195 125.709 147.338  0.00  0.00    +0.000 A 
ENDBRANCH   9  13
BRANCH   5  19
ATOM     19  O   UNL     1     102.281 124.151 149.155  0.00  0.00    +0.000 OA
ATOM     20  C   UNL     1     102.171 124.892 149.501  0.00  0.00    +0.000 C 
ENDBRANCH   5  19
BRANCH   6  21
ATOM     21  O   UNL     1     103.448 123.926 146.076  0.00  0.00    +0.000 OA
ATOM     22  C   UNL     1     103.708 123.199 145.786  0.00  0.00    +0.000 C 
ENDBRANCH   6  21
BRANCH   7  23
ATOM     23  O   UNL     1     101.342 123.507 147.961  0.00  0.00    +0.000 OA
ATOM     24  C   UNL     1     101.226 122.739 148.239  0.00  0.00    +0.000 C 
ENDBRANCH   7  23
BRANCH   8  25
ATOM     25  O   UNL     1     101.925 123.394 146.422  0.00  0.00    +0.000 OA
ATOM     26  C   UNL     1     101.376 123.868 146.029  0.00  0.00    +0.000 C 
ENDBRANCH   8  25
TORSDOF 5
ENDMDL
MODEL 6
REMARK VINA RESULT:      -7.2      2.373      4.146
REMARK  Name = 3010100
REMARK  5 active torsions:
REMARK  status: ('A' for Active; 'I' for Inactive)
REMARK    1  A    between atoms: O_2  and  C_10
REMARK    2  A    between atoms: O_3  and  C_11
REMARK    3  A    between atoms: O_4  and  C_12
REMARK    4  A    between atoms: O_5  and  C_13
REMARK    5  A    between atoms: C_14  and  C_17
REMARK                            x       y       z     vdW  Elec       q    Type
REMARK                         _______ _______ _______ _____ _____    ______ ____
ROOT
ATOM      1  O   UNL     1     112.557 126.521 138.712  0.00  0.00    +0.000 OA
ATOM      2  O   UNL     1     114.617 125.264 137.945  0.00  0.00    +0.000 OA
ATOM      3  C   UNL     1     113.179 125.503 137.862  0.00  0.00    +0.000 A 
ATOM      4  C   UNL     1     112.506 125.911 138.110  0.00  0.00    +0.000 A 
ATOM      5  C   UNL     1     113.116 124.919 137.282  0.00  0.00    +0.000 A 
ATOM      6  C   UNL     1     111.771 125.735 137.778  0.00  0.00    +0.000 A 
ATOM      7  C   UNL     1     112.382 124.743 136.951  0.00  0.00    +0.000 A 
ATOM      8  C   UNL     1     111.710 125.151 137.199  0.00  0.00    +0.000 A 
ATOM      9  C   UNL     1     113.320 126.709 139.062  0.00  0.00    +0.000 A 
ATOM     10  C   UNL     1     113.949 125.676 138.199  0.00  0.00    +0.000 A 
ATOM     11  C   UNL     1     114.021 126.284 138.804  0.00  0.00    +0.000 A 
ENDROOT
BRANCH   9  13
ATOM     12  O   UNL     1     113.553 129.048 141.378  0.00  0.00    +0.000 OA
ATOM     13  C   UNL     1     113.378 127.294 139.641  0.00  0.00    +0.000 A 
ATOM     14  C   UNL     1     113.399 128.089 139.423  0.00  0.00    +0.000 A 
ATOM     15  C   UNL     1     113.416 127.082 140.438  0.00  0.00    +0.000 A 
ATOM     16  C   UNL     1     113.457 128.673 140.002  0.00  0.00    +0.000 A 
ATOM     17  C   UNL     1     113.474 127.667 141.017  0.00  0.00    +0.000 A 
ATOM     18  C   UNL     1     113.495 128.463 140.798  0.00  0.00    +0.000 A 
ENDBRANCH   9  13
BRANCH   5  19
ATOM     19  O   UNL     1     113.789 124.511 137.034  0.00  0.00    +0.000 OA
ATOM     20  C   UNL     1     114.400 124.914 136.653  0.00  0.00    +0.000 C 
ENDBRANCH   5  19
BRANCH   6  21
ATOM     21  O   UNL     1     111.098 126.143 138.026  0.00  0.00    +0.000 OA
ATOM     22  C   UNL     1     110.585 125.798 138.571  0.00  0.00    +0.000 C 
ENDBRANCH   6  21
BRANCH   7  23
ATOM     23  O   UNL     1     112.320 124.159 136.371  0.00  0.00    +0.000 OA
ATOM     24  C   UNL     1     112.168 123.378 136.586  0.00  0.00    +0.000 C 
ENDBRANCH   7  23
BRANCH   8  25
ATOM     25  O   UNL     1     110.974 124.975 136.867  0.00  0.00    +0.000 OA
ATOM     26  C   UNL     1     110.727 125.365 136.183  0.00  0.00    +0.000 C 
ENDBRANCH   8  25
TORSDOF 5
ENDMDL
MODEL 7
REMARK VINA RESULT:      -7.2      1.298      4.296
REMARK  Name = 3010100
REMARK  5 active torsions:
REMARK  status: ('A' for Active; 'I' for Inactive)
REMARK    1  A    between atoms: O_2  and  C_10
REMARK    2  A    between atoms: O_3  and  C_11
REMARK    3  A    between atoms: O_4  and  C_12
REMARK    4  A    between atoms: O_5  and  C_13
REMARK    5  A    between atoms: C_14  and  C_17
REMARK                            x       y       z     vdW  Elec       q    Type
REMARK                         _______ _______ _______ _____ _____    ______ ____
ROOT
ATOM      1  O   UNL     1     111.336 126.619 136.857  0.00  0.00    +0.000 OA
ATOM      2  O   UNL     1     111.497 124.257 135.956  0.00  0.00    +0.000 OA
ATOM      3  C   UNL     1     112.061 125.350 136.743  0.00  0.00    +0.000 A 
ATOM      4  C   UNL     1     112.011 126.119 137.038  0.00  0.00    +0.000 A 
ATOM      5  C   UNL     1     112.715 124.881 136.924  0.00  0.00    +0.000 A 
ATOM      6  C   UNL     1     112.616 126.419 137.514  0.00  0.00    +0.000 A 
ATOM      7  C   UNL     1     113.319 125.180 137.400  0.00  0.00    +0.000 A 
ATOM      8  C   UNL     1     113.269 125.949 137.695  0.00  0.00    +0.000 A 
ATOM      9  C   UNL     1     110.703 126.312 136.361  0.00  0.00    +0.000 A 
ATOM     10  C   UNL     1     111.439 125.027 136.247  0.00  0.00    +0.000 A 
ATOM     11  C   UNL     1     110.755 125.511 136.054  0.00  0.00    +0.000 A 
ENDROOT
BRANCH   9  13
ATOM     12  O   UNL     1     108.095 128.202 135.644  0.00  0.00    +0.000 OA
ATOM     13  C   UNL     1     110.051 126.784 136.182  0.00  0.00    +0.000 A 
ATOM     14  C   UNL     1     110.062 127.265 135.511  0.00  0.00    +0.000 A 
ATOM     15  C   UNL     1     109.388 126.776 136.673  0.00  0.00    +0.000 A 
ATOM     16  C   UNL     1     109.411 127.737 135.332  0.00  0.00    +0.000 A 
ATOM     17  C   UNL     1     108.736 127.248 136.494  0.00  0.00    +0.000 A 
ATOM     18  C   UNL     1     108.747 127.729 135.823  0.00  0.00    +0.000 A 
ENDBRANCH   9  13
BRANCH   5  19
ATOM     19  O   UNL     1     112.765 124.112 136.630  0.00  0.00    +0.000 OA
ATOM     20  C   UNL     1     112.232 123.537 136.885  0.00  0.00    +0.000 C 
ENDBRANCH   5  19
BRANCH   6  21
ATOM     21  O   UNL     1     112.566 127.188 137.808  0.00  0.00    +0.000 OA
ATOM     22  C   UNL     1     112.982 127.798 137.441  0.00  0.00    +0.000 C 
ENDBRANCH   6  21
BRANCH   7  23
ATOM     23  O   UNL     1     113.973 124.711 137.581  0.00  0.00    +0.000 OA
ATOM     24  C   UNL     1     114.651 124.750 137.115  0.00  0.00    +0.000 C 
ENDBRANCH   7  23
BRANCH   8  25
ATOM     25  O   UNL     1     113.873 126.249 138.171  0.00  0.00    +0.000 OA
ATOM     26  C   UNL     1     113.812 126.202 138.992  0.00  0.00    +0.000 C 
ENDBRANCH   8  25
TORSDOF 5
ENDMDL
MODEL 8
REMARK VINA RESULT:      -7.2      1.772      3.655
REMARK  Name = 3010100
REMARK  5 active torsions:
REMARK  status: ('A' for Active; 'I' for Inactive)
REMARK    1  A    between atoms: O_2  and  C_10
REMARK    2  A    between atoms: O_3  and  C_11
REMARK    3  A    between atoms: O_4  and  C_12
REMARK    4  A    between atoms: O_5  and  C_13
REMARK    5  A    between atoms: C_14  and  C_17
REMARK                            x       y       z     vdW  Elec       q    Type
REMARK                         _______ _______ _______ _____ _____    ______ ____
ROOT
ATOM      1  O   UNL     1     112.731 127.634 136.054  0.00  0.00    +0.000 OA
ATOM      2  O   UNL     1     114.354 125.870 136.872  0.00  0.00    +0.000 OA
ATOM      3  C   UNL     1     113.007 126.252 136.458  0.00  0.00    +0.000 A 
ATOM      4  C   UNL     1     112.476 126.825 136.191  0.00  0.00    +0.000 A 
ATOM      5  C   UNL     1     112.749 125.479 136.586  0.00  0.00    +0.000 A 
ATOM      6  C   UNL     1     111.687 126.624 136.053  0.00  0.00    +0.000 A 
ATOM      7  C   UNL     1     111.961 125.278 136.447  0.00  0.00    +0.000 A 
ATOM      8  C   UNL     1     111.431 125.851 136.181  0.00  0.00    +0.000 A 
ATOM      9  C   UNL     1     113.552 127.849 136.197  0.00  0.00    +0.000 A 
ATOM     10  C   UNL     1     113.830 126.448 136.606  0.00  0.00    +0.000 A 
ATOM     11  C   UNL     1     114.104 127.253 136.474  0.00  0.00    +0.000 A 
ENDROOT
BRANCH   9  13
ATOM     12  O   UNL     1     114.567 130.946 135.681  0.00  0.00    +0.000 OA
ATOM     13  C   UNL     1     113.806 128.623 136.068  0.00  0.00    +0.000 A 
ATOM     14  C   UNL     1     113.715 129.191 136.660  0.00  0.00    +0.000 A 
ATOM     15  C   UNL     1     114.150 128.830 135.347  0.00  0.00    +0.000 A 
ATOM     16  C   UNL     1     113.969 129.964 136.531  0.00  0.00    +0.000 A 
ATOM     17  C   UNL     1     114.403 129.604 135.218  0.00  0.00    +0.000 A 
ATOM     18  C   UNL     1     114.313 130.171 135.811  0.00  0.00    +0.000 A 
ENDBRANCH   9  13
BRANCH   5  19
ATOM     19  O   UNL     1     113.279 124.906 136.852  0.00  0.00    +0.000 OA
ATOM     20  C   UNL     1     113.913 124.677 136.377  0.00  0.00    +0.000 C 
ENDBRANCH   5  19
BRANCH   6  21
ATOM     21  O   UNL     1     111.157 127.197 135.786  0.00  0.00    +0.000 OA
ATOM     22  C   UNL     1     110.632 127.550 136.315  0.00  0.00    +0.000 C 
ENDBRANCH   6  21
BRANCH   7  23
ATOM     23  O   UNL     1     111.703 124.505 136.575  0.00  0.00    +0.000 OA
ATOM     24  C   UNL     1     111.492 124.260 137.333  0.00  0.00    +0.000 C 
ENDBRANCH   7  23
BRANCH   8  25
ATOM     25  O   UNL     1     110.642 125.650 136.042  0.00  0.00    +0.000 OA
ATOM     26  C   UNL     1     110.404 125.411 135.289  0.00  0.00    +0.000 C 
ENDBRANCH   8  25
TORSDOF 5
ENDMDL
MODEL 9
REMARK VINA RESULT:      -7.1      9.816     11.970
REMARK  Name = 3010100
REMARK  5 active torsions:
REMARK  status: ('A' for Active; 'I' for Inactive)
REMARK    1  A    between atoms: O_2  and  C_10
REMARK    2  A    between atoms: O_3  and  C_11
REMARK    3  A    between atoms: O_4  and  C_12
REMARK    4  A    between atoms: O_5  and  C_13
REMARK    5  A    between atoms: C_14  and  C_17
REMARK                            x       y       z     vdW  Elec       q    Type
REMARK                         _______ _______ _______ _____ _____    ______ ____
ROOT
ATOM      1  O   UNL     1     103.113 131.667 141.245  0.00  0.00    +0.000 OA
ATOM      2  O   UNL     1     100.760 131.870 142.162  0.00  0.00    +0.000 OA
ATOM      3  C   UNL     1     101.976 132.498 141.652  0.00  0.00    +0.000 A 
ATOM      4  C   UNL     1     102.742 132.435 141.353  0.00  0.00    +0.000 A 
ATOM      5  C   UNL     1     101.632 133.242 141.750  0.00  0.00    +0.000 A 
ATOM      6  C   UNL     1     103.165 133.116 141.152  0.00  0.00    +0.000 A 
ATOM      7  C   UNL     1     102.053 133.921 141.550  0.00  0.00    +0.000 A 
ATOM      8  C   UNL     1     102.820 133.858 141.251  0.00  0.00    +0.000 A 
ATOM      9  C   UNL     1     102.678 130.955 141.452  0.00  0.00    +0.000 A 
ATOM     10  C   UNL     1     101.526 131.798 141.864  0.00  0.00    +0.000 A 
ATOM     11  C   UNL     1     101.880 131.020 141.763  0.00  0.00    +0.000 A 
ENDROOT
BRANCH   9  13
ATOM     12  O   UNL     1     104.069 127.989 141.054  0.00  0.00    +0.000 OA
ATOM     13  C   UNL     1     103.026 130.213 141.353  0.00  0.00    +0.000 A 
ATOM     14  C   UNL     1     103.549 129.923 141.921  0.00  0.00    +0.000 A 
ATOM     15  C   UNL     1     102.850 129.761 140.685  0.00  0.00    +0.000 A 
ATOM     16  C   UNL     1     103.896 129.183 141.822  0.00  0.00    +0.000 A 
ATOM     17  C   UNL     1     103.198 129.020 140.586  0.00  0.00    +0.000 A 
ATOM     18  C   UNL     1     103.721 128.731 141.154  0.00  0.00    +0.000 A 
ENDBRANCH   9  13
BRANCH   5  19
ATOM     19  O   UNL     1     100.866 133.305 142.049  0.00  0.00    +0.000 OA
ATOM     20  C   UNL     1     100.710 133.103 142.833  0.00  0.00    +0.000 C 
ENDBRANCH   5  19
BRANCH   6  21
ATOM     21  O   UNL     1     103.931 133.052 140.854  0.00  0.00    +0.000 OA
ATOM     22  C   UNL     1     104.065 133.125 140.043  0.00  0.00    +0.000 C 
ENDBRANCH   6  21
BRANCH   7  23
ATOM     23  O   UNL     1     101.709 134.665 141.648  0.00  0.00    +0.000 OA
ATOM     24  C   UNL     1     101.294 135.013 141.027  0.00  0.00    +0.000 C 
ENDBRANCH   7  23
BRANCH   8  25
ATOM     25  O   UNL     1     103.242 134.539 141.050  0.00  0.00    +0.000 OA
ATOM     26  C   UNL     1     103.725 134.904 141.611  0.00  0.00    +0.000 C 
ENDBRANCH   8  25
TORSDOF 5
ENDMDL
MODEL 10
REMARK VINA RESULT:      -7.1      2.016      3.617
REMARK  Name = 3010100
REMARK  5 active torsions:
REMARK  status: ('A' for Active; 'I' for Inactive)
REMARK    1  A    between atoms: O_2  and  C_10
REMARK    2  A    between atoms: O_3  and  C_11
REMARK    3  A    between atoms: O_4  and  C_12
REMARK    4  A    between atoms: O_5  and  C_13
REMARK    5  A    between atoms: C_14  and  C_17
REMARK                            x       y       z     vdW  Elec       q    Type
REMARK                         _______ _______ _______ _____ _____    ______ ____
ROOT
ATOM      1  O   UNL     1     113.375 128.018 136.100  0.00  0.00    +0.000 OA
ATOM      2  O   UNL     1     111.167 128.439 134.932  0.00  0.00    +0.000 OA
ATOM      3  C   UNL     1     112.015 127.589 135.763  0.00  0.00    +0.000 A 
ATOM      4  C   UNL     1     112.733 127.449 136.145  0.00  0.00    +0.000 A 
ATOM      5  C   UNL     1     111.406 127.033 135.814  0.00  0.00    +0.000 A 
ATOM      6  C   UNL     1     112.842 126.754 136.577  0.00  0.00    +0.000 A 
ATOM      7  C   UNL     1     111.515 126.339 136.245  0.00  0.00    +0.000 A 
ATOM      8  C   UNL     1     112.234 126.200 136.627  0.00  0.00    +0.000 A 
ATOM      9  C   UNL     1     113.266 128.744 135.651  0.00  0.00    +0.000 A 
ATOM     10  C   UNL     1     111.888 128.307 135.311  0.00  0.00    +0.000 A 
ATOM     11  C   UNL     1     112.519 128.889 135.254  0.00  0.00    +0.000 A 
ENDROOT
BRANCH   9  13
ATOM     12  O   UNL     1     115.709 130.954 135.459  0.00  0.00    +0.000 OA
ATOM     13  C   UNL     1     113.877 129.297 135.603  0.00  0.00    +0.000 A 
ATOM     14  C   UNL     1     113.979 129.852 136.204  0.00  0.00    +0.000 A 
ATOM     15  C   UNL     1     114.386 129.293 134.953  0.00  0.00    +0.000 A 
ATOM     16  C   UNL     1     114.589 130.404 136.156  0.00  0.00    +0.000 A 
ATOM     17  C   UNL     1     114.997 129.846 134.906  0.00  0.00    +0.000 A 
ATOM     18  C   UNL     1     115.098 130.402 135.507  0.00  0.00    +0.000 A 
ENDBRANCH   9  13
BRANCH   5  19
ATOM     19  O   UNL     1     110.688 127.173 135.433  0.00  0.00    +0.000 OA
ATOM     20  C   UNL     1     110.203 127.793 135.679  0.00  0.00    +0.000 C 
ENDBRANCH   5  19
BRANCH   6  21
ATOM     21  O   UNL     1     113.560 126.614 136.958  0.00  0.00    +0.000 OA
ATOM     22  C   UNL     1     114.111 126.100 136.624  0.00  0.00    +0.000 C 
ENDBRANCH   6  21
BRANCH   7  23
ATOM     23  O   UNL     1     110.907 125.784 136.296  0.00  0.00    +0.000 OA
ATOM     24  C   UNL     1     110.839 125.193 135.726  0.00  0.00    +0.000 C 
ENDBRANCH   7  23
BRANCH   8  25
ATOM     25  O   UNL     1     112.343 125.505 137.059  0.00  0.00    +0.000 OA
ATOM     26  C   UNL     1     112.142 125.481 137.859  0.00  0.00    +0.000 C 
ENDBRANCH   8  25
TORSDOF 5
ENDMDL
