MODEL 1
REMARK VINA RESULT:      -9.2      0.000      0.000
REMARK  Name = 51136398
REMARK  5 active torsions:
REMARK  status: ('A' for Active; 'I' for Inactive)
REMARK    1  A    between atoms: O_2  and  C_15
REMARK    2  A    between atoms: O_2  and  C_17
REMARK    3  A    between atoms: O_8  and  C_18
REMARK    4  A    between atoms: C_14  and  C_16
REMARK    5  A    between atoms: C_24  and  C_26
REMARK                            x       y       z     vdW  Elec       q    Type
REMARK                         _______ _______ _______ _____ _____    ______ ____
ROOT
ATOM      1  O   UNL     1     112.590 126.592 136.354  0.00  0.00    +0.000 OA
ATOM      2  O   UNL     1     109.916 126.073 135.375  0.00  0.00    +0.000 OA
ATOM      3  O   UNL     1     110.747 124.959 135.763  0.00  0.00    +0.000 OA
ATOM      4  C   UNL     1     110.990 127.952 135.660  0.00  0.00    +0.000 A 
ATOM      5  C   UNL     1     111.712 127.676 135.951  0.00  0.00    +0.000 A 
ATOM      6  C   UNL     1     110.392 127.417 135.468  0.00  0.00    +0.000 A 
ATOM      7  C   UNL     1     111.834 126.866 136.050  0.00  0.00    +0.000 A 
ATOM      8  C   UNL     1     111.235 126.332 135.858  0.00  0.00    +0.000 A 
ATOM      9  C   UNL     1     110.515 126.607 135.567  0.00  0.00    +0.000 A 
ATOM     10  C   UNL     1     111.351 125.487 135.957  0.00  0.00    +0.000 A 
ATOM     11  C   UNL     1     112.723 125.750 136.460  0.00  0.00    +0.000 A 
ATOM     12  C   UNL     1     112.100 125.193 136.260  0.00  0.00    +0.000 A 
ENDROOT
BRANCH  11  13
ATOM     13  C   UNL     1     113.446 125.477 136.751  0.00  0.00    +0.000 A 
ATOM     14  C   UNL     1     113.583 125.461 137.564  0.00  0.00    +0.000 A 
ATOM     15  C   UNL     1     114.031 125.221 136.229  0.00  0.00    +0.000 A 
ATOM     16  C   UNL     1     114.305 125.188 137.855  0.00  0.00    +0.000 A 
ATOM     17  C   UNL     1     114.753 124.949 136.519  0.00  0.00    +0.000 A 
ATOM     18  C   UNL     1     114.890 124.932 137.332  0.00  0.00    +0.000 A 
ENDBRANCH  11  13
BRANCH   5  19
ATOM     19  O   UNL     1     112.310 128.211 136.143  0.00  0.00    +0.000 OA
ATOM     20  C   UNL     1     112.814 128.495 135.555  0.00  0.00    +0.000 C 
ENDBRANCH   5  19
BRANCH   4  21
ATOM     21  O   UNL     1     110.867 128.762 135.561  0.00  0.00    +0.000 OA
BRANCH  21  30
ATOM     22  O   UNL     1     110.079 129.067 136.713  0.00  0.00    +0.000 OA
ATOM     23  O   UNL     1     108.489 130.324 135.293  0.00  0.00    +0.000 OA
ATOM     24  O   UNL     1     108.231 130.209 136.917  0.00  0.00    +0.000 OA
ATOM     25  O   UNL     1     109.808 129.600 134.614  0.00  0.00    +0.000 OA
ATOM     26  C   UNL     1     109.019 129.905 135.766  0.00  0.00    +0.000 C 
ATOM     27  C   UNL     1     108.891 129.847 136.579  0.00  0.00    +0.000 C 
ATOM     28  C   UNL     1     109.679 129.542 135.427  0.00  0.00    +0.000 C 
ATOM     29  C   UNL     1     109.420 129.428 137.052  0.00  0.00    +0.000 C 
ATOM     30  C   UNL     1     110.209 129.123 135.900  0.00  0.00    +0.000 C 
BRANCH  29  32
ATOM     31  O   UNL     1     109.924 129.441 138.390  0.00  0.00    +0.000 OA
ATOM     32  C   UNL     1     109.291 129.371 137.864  0.00  0.00    +0.000 C 
ENDBRANCH  29  32
ENDBRANCH  21  30
ENDBRANCH   4  21
TORSDOF 5
ENDMDL
MODEL 2
REMARK VINA RESULT:      -9.2      0.849      1.878
REMARK  Name = 51136398
REMARK  5 active torsions:
REMARK  status: ('A' for Active; 'I' for Inactive)
REMARK    1  A    between atoms: O_2  and  C_15
REMARK    2  A    between atoms: O_2  and  C_17
REMARK    3  A    between atoms: O_8  and  C_18
REMARK    4  A    between atoms: C_14  and  C_16
REMARK    5  A    between atoms: C_24  and  C_26
REMARK                            x       y       z     vdW  Elec       q    Type
REMARK                         _______ _______ _______ _____ _____    ______ ____
ROOT
ATOM      1  O   UNL     1     112.594 126.858 136.485  0.00  0.00    +0.000 OA
ATOM      2  O   UNL     1     112.642 129.596 135.544  0.00  0.00    +0.000 OA
ATOM      3  O   UNL     1     113.888 128.950 135.881  0.00  0.00    +0.000 OA
ATOM      4  C   UNL     1     110.972 128.227 135.865  0.00  0.00    +0.000 A 
ATOM      5  C   UNL     1     111.370 127.556 136.133  0.00  0.00    +0.000 A 
ATOM      6  C   UNL     1     111.397 128.907 135.669  0.00  0.00    +0.000 A 
ATOM      7  C   UNL     1     112.192 127.564 136.205  0.00  0.00    +0.000 A 
ATOM      8  C   UNL     1     112.616 128.244 136.008  0.00  0.00    +0.000 A 
ATOM      9  C   UNL     1     112.218 128.915 135.741  0.00  0.00    +0.000 A 
ATOM     10  C   UNL     1     113.471 128.266 136.079  0.00  0.00    +0.000 A 
ATOM     11  C   UNL     1     113.450 126.862 136.562  0.00  0.00    +0.000 A 
ATOM     12  C   UNL     1     113.892 127.569 136.358  0.00  0.00    +0.000 A 
ENDROOT
BRANCH  11  13
ATOM     13  C   UNL     1     113.845 126.189 136.831  0.00  0.00    +0.000 A 
ATOM     14  C   UNL     1     114.212 125.684 136.292  0.00  0.00    +0.000 A 
ATOM     15  C   UNL     1     113.872 126.021 137.638  0.00  0.00    +0.000 A 
ATOM     16  C   UNL     1     114.608 125.011 136.560  0.00  0.00    +0.000 A 
ATOM     17  C   UNL     1     114.267 125.349 137.907  0.00  0.00    +0.000 A 
ATOM     18  C   UNL     1     114.635 124.844 137.368  0.00  0.00    +0.000 A 
ENDBRANCH  11  13
BRANCH   5  19
ATOM     19  O   UNL     1     110.945 126.876 136.329  0.00  0.00    +0.000 OA
ATOM     20  C   UNL     1     110.743 126.332 135.743  0.00  0.00    +0.000 C 
ENDBRANCH   5  19
BRANCH   4  21
ATOM     21  O   UNL     1     110.150 128.219 135.793  0.00  0.00    +0.000 OA
BRANCH  21  30
ATOM     22  O   UNL     1     109.777 129.011 136.922  0.00  0.00    +0.000 OA
ATOM     23  O   UNL     1     108.202 130.290 135.504  0.00  0.00    +0.000 OA
ATOM     24  O   UNL     1     108.354 130.656 137.105  0.00  0.00    +0.000 OA
ATOM     25  O   UNL     1     109.100 129.072 134.848  0.00  0.00    +0.000 OA
ATOM     26  C   UNL     1     108.727 129.864 135.977  0.00  0.00    +0.000 C 
ATOM     27  C   UNL     1     108.803 130.046 136.777  0.00  0.00    +0.000 C 
ATOM     28  C   UNL     1     109.177 129.254 135.648  0.00  0.00    +0.000 C 
ATOM     29  C   UNL     1     109.328 129.620 137.250  0.00  0.00    +0.000 C 
ATOM     30  C   UNL     1     109.702 128.828 136.121  0.00  0.00    +0.000 C 
BRANCH  29  32
ATOM     31  O   UNL     1     109.359 129.205 138.617  0.00  0.00    +0.000 OA
ATOM     32  C   UNL     1     109.404 129.803 138.050  0.00  0.00    +0.000 C 
ENDBRANCH  29  32
ENDBRANCH  21  30
ENDBRANCH   4  21
TORSDOF 5
ENDMDL
MODEL 3
REMARK VINA RESULT:      -8.9      3.686      4.863
REMARK  Name = 51136398
REMARK  5 active torsions:
REMARK  status: ('A' for Active; 'I' for Inactive)
REMARK    1  A    between atoms: O_2  and  C_15
REMARK    2  A    between atoms: O_2  and  C_17
REMARK    3  A    between atoms: O_8  and  C_18
REMARK    4  A    between atoms: C_14  and  C_16
REMARK    5  A    between atoms: C_24  and  C_26
REMARK                            x       y       z     vdW  Elec       q    Type
REMARK                         _______ _______ _______ _____ _____    ______ ____
ROOT
ATOM      1  O   UNL     1     113.297 126.739 138.551  0.00  0.00    +0.000 OA
ATOM      2  O   UNL     1     112.358 129.403 137.914  0.00  0.00    +0.000 OA
ATOM      3  O   UNL     1     112.545 128.452 136.844  0.00  0.00    +0.000 OA
ATOM      4  C   UNL     1     112.873 128.493 139.830  0.00  0.00    +0.000 A 
ATOM      5  C   UNL     1     113.092 127.734 139.589  0.00  0.00    +0.000 A 
ATOM      6  C   UNL     1     112.629 129.048 139.272  0.00  0.00    +0.000 A 
ATOM      7  C   UNL     1     113.066 127.532 138.789  0.00  0.00    +0.000 A 
ATOM      8  C   UNL     1     112.822 128.089 138.232  0.00  0.00    +0.000 A 
ATOM      9  C   UNL     1     112.603 128.846 138.472  0.00  0.00    +0.000 A 
ATOM     10  C   UNL     1     112.791 127.890 137.396  0.00  0.00    +0.000 A 
ATOM     11  C   UNL     1     113.272 126.523 137.720  0.00  0.00    +0.000 A 
ATOM     12  C   UNL     1     113.018 127.102 137.138  0.00  0.00    +0.000 A 
ENDROOT
BRANCH  11  13
ATOM     13  C   UNL     1     113.492 125.764 137.482  0.00  0.00    +0.000 A 
ATOM     14  C   UNL     1     114.290 125.561 137.435  0.00  0.00    +0.000 A 
ATOM     15  C   UNL     1     112.913 125.209 137.290  0.00  0.00    +0.000 A 
ATOM     16  C   UNL     1     114.509 124.803 137.197  0.00  0.00    +0.000 A 
ATOM     17  C   UNL     1     113.131 124.450 137.052  0.00  0.00    +0.000 A 
ATOM     18  C   UNL     1     113.930 124.247 137.005  0.00  0.00    +0.000 A 
ENDBRANCH  11  13
BRANCH   5  19
ATOM     19  O   UNL     1     113.337 127.179 140.148  0.00  0.00    +0.000 OA
ATOM     20  C   UNL     1     112.778 126.728 140.554  0.00  0.00    +0.000 C 
ENDBRANCH   5  19
BRANCH   4  21
ATOM     21  O   UNL     1     112.899 128.695 140.630  0.00  0.00    +0.000 OA
BRANCH  21  30
ATOM     22  O   UNL     1     114.010 129.593 140.605  0.00  0.00    +0.000 OA
ATOM     23  O   UNL     1     112.785 131.149 142.091  0.00  0.00    +0.000 OA
ATOM     24  O   UNL     1     114.304 131.528 141.571  0.00  0.00    +0.000 OA
ATOM     25  O   UNL     1     112.082 129.732 141.620  0.00  0.00    +0.000 OA
ATOM     26  C   UNL     1     113.194 130.630 141.596  0.00  0.00    +0.000 C 
ATOM     27  C   UNL     1     113.953 130.819 141.335  0.00  0.00    +0.000 C 
ATOM     28  C   UNL     1     112.842 129.921 141.360  0.00  0.00    +0.000 C 
ATOM     29  C   UNL     1     114.361 130.301 140.840  0.00  0.00    +0.000 C 
ATOM     30  C   UNL     1     113.250 129.403 140.865  0.00  0.00    +0.000 C 
BRANCH  29  32
ATOM     31  O   UNL     1     115.710 129.914 140.570  0.00  0.00    +0.000 OA
ATOM     32  C   UNL     1     115.120 130.491 140.581  0.00  0.00    +0.000 C 
ENDBRANCH  29  32
ENDBRANCH  21  30
ENDBRANCH   4  21
TORSDOF 5
ENDMDL
MODEL 4
REMARK VINA RESULT:      -8.9      1.441      2.286
REMARK  Name = 51136398
REMARK  5 active torsions:
REMARK  status: ('A' for Active; 'I' for Inactive)
REMARK    1  A    between atoms: O_2  and  C_15
REMARK    2  A    between atoms: O_2  and  C_17
REMARK    3  A    between atoms: O_8  and  C_18
REMARK    4  A    between atoms: C_14  and  C_16
REMARK    5  A    between atoms: C_24  and  C_26
REMARK                            x       y       z     vdW  Elec       q    Type
REMARK                         _______ _______ _______ _____ _____    ______ ____
ROOT
ATOM      1  O   UNL     1     112.594 126.953 137.245  0.00  0.00    +0.000 OA
ATOM      2  O   UNL     1     112.645 129.499 135.868  0.00  0.00    +0.000 OA
ATOM      3  O   UNL     1     113.677 128.530 135.585  0.00  0.00    +0.000 OA
ATOM      4  C   UNL     1     111.253 128.708 137.352  0.00  0.00    +0.000 A 
ATOM      5  C   UNL     1     111.581 127.964 137.491  0.00  0.00    +0.000 A 
ATOM      6  C   UNL     1     111.609 129.219 136.810  0.00  0.00    +0.000 A 
ATOM      7  C   UNL     1     112.263 127.731 137.090  0.00  0.00    +0.000 A 
ATOM      8  C   UNL     1     112.618 128.243 136.549  0.00  0.00    +0.000 A 
ATOM      9  C   UNL     1     112.291 128.987 136.409  0.00  0.00    +0.000 A 
ATOM     10  C   UNL     1     113.328 128.012 136.125  0.00  0.00    +0.000 A 
ATOM     11  C   UNL     1     113.305 126.705 136.830  0.00  0.00    +0.000 A 
ATOM     12  C   UNL     1     113.675 127.238 136.266  0.00  0.00    +0.000 A 
ENDROOT
BRANCH  11  13
ATOM     13  C   UNL     1     113.630 125.960 136.972  0.00  0.00    +0.000 A 
ATOM     14  C   UNL     1     113.363 125.306 136.546  0.00  0.00    +0.000 A 
ATOM     15  C   UNL     1     114.221 125.870 137.540  0.00  0.00    +0.000 A 
ATOM     16  C   UNL     1     113.689 124.561 136.688  0.00  0.00    +0.000 A 
ATOM     17  C   UNL     1     114.547 125.126 137.682  0.00  0.00    +0.000 A 
ATOM     18  C   UNL     1     114.280 124.471 137.256  0.00  0.00    +0.000 A 
ENDBRANCH  11  13
BRANCH   5  19
ATOM     19  O   UNL     1     111.226 127.453 138.033  0.00  0.00    +0.000 OA
ATOM     20  C   UNL     1     111.403 127.514 138.836  0.00  0.00    +0.000 C 
ENDBRANCH   5  19
BRANCH   4  21
ATOM     21  O   UNL     1     110.571 128.941 137.753  0.00  0.00    +0.000 OA
BRANCH  21  30
ATOM     22  O   UNL     1     109.599 128.748 136.723  0.00  0.00    +0.000 OA
ATOM     23  O   UNL     1     108.578 130.933 137.277  0.00  0.00    +0.000 OA
ATOM     24  O   UNL     1     107.947 130.012 136.063  0.00  0.00    +0.000 OA
ATOM     25  O   UNL     1     109.890 130.398 138.122  0.00  0.00    +0.000 OA
ATOM     26  C   UNL     1     108.919 130.205 137.092  0.00  0.00    +0.000 C 
ATOM     27  C   UNL     1     108.603 129.744 136.485  0.00  0.00    +0.000 C 
ATOM     28  C   UNL     1     109.575 129.937 137.515  0.00  0.00    +0.000 C 
ATOM     29  C   UNL     1     108.944 129.015 136.301  0.00  0.00    +0.000 C 
ATOM     30  C   UNL     1     109.916 129.208 137.331  0.00  0.00    +0.000 C 
BRANCH  29  32
ATOM     31  O   UNL     1     108.444 127.762 135.830  0.00  0.00    +0.000 OA
ATOM     32  C   UNL     1     108.628 128.555 135.694  0.00  0.00    +0.000 C 
ENDBRANCH  29  32
ENDBRANCH  21  30
ENDBRANCH   4  21
TORSDOF 5
ENDMDL
MODEL 5
REMARK VINA RESULT:      -8.8      1.436      1.562
REMARK  Name = 51136398
REMARK  5 active torsions:
REMARK  status: ('A' for Active; 'I' for Inactive)
REMARK    1  A    between atoms: O_2  and  C_15
REMARK    2  A    between atoms: O_2  and  C_17
REMARK    3  A    between atoms: O_8  and  C_18
REMARK    4  A    between atoms: C_14  and  C_16
REMARK    5  A    between atoms: C_24  and  C_26
REMARK                            x       y       z     vdW  Elec       q    Type
REMARK                         _______ _______ _______ _____ _____    ______ ____
ROOT
ATOM      1  O   UNL     1     111.989 126.158 136.970  0.00  0.00    +0.000 OA
ATOM      2  O   UNL     1     109.463 126.284 138.378  0.00  0.00    +0.000 OA
ATOM      3  O   UNL     1     110.494 125.402 138.869  0.00  0.00    +0.000 OA
ATOM      4  C   UNL     1     110.156 127.338 136.596  0.00  0.00    +0.000 A 
ATOM      5  C   UNL     1     110.918 127.029 136.519  0.00  0.00    +0.000 A 
ATOM      6  C   UNL     1     109.671 127.089 137.216  0.00  0.00    +0.000 A 
ATOM      7  C   UNL     1     111.194 126.472 137.062  0.00  0.00    +0.000 A 
ATOM      8  C   UNL     1     110.709 126.224 137.681  0.00  0.00    +0.000 A 
ATOM      9  C   UNL     1     109.948 126.532 137.759  0.00  0.00    +0.000 A 
ATOM     10  C   UNL     1     110.985 125.645 138.252  0.00  0.00    +0.000 A 
ATOM     11  C   UNL     1     112.282 125.578 137.532  0.00  0.00    +0.000 A 
ATOM     12  C   UNL     1     111.777 125.320 138.178  0.00  0.00    +0.000 A 
ENDROOT
BRANCH  11  13
ATOM     13  C   UNL     1     113.044 125.272 137.452  0.00  0.00    +0.000 A 
ATOM     14  C   UNL     1     113.167 124.582 137.017  0.00  0.00    +0.000 A 
ATOM     15  C   UNL     1     113.682 125.654 137.809  0.00  0.00    +0.000 A 
ATOM     16  C   UNL     1     113.929 124.275 136.937  0.00  0.00    +0.000 A 
ATOM     17  C   UNL     1     114.444 125.348 137.729  0.00  0.00    +0.000 A 
ATOM     18  C   UNL     1     114.567 124.659 137.294  0.00  0.00    +0.000 A 
ENDBRANCH  11  13
BRANCH   5  19
ATOM     19  O   UNL     1     111.402 127.277 135.899  0.00  0.00    +0.000 OA
ATOM     20  C   UNL     1     111.333 126.928 135.155  0.00  0.00    +0.000 C 
ENDBRANCH   5  19
BRANCH   4  21
ATOM     21  O   UNL     1     109.879 127.894 136.054  0.00  0.00    +0.000 OA
BRANCH  21  30
ATOM     22  O   UNL     1     109.956 129.063 136.872  0.00  0.00    +0.000 OA
ATOM     23  O   UNL     1     107.755 129.806 136.018  0.00  0.00    +0.000 OA
ATOM     24  O   UNL     1     108.565 130.726 137.121  0.00  0.00    +0.000 OA
ATOM     25  O   UNL     1     108.412 128.389 135.485  0.00  0.00    +0.000 OA
ATOM     26  C   UNL     1     108.488 129.558 136.303  0.00  0.00    +0.000 C 
ATOM     27  C   UNL     1     108.894 130.018 136.854  0.00  0.00    +0.000 C 
ATOM     28  C   UNL     1     108.817 128.849 136.036  0.00  0.00    +0.000 C 
ATOM     29  C   UNL     1     109.628 129.771 137.139  0.00  0.00    +0.000 C 
ATOM     30  C   UNL     1     109.551 128.602 136.321  0.00  0.00    +0.000 C 
BRANCH  29  32
ATOM     31  O   UNL     1     110.844 130.357 137.607  0.00  0.00    +0.000 OA
ATOM     32  C   UNL     1     110.032 130.231 137.690  0.00  0.00    +0.000 C 
ENDBRANCH  29  32
ENDBRANCH  21  30
ENDBRANCH   4  21
TORSDOF 5
ENDMDL
MODEL 6
REMARK VINA RESULT:      -8.8      2.121      3.391
REMARK  Name = 51136398
REMARK  5 active torsions:
REMARK  status: ('A' for Active; 'I' for Inactive)
REMARK    1  A    between atoms: O_2  and  C_15
REMARK    2  A    between atoms: O_2  and  C_17
REMARK    3  A    between atoms: O_8  and  C_18
REMARK    4  A    between atoms: C_14  and  C_16
REMARK    5  A    between atoms: C_24  and  C_26
REMARK                            x       y       z     vdW  Elec       q    Type
REMARK                         _______ _______ _______ _____ _____    ______ ____
ROOT
ATOM      1  O   UNL     1     110.332 128.147 135.884  0.00  0.00    +0.000 OA
ATOM      2  O   UNL     1     108.051 129.927 135.963  0.00  0.00    +0.000 OA
ATOM      3  O   UNL     1     107.831 128.517 135.745  0.00  0.00    +0.000 OA
ATOM      4  C   UNL     1     110.185 130.333 136.184  0.00  0.00    +0.000 A 
ATOM      5  C   UNL     1     110.497 129.573 136.100  0.00  0.00    +0.000 A 
ATOM      6  C   UNL     1     109.369 130.450 136.138  0.00  0.00    +0.000 A 
ATOM      7  C   UNL     1     109.994 128.932 135.970  0.00  0.00    +0.000 A 
ATOM      8  C   UNL     1     109.179 129.051 135.924  0.00  0.00    +0.000 A 
ATOM      9  C   UNL     1     108.867 129.809 136.008  0.00  0.00    +0.000 A 
ATOM     10  C   UNL     1     108.645 128.391 135.789  0.00  0.00    +0.000 A 
ATOM     11  C   UNL     1     109.814 127.475 135.748  0.00  0.00    +0.000 A 
ATOM     12  C   UNL     1     108.965 127.598 135.701  0.00  0.00    +0.000 A 
ENDROOT
BRANCH  11  13
ATOM     13  C   UNL     1     110.129 126.717 135.664  0.00  0.00    +0.000 A 
ATOM     14  C   UNL     1     110.359 126.290 136.331  0.00  0.00    +0.000 A 
ATOM     15  C   UNL     1     110.214 126.387 134.913  0.00  0.00    +0.000 A 
ATOM     16  C   UNL     1     110.674 125.532 136.248  0.00  0.00    +0.000 A 
ATOM     17  C   UNL     1     110.529 125.630 134.829  0.00  0.00    +0.000 A 
ATOM     18  C   UNL     1     110.759 125.202 135.496  0.00  0.00    +0.000 A 
ENDBRANCH  11  13
BRANCH   5  19
ATOM     19  O   UNL     1     111.312 129.456 136.145  0.00  0.00    +0.000 OA
ATOM     20  C   UNL     1     111.781 129.549 135.473  0.00  0.00    +0.000 C 
ENDBRANCH   5  19
BRANCH   4  21
ATOM     21  O   UNL     1     110.687 130.974 136.314  0.00  0.00    +0.000 OA
BRANCH  21  30
ATOM     22  O   UNL     1     110.440 131.199 137.703  0.00  0.00    +0.000 OA
ATOM     23  O   UNL     1     110.306 133.635 137.285  0.00  0.00    +0.000 OA
ATOM     24  O   UNL     1     110.104 133.048 138.813  0.00  0.00    +0.000 OA
ATOM     25  O   UNL     1     110.598 132.598 136.035  0.00  0.00    +0.000 OA
ATOM     26  C   UNL     1     110.351 132.823 137.424  0.00  0.00    +0.000 C 
ATOM     27  C   UNL     1     110.250 132.529 138.188  0.00  0.00    +0.000 C 
ATOM     28  C   UNL     1     110.497 132.304 136.799  0.00  0.00    +0.000 C 
ATOM     29  C   UNL     1     110.295 131.717 138.328  0.00  0.00    +0.000 C 
ATOM     30  C   UNL     1     110.542 131.492 136.938  0.00  0.00    +0.000 C 
BRANCH  29  32
ATOM     31  O   UNL     1     110.732 130.880 139.400  0.00  0.00    +0.000 OA
ATOM     32  C   UNL     1     110.193 131.424 139.092  0.00  0.00    +0.000 C 
ENDBRANCH  29  32
ENDBRANCH  21  30
ENDBRANCH   4  21
TORSDOF 5
ENDMDL
MODEL 7
REMARK VINA RESULT:      -8.8      7.046     10.397
REMARK  Name = 51136398
REMARK  5 active torsions:
REMARK  status: ('A' for Active; 'I' for Inactive)
REMARK    1  A    between atoms: O_2  and  C_15
REMARK    2  A    between atoms: O_2  and  C_17
REMARK    3  A    between atoms: O_8  and  C_18
REMARK    4  A    between atoms: C_14  and  C_16
REMARK    5  A    between atoms: C_24  and  C_26
REMARK                            x       y       z     vdW  Elec       q    Type
REMARK                         _______ _______ _______ _____ _____    ______ ____
ROOT
ATOM      1  O   UNL     1     103.290 130.350 142.106  0.00  0.00    +0.000 OA
ATOM      2  O   UNL     1     103.912 127.971 140.579  0.00  0.00    +0.000 OA
ATOM      3  O   UNL     1     102.905 128.878 140.082  0.00  0.00    +0.000 OA
ATOM      4  C   UNL     1     104.727 128.708 142.465  0.00  0.00    +0.000 A 
ATOM      5  C   UNL     1     104.294 129.404 142.560  0.00  0.00    +0.000 A 
ATOM      6  C   UNL     1     104.599 128.231 141.804  0.00  0.00    +0.000 A 
ATOM      7  C   UNL     1     103.734 129.623 141.995  0.00  0.00    +0.000 A 
ATOM      8  C   UNL     1     103.607 129.145 141.335  0.00  0.00    +0.000 A 
ATOM      9  C   UNL     1     104.039 128.449 141.239  0.00  0.00    +0.000 A 
ATOM     10  C   UNL     1     103.026 129.361 140.740  0.00  0.00    +0.000 A 
ATOM     11  C   UNL     1     102.705 130.583 141.521  0.00  0.00    +0.000 A 
ATOM     12  C   UNL     1     102.572 130.085 140.833  0.00  0.00    +0.000 A 
ENDROOT
BRANCH  11  13
ATOM     13  C   UNL     1     102.274 131.279 141.620  0.00  0.00    +0.000 A 
ATOM     14  C   UNL     1     101.511 131.252 141.932  0.00  0.00    +0.000 A 
ATOM     15  C   UNL     1     102.606 132.003 141.405  0.00  0.00    +0.000 A 
ATOM     16  C   UNL     1     101.080 131.948 142.030  0.00  0.00    +0.000 A 
ATOM     17  C   UNL     1     102.176 132.700 141.503  0.00  0.00    +0.000 A 
ATOM     18  C   UNL     1     101.413 132.672 141.816  0.00  0.00    +0.000 A 
ENDBRANCH  11  13
BRANCH   5  19
ATOM     19  O   UNL     1     104.422 129.881 143.221  0.00  0.00    +0.000 OA
ATOM     20  C   UNL     1     104.035 129.717 143.930  0.00  0.00    +0.000 C 
ENDBRANCH   5  19
BRANCH   4  21
ATOM     21  O   UNL     1     105.287 128.489 143.029  0.00  0.00    +0.000 OA
BRANCH  21  30
ATOM     22  O   UNL     1     106.497 128.795 142.333  0.00  0.00    +0.000 OA
ATOM     23  O   UNL     1     107.441 126.611 143.013  0.00  0.00    +0.000 OA
ATOM     24  O   UNL     1     108.335 127.645 142.090  0.00  0.00    +0.000 OA
ATOM     25  O   UNL     1     105.917 127.033 143.483  0.00  0.00    +0.000 OA
ATOM     26  C   UNL     1     107.126 127.339 142.786  0.00  0.00    +0.000 C 
ATOM     27  C   UNL     1     107.573 127.856 142.324  0.00  0.00    +0.000 C 
ATOM     28  C   UNL     1     106.364 127.550 143.021  0.00  0.00    +0.000 C 
ATOM     29  C   UNL     1     107.258 128.585 142.098  0.00  0.00    +0.000 C 
ATOM     30  C   UNL     1     106.049 128.279 142.795  0.00  0.00    +0.000 C 
BRANCH  29  32
ATOM     31  O   UNL     1     107.399 129.393 140.928  0.00  0.00    +0.000 OA
ATOM     32  C   UNL     1     107.705 129.101 141.636  0.00  0.00    +0.000 C 
ENDBRANCH  29  32
ENDBRANCH  21  30
ENDBRANCH   4  21
TORSDOF 5
ENDMDL
MODEL 8
REMARK VINA RESULT:      -8.7      2.173      3.027
REMARK  Name = 51136398
REMARK  5 active torsions:
REMARK  status: ('A' for Active; 'I' for Inactive)
REMARK    1  A    between atoms: O_2  and  C_15
REMARK    2  A    between atoms: O_2  and  C_17
REMARK    3  A    between atoms: O_8  and  C_18
REMARK    4  A    between atoms: C_14  and  C_16
REMARK    5  A    between atoms: C_24  and  C_26
REMARK                            x       y       z     vdW  Elec       q    Type
REMARK                         _______ _______ _______ _____ _____    ______ ____
ROOT
ATOM      1  O   UNL     1     113.147 127.024 137.764  0.00  0.00    +0.000 OA
ATOM      2  O   UNL     1     112.800 128.447 140.262  0.00  0.00    +0.000 OA
ATOM      3  O   UNL     1     113.283 127.087 140.293  0.00  0.00    +0.000 OA
ATOM      4  C   UNL     1     112.448 129.076 138.202  0.00  0.00    +0.000 A 
ATOM      5  C   UNL     1     112.664 128.393 137.791  0.00  0.00    +0.000 A 
ATOM      6  C   UNL     1     112.494 129.093 139.025  0.00  0.00    +0.000 A 
ATOM      7  C   UNL     1     112.925 127.728 138.204  0.00  0.00    +0.000 A 
ATOM      8  C   UNL     1     112.970 127.747 139.028  0.00  0.00    +0.000 A 
ATOM      9  C   UNL     1     112.755 128.428 139.438  0.00  0.00    +0.000 A 
ATOM     10  C   UNL     1     113.240 127.061 139.469  0.00  0.00    +0.000 A 
ATOM     11  C   UNL     1     113.419 126.329 138.189  0.00  0.00    +0.000 A 
ATOM     12  C   UNL     1     113.466 126.347 139.047  0.00  0.00    +0.000 A 
ENDROOT
BRANCH  11  13
ATOM     13  C   UNL     1     113.634 125.648 137.776  0.00  0.00    +0.000 A 
ATOM     14  C   UNL     1     114.431 125.472 137.657  0.00  0.00    +0.000 A 
ATOM     15  C   UNL     1     113.052 125.142 137.482  0.00  0.00    +0.000 A 
ATOM     16  C   UNL     1     114.646 124.790 137.244  0.00  0.00    +0.000 A 
ATOM     17  C   UNL     1     113.266 124.462 137.069  0.00  0.00    +0.000 A 
ATOM     18  C   UNL     1     114.063 124.286 136.950  0.00  0.00    +0.000 A 
ENDBRANCH  11  13
BRANCH   5  19
ATOM     19  O   UNL     1     112.618 128.376 136.967  0.00  0.00    +0.000 OA
ATOM     20  C   UNL     1     113.246 128.660 136.513  0.00  0.00    +0.000 C 
ENDBRANCH   5  19
BRANCH   4  21
ATOM     21  O   UNL     1     112.187 129.741 137.788  0.00  0.00    +0.000 OA
BRANCH  21  30
ATOM     22  O   UNL     1     110.792 129.688 138.094  0.00  0.00    +0.000 OA
ATOM     23  O   UNL     1     110.797 132.123 138.538  0.00  0.00    +0.000 OA
ATOM     24  O   UNL     1     109.401 131.258 138.695  0.00  0.00    +0.000 OA
ATOM     25  O   UNL     1     112.190 131.364 138.085  0.00  0.00    +0.000 OA
ATOM     26  C   UNL     1     110.795 131.311 138.390  0.00  0.00    +0.000 C 
ATOM     27  C   UNL     1     110.097 130.878 138.468  0.00  0.00    +0.000 C 
ATOM     28  C   UNL     1     111.493 130.931 138.163  0.00  0.00    +0.000 C 
ATOM     29  C   UNL     1     110.096 130.067 138.320  0.00  0.00    +0.000 C 
ATOM     30  C   UNL     1     111.491 130.120 138.015  0.00  0.00    +0.000 C 
BRANCH  29  32
ATOM     31  O   UNL     1     109.199 129.065 137.835  0.00  0.00    +0.000 OA
ATOM     32  C   UNL     1     109.398 129.635 138.398  0.00  0.00    +0.000 C 
ENDBRANCH  29  32
ENDBRANCH  21  30
ENDBRANCH   4  21
TORSDOF 5
ENDMDL
MODEL 9
REMARK VINA RESULT:      -8.7      3.426      4.356
REMARK  Name = 51136398
REMARK  5 active torsions:
REMARK  status: ('A' for Active; 'I' for Inactive)
REMARK    1  A    between atoms: O_2  and  C_15
REMARK    2  A    between atoms: O_2  and  C_17
REMARK    3  A    between atoms: O_8  and  C_18
REMARK    4  A    between atoms: C_14  and  C_16
REMARK    5  A    between atoms: C_24  and  C_26
REMARK                            x       y       z     vdW  Elec       q    Type
REMARK                         _______ _______ _______ _____ _____    ______ ____
ROOT
ATOM      1  O   UNL     1     111.729 125.630 138.186  0.00  0.00    +0.000 OA
ATOM      2  O   UNL     1     109.044 126.572 137.652  0.00  0.00    +0.000 OA
ATOM      3  O   UNL     1     109.847 126.087 136.554  0.00  0.00    +0.000 OA
ATOM      4  C   UNL     1     110.164 126.444 139.521  0.00  0.00    +0.000 A 
ATOM      5  C   UNL     1     110.879 126.127 139.253  0.00  0.00    +0.000 A 
ATOM      6  C   UNL     1     109.554 126.592 138.986  0.00  0.00    +0.000 A 
ATOM      7  C   UNL     1     110.981 125.959 138.452  0.00  0.00    +0.000 A 
ATOM      8  C   UNL     1     110.369 126.107 137.918  0.00  0.00    +0.000 A 
ATOM      9  C   UNL     1     109.656 126.423 138.185  0.00  0.00    +0.000 A 
ATOM     10  C   UNL     1     110.464 125.937 137.082  0.00  0.00    +0.000 A 
ATOM     11  C   UNL     1     111.841 125.453 137.353  0.00  0.00    +0.000 A 
ATOM     12  C   UNL     1     111.205 125.607 136.796  0.00  0.00    +0.000 A 
ENDROOT
BRANCH  11  13
ATOM     13  C   UNL     1     112.556 125.137 137.088  0.00  0.00    +0.000 A 
ATOM     14  C   UNL     1     112.667 124.319 137.079  0.00  0.00    +0.000 A 
ATOM     15  C   UNL     1     113.159 125.638 136.833  0.00  0.00    +0.000 A 
ATOM     16  C   UNL     1     113.382 124.003 136.814  0.00  0.00    +0.000 A 
ATOM     17  C   UNL     1     113.874 125.323 136.569  0.00  0.00    +0.000 A 
ATOM     18  C   UNL     1     113.985 124.506 136.559  0.00  0.00    +0.000 A 
ENDBRANCH  11  13
BRANCH   5  19
ATOM     19  O   UNL     1     111.489 125.980 139.787  0.00  0.00    +0.000 OA
ATOM     20  C   UNL     1     112.019 126.580 139.985  0.00  0.00    +0.000 C 
ENDBRANCH   5  19
BRANCH   4  21
ATOM     21  O   UNL     1     110.062 126.612 140.322  0.00  0.00    +0.000 OA
BRANCH  21  30
ATOM     22  O   UNL     1     109.150 125.572 140.680  0.00  0.00    +0.000 OA
ATOM     23  O   UNL     1     107.784 127.204 141.942  0.00  0.00    +0.000 OA
ATOM     24  O   UNL     1     107.328 125.620 141.879  0.00  0.00    +0.000 OA
ATOM     25  O   UNL     1     109.151 127.700 141.163  0.00  0.00    +0.000 OA
ATOM     26  C   UNL     1     108.239 126.660 141.522  0.00  0.00    +0.000 C 
ATOM     27  C   UNL     1     108.012 125.868 141.490  0.00  0.00    +0.000 C 
ATOM     28  C   UNL     1     108.924 126.908 141.132  0.00  0.00    +0.000 C 
ATOM     29  C   UNL     1     108.467 125.324 141.069  0.00  0.00    +0.000 C 
ATOM     30  C   UNL     1     109.379 126.364 140.711  0.00  0.00    +0.000 C 
BRANCH  29  32
ATOM     31  O   UNL     1     108.783 123.938 141.219  0.00  0.00    +0.000 OA
ATOM     32  C   UNL     1     108.239 124.532 141.038  0.00  0.00    +0.000 C 
ENDBRANCH  29  32
ENDBRANCH  21  30
ENDBRANCH   4  21
TORSDOF 5
ENDMDL
MODEL 10
REMARK VINA RESULT:      -8.7      1.848      5.091
REMARK  Name = 51136398
REMARK  5 active torsions:
REMARK  status: ('A' for Active; 'I' for Inactive)
REMARK    1  A    between atoms: O_2  and  C_15
REMARK    2  A    between atoms: O_2  and  C_17
REMARK    3  A    between atoms: O_8  and  C_18
REMARK    4  A    between atoms: C_14  and  C_16
REMARK    5  A    between atoms: C_24  and  C_26
REMARK                            x       y       z     vdW  Elec       q    Type
REMARK                         _______ _______ _______ _____ _____    ______ ____
ROOT
ATOM      1  O   UNL     1     110.232 130.441 136.195  0.00  0.00    +0.000 OA
ATOM      2  O   UNL     1     108.106 128.521 135.780  0.00  0.00    +0.000 OA
ATOM      3  O   UNL     1     107.765 129.869 136.167  0.00  0.00    +0.000 OA
ATOM      4  C   UNL     1     110.271 128.308 135.611  0.00  0.00    +0.000 A 
ATOM      5  C   UNL     1     110.519 129.071 135.806  0.00  0.00    +0.000 A 
ATOM      6  C   UNL     1     109.467 128.126 135.602  0.00  0.00    +0.000 A 
ATOM      7  C   UNL     1     109.962 129.650 135.993  0.00  0.00    +0.000 A 
ATOM      8  C   UNL     1     109.157 129.466 135.985  0.00  0.00    +0.000 A 
ATOM      9  C   UNL     1     108.910 128.705 135.789  0.00  0.00    +0.000 A 
ATOM     10  C   UNL     1     108.568 130.061 136.178  0.00  0.00    +0.000 A 
ATOM     11  C   UNL     1     109.657 131.048 136.391  0.00  0.00    +0.000 A 
ATOM     12  C   UNL     1     108.819 130.857 136.382  0.00  0.00    +0.000 A 
ENDROOT
BRANCH  11  13
ATOM     13  C   UNL     1     109.907 131.809 136.586  0.00  0.00    +0.000 A 
ATOM     14  C   UNL     1     109.894 132.406 136.017  0.00  0.00    +0.000 A 
ATOM     15  C   UNL     1     110.170 131.974 137.351  0.00  0.00    +0.000 A 
ATOM     16  C   UNL     1     110.144 133.168 136.212  0.00  0.00    +0.000 A 
ATOM     17  C   UNL     1     110.420 132.735 137.547  0.00  0.00    +0.000 A 
ATOM     18  C   UNL     1     110.407 133.332 136.978  0.00  0.00    +0.000 A 
ENDBRANCH  11  13
BRANCH   5  19
ATOM     19  O   UNL     1     111.323 129.254 135.815  0.00  0.00    +0.000 OA
ATOM     20  C   UNL     1     111.708 129.456 135.114  0.00  0.00    +0.000 C 
ENDBRANCH   5  19
BRANCH   4  21
ATOM     21  O   UNL     1     110.828 127.729 135.423  0.00  0.00    +0.000 OA
BRANCH  21  30
ATOM     22  O   UNL     1     110.882 127.025 136.666  0.00  0.00    +0.000 OA
ATOM     23  O   UNL     1     110.793 124.871 135.449  0.00  0.00    +0.000 OA
ATOM     24  O   UNL     1     110.876 124.885 137.096  0.00  0.00    +0.000 OA
ATOM     25  O   UNL     1     110.769 126.293 134.612  0.00  0.00    +0.000 OA
ATOM     26  C   UNL     1     110.823 125.589 135.854  0.00  0.00    +0.000 C 
ATOM     27  C   UNL     1     110.864 125.596 136.678  0.00  0.00    +0.000 C 
ATOM     28  C   UNL     1     110.811 126.301 135.436  0.00  0.00    +0.000 C 
ATOM     29  C   UNL     1     110.894 126.314 137.084  0.00  0.00    +0.000 C 
ATOM     30  C   UNL     1     110.840 127.019 135.842  0.00  0.00    +0.000 C 
BRANCH  29  32
ATOM     31  O   UNL     1     111.421 126.866 138.292  0.00  0.00    +0.000 OA
ATOM     32  C   UNL     1     110.936 126.321 137.907  0.00  0.00    +0.000 C 
ENDBRANCH  29  32
ENDBRANCH  21  30
ENDBRANCH   4  21
TORSDOF 5
ENDMDL
