MODEL 1
REMARK VINA RESULT:      -9.7      0.000      0.000
REMARK  Name = 5387370
REMARK  4 active torsions:
REMARK  status: ('A' for Active; 'I' for Inactive)
REMARK    1  A    between atoms: O_2  and  C_16
REMARK    2  A    between atoms: O_2  and  C_18
REMARK    3  A    between atoms: C_15  and  C_17
REMARK    4  A    between atoms: C_25  and  C_27
REMARK                            x       y       z     vdW  Elec       q    Type
REMARK                         _______ _______ _______ _____ _____    ______ ____
ROOT
ATOM      1  O   UNL     1     112.267 126.507 136.208  0.00  0.00    +0.000 OA
ATOM      2  O   UNL     1     109.749 125.730 135.025  0.00  0.00    +0.000 OA
ATOM      3  O   UNL     1     110.671 124.742 135.528  0.00  0.00    +0.000 OA
ATOM      4  C   UNL     1     110.633 127.764 135.344  0.00  0.00    +0.000 A 
ATOM      5  C   UNL     1     111.375 127.543 135.717  0.00  0.00    +0.000 A 
ATOM      6  C   UNL     1     110.079 127.151 135.108  0.00  0.00    +0.000 A 
ATOM      7  C   UNL     1     111.553 126.713 135.850  0.00  0.00    +0.000 A 
ATOM      8  C   UNL     1     111.021 126.125 135.623  0.00  0.00    +0.000 A 
ATOM      9  C   UNL     1     110.275 126.326 135.248  0.00  0.00    +0.000 A 
ATOM     10  C   UNL     1     111.203 125.331 135.755  0.00  0.00    +0.000 A 
ATOM     11  C   UNL     1     112.449 125.713 136.340  0.00  0.00    +0.000 A 
ATOM     12  C   UNL     1     111.917 125.125 136.114  0.00  0.00    +0.000 A 
ENDROOT
BRANCH  11  14
ATOM     13  O   UNL     1     115.305 124.891 137.775  0.00  0.00    +0.000 OA
ATOM     14  C   UNL     1     113.163 125.508 136.699  0.00  0.00    +0.000 A 
ATOM     15  C   UNL     1     113.252 125.587 137.516  0.00  0.00    +0.000 A 
ATOM     16  C   UNL     1     113.787 125.223 136.241  0.00  0.00    +0.000 A 
ATOM     17  C   UNL     1     113.966 125.381 137.873  0.00  0.00    +0.000 A 
ATOM     18  C   UNL     1     114.501 125.017 136.600  0.00  0.00    +0.000 A 
ATOM     19  C   UNL     1     114.591 125.096 137.416  0.00  0.00    +0.000 A 
ENDBRANCH  11  14
BRANCH   4  20
ATOM     20  O   UNL     1     110.454 128.558 135.213  0.00  0.00    +0.000 OA
BRANCH  20  29
ATOM     21  O   UNL     1     110.065 128.897 136.546  0.00  0.00    +0.000 OA
ATOM     22  O   UNL     1     108.217 130.282 135.655  0.00  0.00    +0.000 OA
ATOM     23  O   UNL     1     109.222 129.481 134.619  0.00  0.00    +0.000 OA
ATOM     24  O   UNL     1     108.445 130.159 137.284  0.00  0.00    +0.000 OA
ATOM     25  C   UNL     1     108.833 129.820 135.952  0.00  0.00    +0.000 C 
ATOM     26  C   UNL     1     109.336 129.420 135.434  0.00  0.00    +0.000 C 
ATOM     27  C   UNL     1     108.948 129.759 136.766  0.00  0.00    +0.000 C 
ATOM     28  C   UNL     1     109.564 129.297 137.063  0.00  0.00    +0.000 C 
ATOM     29  C   UNL     1     109.952 128.958 135.731  0.00  0.00    +0.000 C 
BRANCH  28  32
ATOM     30  O   UNL     1     109.268 128.665 138.310  0.00  0.00    +0.000 OA
ATOM     31  O   UNL     1     110.201 129.747 138.260  0.00  0.00    +0.000 OA
ATOM     32  C   UNL     1     109.677 129.236 137.878  0.00  0.00    +0.000 C 
ENDBRANCH  28  32
ENDBRANCH  20  29
ENDBRANCH   4  20
TORSDOF 4
ENDMDL
MODEL 2
REMARK VINA RESULT:      -9.6      1.236      1.991
REMARK  Name = 5387370
REMARK  4 active torsions:
REMARK  status: ('A' for Active; 'I' for Inactive)
REMARK    1  A    between atoms: O_2  and  C_16
REMARK    2  A    between atoms: O_2  and  C_18
REMARK    3  A    between atoms: C_15  and  C_17
REMARK    4  A    between atoms: C_25  and  C_27
REMARK                            x       y       z     vdW  Elec       q    Type
REMARK                         _______ _______ _______ _____ _____    ______ ____
ROOT
ATOM      1  O   UNL     1     112.746 127.058 136.247  0.00  0.00    +0.000 OA
ATOM      2  O   UNL     1     113.072 129.763 135.286  0.00  0.00    +0.000 OA
ATOM      3  O   UNL     1     114.198 129.007 135.775  0.00  0.00    +0.000 OA
ATOM      4  C   UNL     1     111.235 128.490 135.434  0.00  0.00    +0.000 A 
ATOM      5  C   UNL     1     111.579 127.775 135.766  0.00  0.00    +0.000 A 
ATOM      6  C   UNL     1     111.739 129.166 135.271  0.00  0.00    +0.000 A 
ATOM      7  C   UNL     1     112.422 127.747 135.929  0.00  0.00    +0.000 A 
ATOM      8  C   UNL     1     112.905 128.396 135.772  0.00  0.00    +0.000 A 
ATOM      9  C   UNL     1     112.580 129.119 135.440  0.00  0.00    +0.000 A 
ATOM     10  C   UNL     1     113.714 128.357 135.932  0.00  0.00    +0.000 A 
ATOM     11  C   UNL     1     113.555 127.019 136.408  0.00  0.00    +0.000 A 
ATOM     12  C   UNL     1     114.038 127.669 136.251  0.00  0.00    +0.000 A 
ENDROOT
BRANCH  11  14
ATOM     13  O   UNL     1     114.853 124.265 137.680  0.00  0.00    +0.000 OA
ATOM     14  C   UNL     1     113.879 126.331 136.726  0.00  0.00    +0.000 A 
ATOM     15  C   UNL     1     113.798 126.170 137.532  0.00  0.00    +0.000 A 
ATOM     16  C   UNL     1     114.286 125.803 136.239  0.00  0.00    +0.000 A 
ATOM     17  C   UNL     1     114.123 125.482 137.849  0.00  0.00    +0.000 A 
ATOM     18  C   UNL     1     114.610 125.114 136.557  0.00  0.00    +0.000 A 
ATOM     19  C   UNL     1     114.529 124.954 137.362  0.00  0.00    +0.000 A 
ENDBRANCH  11  14
BRANCH   4  20
ATOM     20  O   UNL     1     110.426 128.526 135.274  0.00  0.00    +0.000 OA
BRANCH  20  29
ATOM     21  O   UNL     1     110.033 128.906 136.595  0.00  0.00    +0.000 OA
ATOM     22  O   UNL     1     108.204 130.283 135.653  0.00  0.00    +0.000 OA
ATOM     23  O   UNL     1     109.207 129.444 134.647  0.00  0.00    +0.000 OA
ATOM     24  O   UNL     1     108.420 130.204 137.286  0.00  0.00    +0.000 OA
ATOM     25  C   UNL     1     108.814 129.824 135.967  0.00  0.00    +0.000 C 
ATOM     26  C   UNL     1     109.316 129.404 135.463  0.00  0.00    +0.000 C 
ATOM     27  C   UNL     1     108.922 129.784 136.784  0.00  0.00    +0.000 C 
ATOM     28  C   UNL     1     109.532 129.325 137.097  0.00  0.00    +0.000 C 
ATOM     29  C   UNL     1     109.925 128.945 135.777  0.00  0.00    +0.000 C 
BRANCH  28  32
ATOM     30  O   UNL     1     110.119 129.839 138.294  0.00  0.00    +0.000 OA
ATOM     31  O   UNL     1     109.268 128.693 138.351  0.00  0.00    +0.000 OA
ATOM     32  C   UNL     1     109.639 129.286 137.914  0.00  0.00    +0.000 C 
ENDBRANCH  28  32
ENDBRANCH  20  29
ENDBRANCH   4  20
TORSDOF 4
ENDMDL
MODEL 3
REMARK VINA RESULT:      -9.5      7.186     10.378
REMARK  Name = 5387370
REMARK  4 active torsions:
REMARK  status: ('A' for Active; 'I' for Inactive)
REMARK    1  A    between atoms: O_2  and  C_16
REMARK    2  A    between atoms: O_2  and  C_18
REMARK    3  A    between atoms: C_15  and  C_17
REMARK    4  A    between atoms: C_25  and  C_27
REMARK                            x       y       z     vdW  Elec       q    Type
REMARK                         _______ _______ _______ _____ _____    ______ ____
ROOT
ATOM      1  O   UNL     1     103.143 130.265 141.990  0.00  0.00    +0.000 OA
ATOM      2  O   UNL     1     103.692 128.007 140.273  0.00  0.00    +0.000 OA
ATOM      3  O   UNL     1     102.752 129.028 139.881  0.00  0.00    +0.000 OA
ATOM      4  C   UNL     1     104.521 128.530 142.287  0.00  0.00    +0.000 A 
ATOM      5  C   UNL     1     104.098 129.265 142.433  0.00  0.00    +0.000 A 
ATOM      6  C   UNL     1     104.385 128.101 141.555  0.00  0.00    +0.000 A 
ATOM      7  C   UNL     1     103.546 129.559 141.844  0.00  0.00    +0.000 A 
ATOM      8  C   UNL     1     103.416 129.147 141.142  0.00  0.00    +0.000 A 
ATOM      9  C   UNL     1     103.829 128.412 140.979  0.00  0.00    +0.000 A 
ATOM     10  C   UNL     1     102.883 129.440 140.584  0.00  0.00    +0.000 A 
ATOM     11  C   UNL     1     102.610 130.557 141.432  0.00  0.00    +0.000 A 
ATOM     12  C   UNL     1     102.480 130.145 140.729  0.00  0.00    +0.000 A 
ENDROOT
BRANCH  11  14
ATOM     13  O   UNL     1     100.998 133.378 142.013  0.00  0.00    +0.000 OA
ATOM     14  C   UNL     1     102.207 131.263 141.577  0.00  0.00    +0.000 A 
ATOM     15  C   UNL     1     102.564 131.985 141.401  0.00  0.00    +0.000 A 
ATOM     16  C   UNL     1     101.447 131.244 141.899  0.00  0.00    +0.000 A 
ATOM     17  C   UNL     1     102.160 132.690 141.546  0.00  0.00    +0.000 A 
ATOM     18  C   UNL     1     101.044 131.950 142.044  0.00  0.00    +0.000 A 
ATOM     19  C   UNL     1     101.401 132.672 141.868  0.00  0.00    +0.000 A 
ENDBRANCH  11  14
BRANCH   4  20
ATOM     20  O   UNL     1     105.053 128.240 142.846  0.00  0.00    +0.000 OA
BRANCH  20  29
ATOM     21  O   UNL     1     106.205 128.879 142.292  0.00  0.00    +0.000 OA
ATOM     22  O   UNL     1     107.605 126.960 142.985  0.00  0.00    +0.000 OA
ATOM     23  O   UNL     1     105.987 126.960 143.308  0.00  0.00    +0.000 OA
ATOM     24  O   UNL     1     108.289 128.239 142.200  0.00  0.00    +0.000 OA
ATOM     25  C   UNL     1     107.138 127.600 142.754  0.00  0.00    +0.000 C 
ATOM     26  C   UNL     1     106.329 127.600 142.916  0.00  0.00    +0.000 C 
ATOM     27  C   UNL     1     107.480 128.239 142.361  0.00  0.00    +0.000 C 
ATOM     28  C   UNL     1     107.013 128.879 142.130  0.00  0.00    +0.000 C 
ATOM     29  C   UNL     1     105.862 128.240 142.685  0.00  0.00    +0.000 C 
BRANCH  28  32
ATOM     30  O   UNL     1     107.431 129.506 140.916  0.00  0.00    +0.000 OA
ATOM     31  O   UNL     1     107.622 130.171 142.167  0.00  0.00    +0.000 OA
ATOM     32  C   UNL     1     107.355 129.518 141.738  0.00  0.00    +0.000 C 
ENDBRANCH  28  32
ENDBRANCH  20  29
ENDBRANCH   4  20
TORSDOF 4
ENDMDL
MODEL 4
REMARK VINA RESULT:      -9.4      8.444     10.377
REMARK  Name = 5387370
REMARK  4 active torsions:
REMARK  status: ('A' for Active; 'I' for Inactive)
REMARK    1  A    between atoms: O_2  and  C_16
REMARK    2  A    between atoms: O_2  and  C_18
REMARK    3  A    between atoms: C_15  and  C_17
REMARK    4  A    between atoms: C_25  and  C_27
REMARK                            x       y       z     vdW  Elec       q    Type
REMARK                         _______ _______ _______ _____ _____    ______ ____
ROOT
ATOM      1  O   UNL     1     106.610 125.790 146.193  0.00  0.00    +0.000 OA
ATOM      2  O   UNL     1     106.025 128.434 145.186  0.00  0.00    +0.000 OA
ATOM      3  O   UNL     1     106.578 128.246 146.505  0.00  0.00    +0.000 OA
ATOM      4  C   UNL     1     105.762 126.428 144.226  0.00  0.00    +0.000 A 
ATOM      5  C   UNL     1     106.054 125.924 144.858  0.00  0.00    +0.000 A 
ATOM      6  C   UNL     1     105.751 127.280 144.335  0.00  0.00    +0.000 A 
ATOM      7  C   UNL     1     106.331 126.279 145.590  0.00  0.00    +0.000 A 
ATOM      8  C   UNL     1     106.320 127.097 145.694  0.00  0.00    +0.000 A 
ATOM      9  C   UNL     1     106.032 127.617 145.073  0.00  0.00    +0.000 A 
ATOM     10  C   UNL     1     106.588 127.427 146.401  0.00  0.00    +0.000 A 
ATOM     11  C   UNL     1     106.878 126.120 146.900  0.00  0.00    +0.000 A 
ATOM     12  C   UNL     1     106.867 126.938 147.004  0.00  0.00    +0.000 A 
ENDROOT
BRANCH  11  14
ATOM     13  O   UNL     1     107.994 124.166 149.314  0.00  0.00    +0.000 OA
ATOM     14  C   UNL     1     107.157 125.631 147.504  0.00  0.00    +0.000 A 
ATOM     15  C   UNL     1     107.951 125.406 147.519  0.00  0.00    +0.000 A 
ATOM     16  C   UNL     1     106.642 125.368 148.092  0.00  0.00    +0.000 A 
ATOM     17  C   UNL     1     108.229 124.918 148.122  0.00  0.00    +0.000 A 
ATOM     18  C   UNL     1     106.921 124.879 148.696  0.00  0.00    +0.000 A 
ATOM     19  C   UNL     1     107.715 124.654 148.710  0.00  0.00    +0.000 A 
ENDBRANCH  11  14
BRANCH   4  20
ATOM     20  O   UNL     1     105.495 126.095 143.520  0.00  0.00    +0.000 OA
BRANCH  20  29
ATOM     21  O   UNL     1     106.615 126.445 142.705  0.00  0.00    +0.000 OA
ATOM     22  O   UNL     1     106.479 124.249 141.573  0.00  0.00    +0.000 OA
ATOM     23  O   UNL     1     105.404 124.631 142.765  0.00  0.00    +0.000 OA
ATOM     24  O   UNL     1     107.645 125.331 141.137  0.00  0.00    +0.000 OA
ATOM     25  C   UNL     1     106.525 124.981 141.951  0.00  0.00    +0.000 C 
ATOM     26  C   UNL     1     105.987 125.172 142.547  0.00  0.00    +0.000 C 
ATOM     27  C   UNL     1     107.107 125.523 141.733  0.00  0.00    +0.000 C 
ATOM     28  C   UNL     1     107.153 126.255 142.110  0.00  0.00    +0.000 C 
ATOM     29  C   UNL     1     106.032 125.904 142.924  0.00  0.00    +0.000 C 
BRANCH  28  32
ATOM     30  O   UNL     1     108.479 126.769 142.249  0.00  0.00    +0.000 OA
ATOM     31  O   UNL     1     107.576 127.364 141.315  0.00  0.00    +0.000 OA
ATOM     32  C   UNL     1     107.735 126.795 141.892  0.00  0.00    +0.000 C 
ENDBRANCH  28  32
ENDBRANCH  20  29
ENDBRANCH   4  20
TORSDOF 4
ENDMDL
MODEL 5
REMARK VINA RESULT:      -9.2      3.522      5.761
REMARK  Name = 5387370
REMARK  4 active torsions:
REMARK  status: ('A' for Active; 'I' for Inactive)
REMARK    1  A    between atoms: O_2  and  C_16
REMARK    2  A    between atoms: O_2  and  C_18
REMARK    3  A    between atoms: C_15  and  C_17
REMARK    4  A    between atoms: C_25  and  C_27
REMARK                            x       y       z     vdW  Elec       q    Type
REMARK                         _______ _______ _______ _____ _____    ______ ____
ROOT
ATOM      1  O   UNL     1     113.303 128.543 139.766  0.00  0.00    +0.000 OA
ATOM      2  O   UNL     1     112.095 126.155 140.853  0.00  0.00    +0.000 OA
ATOM      3  O   UNL     1     112.762 127.106 141.707  0.00  0.00    +0.000 OA
ATOM      4  C   UNL     1     112.208 126.887 138.739  0.00  0.00    +0.000 A 
ATOM      5  C   UNL     1     112.643 127.618 138.861  0.00  0.00    +0.000 A 
ATOM      6  C   UNL     1     112.020 126.389 139.413  0.00  0.00    +0.000 A 
ATOM      7  C   UNL     1     112.885 127.840 139.655  0.00  0.00    +0.000 A 
ATOM      8  C   UNL     1     112.705 127.361 140.302  0.00  0.00    +0.000 A 
ATOM      9  C   UNL     1     112.270 126.627 140.200  0.00  0.00    +0.000 A 
ATOM     10  C   UNL     1     112.942 127.585 141.060  0.00  0.00    +0.000 A 
ATOM     11  C   UNL     1     113.540 128.767 140.524  0.00  0.00    +0.000 A 
ATOM     12  C   UNL     1     113.360 128.288 141.170  0.00  0.00    +0.000 A 
ENDROOT
BRANCH  11  14
ATOM     13  O   UNL     1     115.211 131.578 140.967  0.00  0.00    +0.000 OA
ATOM     14  C   UNL     1     113.958 129.470 140.635  0.00  0.00    +0.000 A 
ATOM     15  C   UNL     1     113.592 130.114 140.998  0.00  0.00    +0.000 A 
ATOM     16  C   UNL     1     114.741 129.528 140.381  0.00  0.00    +0.000 A 
ATOM     17  C   UNL     1     114.011 130.816 141.109  0.00  0.00    +0.000 A 
ATOM     18  C   UNL     1     115.159 130.231 140.492  0.00  0.00    +0.000 A 
ATOM     19  C   UNL     1     114.794 130.875 140.856  0.00  0.00    +0.000 A 
ENDBRANCH  11  14
BRANCH   4  20
ATOM     20  O   UNL     1     111.972 126.666 137.980  0.00  0.00    +0.000 OA
BRANCH  20  29
ATOM     21  O   UNL     1     113.167 126.004 137.561  0.00  0.00    +0.000 OA
ATOM     22  O   UNL     1     111.812 124.204 136.537  0.00  0.00    +0.000 OA
ATOM     23  O   UNL     1     111.068 125.466 137.297  0.00  0.00    +0.000 OA
ATOM     24  O   UNL     1     113.458 124.143 136.460  0.00  0.00    +0.000 OA
ATOM     25  C   UNL     1     112.264 124.804 136.878  0.00  0.00    +0.000 C 
ATOM     26  C   UNL     1     111.892 125.436 137.259  0.00  0.00    +0.000 C 
ATOM     27  C   UNL     1     113.087 124.774 136.840  0.00  0.00    +0.000 C 
ATOM     28  C   UNL     1     113.539 125.374 137.181  0.00  0.00    +0.000 C 
ATOM     29  C   UNL     1     112.343 126.036 137.600  0.00  0.00    +0.000 C 
BRANCH  28  32
ATOM     30  O   UNL     1     114.789 124.952 137.730  0.00  0.00    +0.000 OA
ATOM     31  O   UNL     1     114.759 125.704 136.515  0.00  0.00    +0.000 OA
ATOM     32  C   UNL     1     114.362 125.343 137.142  0.00  0.00    +0.000 C 
ENDBRANCH  28  32
ENDBRANCH  20  29
ENDBRANCH   4  20
TORSDOF 4
ENDMDL
MODEL 6
REMARK VINA RESULT:      -9.2      2.460      4.128
REMARK  Name = 5387370
REMARK  4 active torsions:
REMARK  status: ('A' for Active; 'I' for Inactive)
REMARK    1  A    between atoms: O_2  and  C_16
REMARK    2  A    between atoms: O_2  and  C_18
REMARK    3  A    between atoms: C_15  and  C_17
REMARK    4  A    between atoms: C_25  and  C_27
REMARK                            x       y       z     vdW  Elec       q    Type
REMARK                         _______ _______ _______ _____ _____    ______ ____
ROOT
ATOM      1  O   UNL     1     112.651 128.334 135.572  0.00  0.00    +0.000 OA
ATOM      2  O   UNL     1     109.896 128.439 134.707  0.00  0.00    +0.000 OA
ATOM      3  O   UNL     1     110.750 129.597 134.612  0.00  0.00    +0.000 OA
ATOM      4  C   UNL     1     111.077 126.747 135.581  0.00  0.00    +0.000 A 
ATOM      5  C   UNL     1     111.834 127.139 135.690  0.00  0.00    +0.000 A 
ATOM      6  C   UNL     1     110.418 127.186 135.248  0.00  0.00    +0.000 A 
ATOM      7  C   UNL     1     111.922 127.964 135.465  0.00  0.00    +0.000 A 
ATOM      8  C   UNL     1     111.288 128.384 135.145  0.00  0.00    +0.000 A 
ATOM      9  C   UNL     1     110.524 128.010 135.028  0.00  0.00    +0.000 A 
ATOM     10  C   UNL     1     111.384 129.176 134.932  0.00  0.00    +0.000 A 
ATOM     11  C   UNL     1     112.747 129.126 135.359  0.00  0.00    +0.000 A 
ATOM     12  C   UNL     1     112.113 129.546 135.039  0.00  0.00    +0.000 A 
ENDROOT
BRANCH  11  14
ATOM     13  O   UNL     1     115.663 130.608 135.789  0.00  0.00    +0.000 OA
ATOM     14  C   UNL     1     113.476 129.496 135.467  0.00  0.00    +0.000 A 
ATOM     15  C   UNL     1     114.026 129.511 134.852  0.00  0.00    +0.000 A 
ATOM     16  C   UNL     1     113.655 129.853 136.190  0.00  0.00    +0.000 A 
ATOM     17  C   UNL     1     114.754 129.881 134.960  0.00  0.00    +0.000 A 
ATOM     18  C   UNL     1     114.384 130.223 136.297  0.00  0.00    +0.000 A 
ATOM     19  C   UNL     1     114.934 130.238 135.682  0.00  0.00    +0.000 A 
ENDBRANCH  11  14
BRANCH   4  20
ATOM     20  O   UNL     1     110.984 125.956 135.794  0.00  0.00    +0.000 OA
BRANCH  20  29
ATOM     21  O   UNL     1     110.474 126.216 137.104  0.00  0.00    +0.000 OA
ATOM     22  O   UNL     1     111.614 124.189 137.951  0.00  0.00    +0.000 OA
ATOM     23  O   UNL     1     111.743 124.604 136.359  0.00  0.00    +0.000 OA
ATOM     24  O   UNL     1     110.725 125.125 138.977  0.00  0.00    +0.000 OA
ATOM     25  C   UNL     1     111.234 124.865 137.668  0.00  0.00    +0.000 C 
ATOM     26  C   UNL     1     111.299 125.073 136.872  0.00  0.00    +0.000 C 
ATOM     27  C   UNL     1     110.789 125.333 138.181  0.00  0.00    +0.000 C 
ATOM     28  C   UNL     1     110.409 126.009 137.899  0.00  0.00    +0.000 C 
ATOM     29  C   UNL     1     110.919 125.749 136.590  0.00  0.00    +0.000 C 
BRANCH  28  32
ATOM     30  O   UNL     1     109.149 126.369 138.468  0.00  0.00    +0.000 OA
ATOM     31  O   UNL     1     110.337 127.053 138.871  0.00  0.00    +0.000 OA
ATOM     32  C   UNL     1     109.965 126.477 138.412  0.00  0.00    +0.000 C 
ENDBRANCH  28  32
ENDBRANCH  20  29
ENDBRANCH   4  20
TORSDOF 4
ENDMDL
MODEL 7
REMARK VINA RESULT:      -9.2      1.938      3.245
REMARK  Name = 5387370
REMARK  4 active torsions:
REMARK  status: ('A' for Active; 'I' for Inactive)
REMARK    1  A    between atoms: O_2  and  C_16
REMARK    2  A    between atoms: O_2  and  C_18
REMARK    3  A    between atoms: C_15  and  C_17
REMARK    4  A    between atoms: C_25  and  C_27
REMARK                            x       y       z     vdW  Elec       q    Type
REMARK                         _______ _______ _______ _____ _____    ______ ____
ROOT
ATOM      1  O   UNL     1     110.332 127.942 135.980  0.00  0.00    +0.000 OA
ATOM      2  O   UNL     1     107.880 129.460 135.806  0.00  0.00    +0.000 OA
ATOM      3  O   UNL     1     107.867 128.018 135.774  0.00  0.00    +0.000 OA
ATOM      4  C   UNL     1     110.002 130.152 135.999  0.00  0.00    +0.000 A 
ATOM      5  C   UNL     1     110.403 129.392 136.017  0.00  0.00    +0.000 A 
ATOM      6  C   UNL     1     109.146 130.178 135.928  0.00  0.00    +0.000 A 
ATOM      7  C   UNL     1     109.942 128.669 135.962  0.00  0.00    +0.000 A 
ATOM      8  C   UNL     1     109.121 128.694 135.894  0.00  0.00    +0.000 A 
ATOM      9  C   UNL     1     108.703 129.444 135.875  0.00  0.00    +0.000 A 
ATOM     10  C   UNL     1     108.689 127.993 135.843  0.00  0.00    +0.000 A 
ATOM     11  C   UNL     1     109.901 127.241 135.928  0.00  0.00    +0.000 A 
ATOM     12  C   UNL     1     109.079 127.266 135.860  0.00  0.00    +0.000 A 
ENDROOT
BRANCH  11  14
ATOM     13  O   UNL     1     111.461 124.334 135.998  0.00  0.00    +0.000 OA
ATOM     14  C   UNL     1     110.291 126.514 135.945  0.00  0.00    +0.000 A 
ATOM     15  C   UNL     1     110.441 126.109 135.242  0.00  0.00    +0.000 A 
ATOM     16  C   UNL     1     110.531 126.192 136.667  0.00  0.00    +0.000 A 
ATOM     17  C   UNL     1     110.831 125.383 135.260  0.00  0.00    +0.000 A 
ATOM     18  C   UNL     1     110.921 125.465 136.684  0.00  0.00    +0.000 A 
ATOM     19  C   UNL     1     111.071 125.060 135.981  0.00  0.00    +0.000 A 
ENDBRANCH  11  14
BRANCH   4  20
ATOM     20  O   UNL     1     110.436 130.852 136.051  0.00  0.00    +0.000 OA
BRANCH  20  29
ATOM     21  O   UNL     1     110.633 130.888 137.466  0.00  0.00    +0.000 OA
ATOM     22  O   UNL     1     110.155 133.316 137.470  0.00  0.00    +0.000 OA
ATOM     23  O   UNL     1     110.118 132.471 136.054  0.00  0.00    +0.000 OA
ATOM     24  O   UNL     1     110.511 132.543 138.883  0.00  0.00    +0.000 OA
ATOM     25  C   UNL     1     110.314 132.507 137.469  0.00  0.00    +0.000 C 
ATOM     26  C   UNL     1     110.296 132.084 136.760  0.00  0.00    +0.000 C 
ATOM     27  C   UNL     1     110.492 132.120 138.175  0.00  0.00    +0.000 C 
ATOM     28  C   UNL     1     110.652 131.310 138.173  0.00  0.00    +0.000 C 
ATOM     29  C   UNL     1     110.455 131.274 136.758  0.00  0.00    +0.000 C 
BRANCH  28  32
ATOM     30  O   UNL     1     110.226 130.585 139.329  0.00  0.00    +0.000 OA
ATOM     31  O   UNL     1     111.611 130.875 139.138  0.00  0.00    +0.000 OA
ATOM     32  C   UNL     1     110.829 130.924 138.880  0.00  0.00    +0.000 C 
ENDBRANCH  28  32
ENDBRANCH  20  29
ENDBRANCH   4  20
TORSDOF 4
ENDMDL
MODEL 8
REMARK VINA RESULT:      -9.1      3.669      4.749
REMARK  Name = 5387370
REMARK  4 active torsions:
REMARK  status: ('A' for Active; 'I' for Inactive)
REMARK    1  A    between atoms: O_2  and  C_16
REMARK    2  A    between atoms: O_2  and  C_18
REMARK    3  A    between atoms: C_15  and  C_17
REMARK    4  A    between atoms: C_25  and  C_27
REMARK                            x       y       z     vdW  Elec       q    Type
REMARK                         _______ _______ _______ _____ _____    ______ ____
ROOT
ATOM      1  O   UNL     1     113.519 126.431 138.870  0.00  0.00    +0.000 OA
ATOM      2  O   UNL     1     110.894 126.245 140.063  0.00  0.00    +0.000 OA
ATOM      3  O   UNL     1     111.194 125.583 138.817  0.00  0.00    +0.000 OA
ATOM      4  C   UNL     1     112.731 127.320 140.763  0.00  0.00    +0.000 A 
ATOM      5  C   UNL     1     113.271 127.117 140.126  0.00  0.00    +0.000 A 
ATOM      6  C   UNL     1     111.924 127.026 140.745  0.00  0.00    +0.000 A 
ATOM      7  C   UNL     1     112.996 126.623 139.479  0.00  0.00    +0.000 A 
ATOM      8  C   UNL     1     112.221 126.340 139.462  0.00  0.00    +0.000 A 
ATOM      9  C   UNL     1     111.668 126.532 140.090  0.00  0.00    +0.000 A 
ATOM     10  C   UNL     1     111.969 125.866 138.835  0.00  0.00    +0.000 A 
ATOM     11  C   UNL     1     113.267 125.957 138.244  0.00  0.00    +0.000 A 
ATOM     12  C   UNL     1     112.492 125.675 138.226  0.00  0.00    +0.000 A 
ENDROOT
BRANCH  11  14
ATOM     13  O   UNL     1     115.356 125.192 135.807  0.00  0.00    +0.000 OA
ATOM     14  C   UNL     1     113.789 125.766 137.635  0.00  0.00    +0.000 A 
ATOM     15  C   UNL     1     114.272 125.100 137.699  0.00  0.00    +0.000 A 
ATOM     16  C   UNL     1     113.828 126.241 136.961  0.00  0.00    +0.000 A 
ATOM     17  C   UNL     1     114.794 124.909 137.090  0.00  0.00    +0.000 A 
ATOM     18  C   UNL     1     114.351 126.049 136.352  0.00  0.00    +0.000 A 
ATOM     19  C   UNL     1     114.834 125.383 136.416  0.00  0.00    +0.000 A 
ENDBRANCH  11  14
BRANCH   4  20
ATOM     20  O   UNL     1     112.986 127.794 141.388  0.00  0.00    +0.000 OA
BRANCH  20  29
ATOM     21  O   UNL     1     112.989 129.065 140.735  0.00  0.00    +0.000 OA
ATOM     22  O   UNL     1     111.925 130.089 142.722  0.00  0.00    +0.000 OA
ATOM     23  O   UNL     1     112.277 128.477 142.713  0.00  0.00    +0.000 OA
ATOM     24  O   UNL     1     112.284 131.018 141.407  0.00  0.00    +0.000 OA
ATOM     25  C   UNL     1     112.280 129.748 142.059  0.00  0.00    +0.000 C 
ATOM     26  C   UNL     1     112.456 128.941 142.055  0.00  0.00    +0.000 C 
ATOM     27  C   UNL     1     112.459 130.212 141.402  0.00  0.00    +0.000 C 
ATOM     28  C   UNL     1     112.814 129.871 140.740  0.00  0.00    +0.000 C 
ATOM     29  C   UNL     1     112.811 128.600 141.393  0.00  0.00    +0.000 C 
BRANCH  28  32
ATOM     30  O   UNL     1     112.417 130.481 139.510  0.00  0.00    +0.000 OA
ATOM     31  O   UNL     1     113.748 130.656 139.997  0.00  0.00    +0.000 OA
ATOM     32  C   UNL     1     112.993 130.335 140.082  0.00  0.00    +0.000 C 
ENDBRANCH  28  32
ENDBRANCH  20  29
ENDBRANCH   4  20
TORSDOF 4
ENDMDL
MODEL 9
REMARK VINA RESULT:      -9.1      2.224      3.130
REMARK  Name = 5387370
REMARK  4 active torsions:
REMARK  status: ('A' for Active; 'I' for Inactive)
REMARK    1  A    between atoms: O_2  and  C_16
REMARK    2  A    between atoms: O_2  and  C_18
REMARK    3  A    between atoms: C_15  and  C_17
REMARK    4  A    between atoms: C_25  and  C_27
REMARK                            x       y       z     vdW  Elec       q    Type
REMARK                         _______ _______ _______ _____ _____    ______ ____
ROOT
ATOM      1  O   UNL     1     111.869 126.742 136.021  0.00  0.00    +0.000 OA
ATOM      2  O   UNL     1     110.065 128.505 134.613  0.00  0.00    +0.000 OA
ATOM      3  O   UNL     1     109.670 127.163 134.965  0.00  0.00    +0.000 OA
ATOM      4  C   UNL     1     112.158 128.849 135.333  0.00  0.00    +0.000 A 
ATOM      5  C   UNL     1     112.317 128.083 135.690  0.00  0.00    +0.000 A 
ATOM      6  C   UNL     1     111.395 128.995 134.966  0.00  0.00    +0.000 A 
ATOM      7  C   UNL     1     111.711 127.475 135.676  0.00  0.00    +0.000 A 
ATOM      8  C   UNL     1     110.978 127.615 135.324  0.00  0.00    +0.000 A 
ATOM      9  C   UNL     1     110.801 128.374 134.962  0.00  0.00    +0.000 A 
ATOM     10  C   UNL     1     110.404 127.023 135.317  0.00  0.00    +0.000 A 
ATOM     11  C   UNL     1     111.295 126.150 136.013  0.00  0.00    +0.000 A 
ATOM     12  C   UNL     1     110.562 126.291 135.661  0.00  0.00    +0.000 A 
ENDROOT
BRANCH  11  14
ATOM     13  O   UNL     1     111.928 123.219 137.392  0.00  0.00    +0.000 OA
ATOM     14  C   UNL     1     111.453 125.417 136.358  0.00  0.00    +0.000 A 
ATOM     15  C   UNL     1     111.705 124.787 135.889  0.00  0.00    +0.000 A 
ATOM     16  C   UNL     1     111.359 125.315 137.172  0.00  0.00    +0.000 A 
ATOM     17  C   UNL     1     111.863 124.055 136.234  0.00  0.00    +0.000 A 
ATOM     18  C   UNL     1     111.517 124.583 137.516  0.00  0.00    +0.000 A 
ATOM     19  C   UNL     1     111.769 123.952 137.047  0.00  0.00    +0.000 A 
ENDBRANCH  11  14
BRANCH   4  20
ATOM     20  O   UNL     1     112.735 129.439 135.342  0.00  0.00    +0.000 OA
BRANCH  20  29
ATOM     21  O   UNL     1     112.229 130.184 136.452  0.00  0.00    +0.000 OA
ATOM     22  O   UNL     1     114.542 130.569 137.246  0.00  0.00    +0.000 OA
ATOM     23  O   UNL     1     114.276 129.696 135.871  0.00  0.00    +0.000 OA
ATOM     24  O   UNL     1     113.266 131.185 138.090  0.00  0.00    +0.000 OA
ATOM     25  C   UNL     1     113.771 130.441 136.981  0.00  0.00    +0.000 C 
ATOM     26  C   UNL     1     113.638 130.004 136.293  0.00  0.00    +0.000 C 
ATOM     27  C   UNL     1     113.133 130.749 137.403  0.00  0.00    +0.000 C 
ATOM     28  C   UNL     1     112.362 130.620 137.138  0.00  0.00    +0.000 C 
ATOM     29  C   UNL     1     112.867 129.875 136.028  0.00  0.00    +0.000 C 
BRANCH  28  32
ATOM     30  O   UNL     1     111.417 131.668 137.364  0.00  0.00    +0.000 OA
ATOM     31  O   UNL     1     111.393 130.496 138.181  0.00  0.00    +0.000 OA
ATOM     32  C   UNL     1     111.724 130.928 137.561  0.00  0.00    +0.000 C 
ENDBRANCH  28  32
ENDBRANCH  20  29
ENDBRANCH   4  20
TORSDOF 4
ENDMDL
MODEL 10
REMARK VINA RESULT:      -9.0      3.218      4.384
REMARK  Name = 5387370
REMARK  4 active torsions:
REMARK  status: ('A' for Active; 'I' for Inactive)
REMARK    1  A    between atoms: O_2  and  C_16
REMARK    2  A    between atoms: O_2  and  C_18
REMARK    3  A    between atoms: C_15  and  C_17
REMARK    4  A    between atoms: C_25  and  C_27
REMARK                            x       y       z     vdW  Elec       q    Type
REMARK                         _______ _______ _______ _____ _____    ______ ____
ROOT
ATOM      1  O   UNL     1     113.031 127.526 137.329  0.00  0.00    +0.000 OA
ATOM      2  O   UNL     1     113.912 130.010 136.146  0.00  0.00    +0.000 OA
ATOM      3  O   UNL     1     114.263 128.741 135.558  0.00  0.00    +0.000 OA
ATOM      4  C   UNL     1     112.672 129.636 137.973  0.00  0.00    +0.000 A 
ATOM      5  C   UNL     1     112.650 128.776 137.961  0.00  0.00    +0.000 A 
ATOM      6  C   UNL     1     113.099 130.057 137.358  0.00  0.00    +0.000 A 
ATOM      7  C   UNL     1     113.056 128.351 137.335  0.00  0.00    +0.000 A 
ATOM      8  C   UNL     1     113.466 128.756 136.745  0.00  0.00    +0.000 A 
ATOM      9  C   UNL     1     113.499 129.614 136.740  0.00  0.00    +0.000 A 
ATOM     10  C   UNL     1     113.852 128.336 136.149  0.00  0.00    +0.000 A 
ATOM     11  C   UNL     1     113.417 127.106 136.732  0.00  0.00    +0.000 A 
ATOM     12  C   UNL     1     113.828 127.511 136.142  0.00  0.00    +0.000 A 
ENDROOT
BRANCH  11  14
ATOM     13  O   UNL     1     113.321 123.808 136.708  0.00  0.00    +0.000 OA
ATOM     14  C   UNL     1     113.393 126.282 136.726  0.00  0.00    +0.000 A 
ATOM     15  C   UNL     1     112.728 125.891 136.434  0.00  0.00    +0.000 A 
ATOM     16  C   UNL     1     114.035 125.848 137.012  0.00  0.00    +0.000 A 
ATOM     17  C   UNL     1     112.704 125.067 136.428  0.00  0.00    +0.000 A 
ATOM     18  C   UNL     1     114.010 125.024 137.006  0.00  0.00    +0.000 A 
ATOM     19  C   UNL     1     113.345 124.633 136.714  0.00  0.00    +0.000 A 
ENDBRANCH  11  14
BRANCH   4  20
ATOM     20  O   UNL     1     112.285 130.053 138.571  0.00  0.00    +0.000 OA
BRANCH  20  29
ATOM     21  O   UNL     1     113.416 130.270 139.417  0.00  0.00    +0.000 OA
ATOM     22  O   UNL     1     112.004 129.860 141.408  0.00  0.00    +0.000 OA
ATOM     23  O   UNL     1     111.344 129.779 139.898  0.00  0.00    +0.000 OA
ATOM     24  O   UNL     1     113.605 130.214 141.590  0.00  0.00    +0.000 OA
ATOM     25  C   UNL     1     112.475 129.997 140.745  0.00  0.00    +0.000 C 
ATOM     26  C   UNL     1     112.145 129.957 139.989  0.00  0.00    +0.000 C 
ATOM     27  C   UNL     1     113.275 130.174 140.835  0.00  0.00    +0.000 C 
ATOM     28  C   UNL     1     113.746 130.311 140.171  0.00  0.00    +0.000 C 
ATOM     29  C   UNL     1     112.615 130.093 139.325  0.00  0.00    +0.000 C 
BRANCH  28  32
ATOM     30  O   UNL     1     115.097 129.879 140.346  0.00  0.00    +0.000 OA
ATOM     31  O   UNL     1     114.796 131.274 140.271  0.00  0.00    +0.000 OA
ATOM     32  C   UNL     1     114.546 130.488 140.263  0.00  0.00    +0.000 C 
ENDBRANCH  28  32
ENDBRANCH  20  29
ENDBRANCH   4  20
TORSDOF 4
ENDMDL
