MODEL 1
REMARK VINA RESULT:      -9.8      0.000      0.000
REMARK  Name = 131752208
REMARK  3 active torsions:
REMARK  status: ('A' for Active; 'I' for Inactive)
REMARK    1  A    between atoms: O_2  and  C_14
REMARK    2  A    between atoms: O_2  and  C_16
REMARK    3  A    between atoms: C_18  and  C_23
REMARK                            x       y       z     vdW  Elec       q    Type
REMARK                         _______ _______ _______ _____ _____    ______ ____
ROOT
ATOM      1  O   UNL     1     104.976 123.674 139.443  0.00  0.00    +0.000 OA
ATOM      2  O   UNL     1     105.027 126.058 140.102  0.00  0.00    +0.000 OA
ATOM      3  O   UNL     1     107.325 123.149 141.083  0.00  0.00    +0.000 OA
ATOM      4  C   UNL     1     106.182 125.039 140.710  0.00  0.00    +0.000 A 
ATOM      5  C   UNL     1     105.578 124.742 140.177  0.00  0.00    +0.000 A 
ATOM      6  C   UNL     1     104.408 124.195 139.149  0.00  0.00    +0.000 C 
ATOM      7  C   UNL     1     104.426 124.990 139.369  0.00  0.00    +0.000 C 
ATOM      8  C   UNL     1     105.561 123.947 139.957  0.00  0.00    +0.000 A 
ATOM      9  C   UNL     1     105.010 125.264 139.883  0.00  0.00    +0.000 C 
ATOM     10  C   UNL     1     106.776 124.501 141.020  0.00  0.00    +0.000 A 
ATOM     11  C   UNL     1     106.146 123.394 140.255  0.00  0.00    +0.000 A 
ATOM     12  C   UNL     1     106.758 123.672 140.791  0.00  0.00    +0.000 A 
ENDROOT
BRANCH   6  14
ATOM     13  O   UNL     1     102.068 123.101 137.094  0.00  0.00    +0.000 OA
ATOM     14  C   UNL     1     103.823 123.922 138.636  0.00  0.00    +0.000 A 
ATOM     15  C   UNL     1     104.026 123.661 137.879  0.00  0.00    +0.000 A 
ATOM     16  C   UNL     1     103.034 123.908 138.878  0.00  0.00    +0.000 A 
ATOM     17  C   UNL     1     103.442 123.388 137.366  0.00  0.00    +0.000 A 
ATOM     18  C   UNL     1     102.450 123.635 138.365  0.00  0.00    +0.000 A 
ATOM     19  C   UNL     1     102.654 123.375 137.609  0.00  0.00    +0.000 A 
ENDBRANCH   6  14
BRANCH   4  20
ATOM     20  O   UNL     1     106.191 125.836 140.925  0.00  0.00    +0.000 OA
BRANCH  20  29
ATOM     21  O   UNL     1     105.980 125.752 142.335  0.00  0.00    +0.000 OA
ATOM     22  O   UNL     1     107.865 127.312 142.710  0.00  0.00    +0.000 OA
ATOM     23  O   UNL     1     107.026 126.709 143.996  0.00  0.00    +0.000 OA
ATOM     24  O   UNL     1     107.448 126.876 141.174  0.00  0.00    +0.000 OA
ATOM     25  C   UNL     1     107.237 126.792 142.585  0.00  0.00    +0.000 C 
ATOM     26  C   UNL     1     106.818 126.491 143.228  0.00  0.00    +0.000 C 
ATOM     27  C   UNL     1     107.029 126.574 141.818  0.00  0.00    +0.000 C 
ATOM     28  C   UNL     1     106.189 125.971 143.103  0.00  0.00    +0.000 C 
ATOM     29  C   UNL     1     106.400 126.054 141.693  0.00  0.00    +0.000 C 
ATOM     30  C   UNL     1     105.769 125.669 143.746  0.00  0.00    +0.000 C 
ENDBRANCH  20  29
ENDBRANCH   4  20
TORSDOF 3
ENDMDL
MODEL 2
REMARK VINA RESULT:      -9.5      7.175      8.682
REMARK  Name = 131752208
REMARK  3 active torsions:
REMARK  status: ('A' for Active; 'I' for Inactive)
REMARK    1  A    between atoms: O_2  and  C_14
REMARK    2  A    between atoms: O_2  and  C_16
REMARK    3  A    between atoms: C_18  and  C_23
REMARK                            x       y       z     vdW  Elec       q    Type
REMARK                         _______ _______ _______ _____ _____    ______ ____
ROOT
ATOM      1  O   UNL     1     111.945 125.734 136.072  0.00  0.00    +0.000 OA
ATOM      2  O   UNL     1     111.306 127.798 137.276  0.00  0.00    +0.000 OA
ATOM      3  O   UNL     1     109.425 125.780 134.612  0.00  0.00    +0.000 OA
ATOM      4  C   UNL     1     110.252 127.165 136.166  0.00  0.00    +0.000 A 
ATOM      5  C   UNL     1     111.005 126.782 136.318  0.00  0.00    +0.000 A 
ATOM      6  C   UNL     1     112.459 126.062 136.628  0.00  0.00    +0.000 C 
ATOM      7  C   UNL     1     112.245 126.751 137.029  0.00  0.00    +0.000 C 
ATOM      8  C   UNL     1     111.219 126.094 135.917  0.00  0.00    +0.000 A 
ATOM      9  C   UNL     1     111.518 127.111 136.875  0.00  0.00    +0.000 C 
ATOM     10  C   UNL     1     109.713 126.828 135.587  0.00  0.00    +0.000 A 
ATOM     11  C   UNL     1     110.694 125.741 135.335  0.00  0.00    +0.000 A 
ATOM     12  C   UNL     1     109.936 126.111 135.169  0.00  0.00    +0.000 A 
ENDROOT
BRANCH   6  14
ATOM     13  O   UNL     1     115.364 124.625 137.247  0.00  0.00    +0.000 OA
ATOM     14  C   UNL     1     113.185 125.703 136.783  0.00  0.00    +0.000 A 
ATOM     15  C   UNL     1     113.840 125.879 136.314  0.00  0.00    +0.000 A 
ATOM     16  C   UNL     1     113.255 125.167 137.406  0.00  0.00    +0.000 A 
ATOM     17  C   UNL     1     114.566 125.520 136.469  0.00  0.00    +0.000 A 
ATOM     18  C   UNL     1     113.981 124.808 137.561  0.00  0.00    +0.000 A 
ATOM     19  C   UNL     1     114.637 124.984 137.092  0.00  0.00    +0.000 A 
ENDBRANCH   6  14
BRANCH   4  20
ATOM     20  O   UNL     1     110.047 127.853 136.572  0.00  0.00    +0.000 OA
BRANCH  20  29
ATOM     21  O   UNL     1     110.213 128.883 135.595  0.00  0.00    +0.000 OA
ATOM     22  O   UNL     1     107.917 129.687 136.052  0.00  0.00    +0.000 OA
ATOM     23  O   UNL     1     108.849 130.449 134.923  0.00  0.00    +0.000 OA
ATOM     24  O   UNL     1     108.517 128.389 136.877  0.00  0.00    +0.000 OA
ATOM     25  C   UNL     1     108.683 129.419 135.900  0.00  0.00    +0.000 C 
ATOM     26  C   UNL     1     109.148 129.800 135.336  0.00  0.00    +0.000 C 
ATOM     27  C   UNL     1     108.982 128.771 136.312  0.00  0.00    +0.000 C 
ATOM     28  C   UNL     1     109.913 129.532 135.183  0.00  0.00    +0.000 C 
ATOM     29  C   UNL     1     109.747 128.503 136.160  0.00  0.00    +0.000 C 
ATOM     30  C   UNL     1     110.379 129.913 134.618  0.00  0.00    +0.000 C 
ENDBRANCH  20  29
ENDBRANCH   4  20
TORSDOF 3
ENDMDL
MODEL 3
REMARK VINA RESULT:      -9.4      8.178      9.122
REMARK  Name = 131752208
REMARK  3 active torsions:
REMARK  status: ('A' for Active; 'I' for Inactive)
REMARK    1  A    between atoms: O_2  and  C_14
REMARK    2  A    between atoms: O_2  and  C_16
REMARK    3  A    between atoms: C_18  and  C_23
REMARK                            x       y       z     vdW  Elec       q    Type
REMARK                         _______ _______ _______ _____ _____    ______ ____
ROOT
ATOM      1  O   UNL     1     113.077 127.361 137.878  0.00  0.00    +0.000 OA
ATOM      2  O   UNL     1     113.428 127.542 140.321  0.00  0.00    +0.000 OA
ATOM      3  O   UNL     1     112.455 130.202 137.735  0.00  0.00    +0.000 OA
ATOM      4  C   UNL     1     113.006 128.902 139.473  0.00  0.00    +0.000 A 
ATOM      5  C   UNL     1     113.100 128.150 139.070  0.00  0.00    +0.000 A 
ATOM      6  C   UNL     1     113.287 126.693 138.315  0.00  0.00    +0.000 C 
ATOM      7  C   UNL     1     113.404 126.755 139.130  0.00  0.00    +0.000 C 
ATOM      8  C   UNL     1     112.984 128.088 138.255  0.00  0.00    +0.000 A 
ATOM      9  C   UNL     1     113.311 127.482 139.507  0.00  0.00    +0.000 C 
ATOM     10  C   UNL     1     112.787 129.601 139.024  0.00  0.00    +0.000 A 
ATOM     11  C   UNL     1     112.764 128.776 137.788  0.00  0.00    +0.000 A 
ATOM     12  C   UNL     1     112.665 129.537 138.175  0.00  0.00    +0.000 A 
ENDROOT
BRANCH   6  14
ATOM     13  O   UNL     1     113.660 123.781 136.807  0.00  0.00    +0.000 OA
ATOM     14  C   UNL     1     113.381 125.966 137.938  0.00  0.00    +0.000 A 
ATOM     15  C   UNL     1     112.718 125.529 137.713  0.00  0.00    +0.000 A 
ATOM     16  C   UNL     1     114.138 125.674 137.787  0.00  0.00    +0.000 A 
ATOM     17  C   UNL     1     112.811 124.802 137.336  0.00  0.00    +0.000 A 
ATOM     18  C   UNL     1     114.231 124.946 137.410  0.00  0.00    +0.000 A 
ATOM     19  C   UNL     1     113.567 124.510 137.185  0.00  0.00    +0.000 A 
ENDBRANCH   6  14
BRANCH   4  20
ATOM     20  O   UNL     1     113.125 128.953 140.288  0.00  0.00    +0.000 OA
BRANCH  20  29
ATOM     21  O   UNL     1     114.299 129.765 140.356  0.00  0.00    +0.000 OA
ATOM     22  O   UNL     1     113.212 131.194 142.060  0.00  0.00    +0.000 OA
ATOM     23  O   UNL     1     114.748 131.530 141.559  0.00  0.00    +0.000 OA
ATOM     24  O   UNL     1     112.401 129.905 141.424  0.00  0.00    +0.000 OA
ATOM     25  C   UNL     1     113.575 130.718 141.492  0.00  0.00    +0.000 C 
ATOM     26  C   UNL     1     114.342 130.886 141.242  0.00  0.00    +0.000 C 
ATOM     27  C   UNL     1     113.169 130.074 141.174  0.00  0.00    +0.000 C 
ATOM     28  C   UNL     1     114.704 130.410 140.674  0.00  0.00    +0.000 C 
ATOM     29  C   UNL     1     113.531 129.598 140.606  0.00  0.00    +0.000 C 
ATOM     30  C   UNL     1     115.473 130.578 140.423  0.00  0.00    +0.000 C 
ENDBRANCH  20  29
ENDBRANCH   4  20
TORSDOF 3
ENDMDL
MODEL 4
REMARK VINA RESULT:      -9.4      6.101      7.883
REMARK  Name = 131752208
REMARK  3 active torsions:
REMARK  status: ('A' for Active; 'I' for Inactive)
REMARK    1  A    between atoms: O_2  and  C_14
REMARK    2  A    between atoms: O_2  and  C_16
REMARK    3  A    between atoms: C_18  and  C_23
REMARK                            x       y       z     vdW  Elec       q    Type
REMARK                         _______ _______ _______ _____ _____    ______ ____
ROOT
ATOM      1  O   UNL     1     113.738 126.403 138.822  0.00  0.00    +0.000 OA
ATOM      2  O   UNL     1     111.408 125.572 138.896  0.00  0.00    +0.000 OA
ATOM      3  O   UNL     1     113.375 127.711 141.399  0.00  0.00    +0.000 OA
ATOM      4  C   UNL     1     111.968 126.488 140.158  0.00  0.00    +0.000 A 
ATOM      5  C   UNL     1     112.479 126.307 139.492  0.00  0.00    +0.000 A 
ATOM      6  C   UNL     1     113.444 125.945 138.202  0.00  0.00    +0.000 C 
ATOM      7  C   UNL     1     112.667 125.669 138.227  0.00  0.00    +0.000 C 
ATOM      8  C   UNL     1     113.256 126.584 139.467  0.00  0.00    +0.000 A 
ATOM      9  C   UNL     1     112.184 125.849 138.872  0.00  0.00    +0.000 C 
ATOM     10  C   UNL     1     112.268 126.964 140.807  0.00  0.00    +0.000 A 
ATOM     11  C   UNL     1     113.575 127.061 140.106  0.00  0.00    +0.000 A 
ATOM     12  C   UNL     1     113.078 127.253 140.781  0.00  0.00    +0.000 A 
ENDROOT
BRANCH   6  14
ATOM     13  O   UNL     1     115.371 125.223 135.622  0.00  0.00    +0.000 OA
ATOM     14  C   UNL     1     113.925 125.765 137.558  0.00  0.00    +0.000 A 
ATOM     15  C   UNL     1     113.903 126.236 136.881  0.00  0.00    +0.000 A 
ATOM     16  C   UNL     1     114.429 125.112 137.589  0.00  0.00    +0.000 A 
ATOM     17  C   UNL     1     114.385 126.056 136.236  0.00  0.00    +0.000 A 
ATOM     18  C   UNL     1     114.911 124.931 136.945  0.00  0.00    +0.000 A 
ATOM     19  C   UNL     1     114.889 125.403 136.268  0.00  0.00    +0.000 A 
ENDBRANCH   6  14
BRANCH   4  20
ATOM     20  O   UNL     1     111.192 126.207 140.174  0.00  0.00    +0.000 OA
BRANCH  20  29
ATOM     21  O   UNL     1     110.457 127.429 140.084  0.00  0.00    +0.000 OA
ATOM     22  O   UNL     1     109.002 126.691 141.945  0.00  0.00    +0.000 OA
ATOM     23  O   UNL     1     108.751 128.158 141.234  0.00  0.00    +0.000 OA
ATOM     24  O   UNL     1     110.223 125.715 141.415  0.00  0.00    +0.000 OA
ATOM     25  C   UNL     1     109.487 126.937 141.325  0.00  0.00    +0.000 C 
ATOM     26  C   UNL     1     109.362 127.670 140.970  0.00  0.00    +0.000 C 
ATOM     27  C   UNL     1     110.097 126.449 141.060  0.00  0.00    +0.000 C 
ATOM     28  C   UNL     1     109.846 127.916 140.349  0.00  0.00    +0.000 C 
ATOM     29  C   UNL     1     110.582 126.695 140.440  0.00  0.00    +0.000 C 
ATOM     30  C   UNL     1     109.721 128.650 139.993  0.00  0.00    +0.000 C 
ENDBRANCH  20  29
ENDBRANCH   4  20
TORSDOF 3
ENDMDL
MODEL 5
REMARK VINA RESULT:      -9.4      7.581      9.228
REMARK  Name = 131752208
REMARK  3 active torsions:
REMARK  status: ('A' for Active; 'I' for Inactive)
REMARK    1  A    between atoms: O_2  and  C_14
REMARK    2  A    between atoms: O_2  and  C_16
REMARK    3  A    between atoms: C_18  and  C_23
REMARK                            x       y       z     vdW  Elec       q    Type
REMARK                         _______ _______ _______ _____ _____    ______ ____
ROOT
ATOM      1  O   UNL     1     113.397 127.657 136.713  0.00  0.00    +0.000 OA
ATOM      2  O   UNL     1     111.103 127.234 135.888  0.00  0.00    +0.000 OA
ATOM      3  O   UNL     1     113.027 130.521 136.333  0.00  0.00    +0.000 OA
ATOM      4  C   UNL     1     111.647 128.796 135.961  0.00  0.00    +0.000 A 
ATOM      5  C   UNL     1     112.154 128.148 136.206  0.00  0.00    +0.000 A 
ATOM      6  C   UNL     1     113.110 126.885 136.670  0.00  0.00    +0.000 C 
ATOM      7  C   UNL     1     112.345 126.744 136.395  0.00  0.00    +0.000 C 
ATOM      8  C   UNL     1     112.919 128.288 136.481  0.00  0.00    +0.000 A 
ATOM      9  C   UNL     1     111.867 127.375 136.163  0.00  0.00    +0.000 C 
ATOM     10  C   UNL     1     111.940 129.603 136.003  0.00  0.00    +0.000 A 
ATOM     11  C   UNL     1     113.230 129.088 136.530  0.00  0.00    +0.000 A 
ATOM     12  C   UNL     1     112.738 129.750 136.290  0.00  0.00    +0.000 A 
ENDROOT
BRANCH   6  14
ATOM     13  O   UNL     1     115.022 124.360 137.599  0.00  0.00    +0.000 OA
ATOM     14  C   UNL     1     113.588 126.254 136.903  0.00  0.00    +0.000 A 
ATOM     15  C   UNL     1     114.083 125.887 136.354  0.00  0.00    +0.000 A 
ATOM     16  C   UNL     1     113.571 125.989 137.684  0.00  0.00    +0.000 A 
ATOM     17  C   UNL     1     114.561 125.256 136.586  0.00  0.00    +0.000 A 
ATOM     18  C   UNL     1     114.048 125.358 137.916  0.00  0.00    +0.000 A 
ATOM     19  C   UNL     1     114.543 124.992 137.367  0.00  0.00    +0.000 A 
ENDBRANCH   6  14
BRANCH   4  20
ATOM     20  O   UNL     1     110.884 128.646 135.687  0.00  0.00    +0.000 OA
BRANCH  20  29
ATOM     21  O   UNL     1     110.122 129.182 136.771  0.00  0.00    +0.000 OA
ATOM     22  O   UNL     1     108.609 130.294 135.158  0.00  0.00    +0.000 OA
ATOM     23  O   UNL     1     108.352 130.459 136.780  0.00  0.00    +0.000 OA
ATOM     24  O   UNL     1     109.875 129.387 134.612  0.00  0.00    +0.000 OA
ATOM     25  C   UNL     1     109.114 129.923 135.696  0.00  0.00    +0.000 C 
ATOM     26  C   UNL     1     108.985 130.006 136.506  0.00  0.00    +0.000 C 
ATOM     27  C   UNL     1     109.746 129.470 135.423  0.00  0.00    +0.000 C 
ATOM     28  C   UNL     1     109.489 129.635 137.044  0.00  0.00    +0.000 C 
ATOM     29  C   UNL     1     110.250 129.099 135.960  0.00  0.00    +0.000 C 
ATOM     30  C   UNL     1     109.361 129.717 137.855  0.00  0.00    +0.000 C 
ENDBRANCH  20  29
ENDBRANCH   4  20
TORSDOF 3
ENDMDL
MODEL 6
REMARK VINA RESULT:      -9.3      8.205     10.004
REMARK  Name = 131752208
REMARK  3 active torsions:
REMARK  status: ('A' for Active; 'I' for Inactive)
REMARK    1  A    between atoms: O_2  and  C_14
REMARK    2  A    between atoms: O_2  and  C_16
REMARK    3  A    between atoms: C_18  and  C_23
REMARK                            x       y       z     vdW  Elec       q    Type
REMARK                         _______ _______ _______ _____ _____    ______ ____
ROOT
ATOM      1  O   UNL     1     112.942 128.874 135.335  0.00  0.00    +0.000 OA
ATOM      2  O   UNL     1     113.411 127.559 137.377  0.00  0.00    +0.000 OA
ATOM      3  O   UNL     1     110.492 127.362 134.897  0.00  0.00    +0.000 OA
ATOM      4  C   UNL     1     112.040 127.223 136.510  0.00  0.00    +0.000 A 
ATOM      5  C   UNL     1     112.576 127.842 136.253  0.00  0.00    +0.000 A 
ATOM      6  C   UNL     1     113.621 129.029 135.778  0.00  0.00    +0.000 C 
ATOM      7  C   UNL     1     113.776 128.590 136.459  0.00  0.00    +0.000 C 
ATOM      8  C   UNL     1     112.420 128.281 135.572  0.00  0.00    +0.000 A 
ATOM      9  C   UNL     1     113.254 127.997 136.697  0.00  0.00    +0.000 C 
ATOM     10  C   UNL     1     111.332 127.057 136.052  0.00  0.00    +0.000 A 
ATOM     11  C   UNL     1     111.718 128.130 135.101  0.00  0.00    +0.000 A 
ATOM     12  C   UNL     1     111.169 127.514 135.342  0.00  0.00    +0.000 A 
ENDROOT
BRANCH   6  14
ATOM     13  O   UNL     1     115.710 131.401 134.828  0.00  0.00    +0.000 OA
ATOM     14  C   UNL     1     114.143 129.622 135.541  0.00  0.00    +0.000 A 
ATOM     15  C   UNL     1     114.661 129.489 134.912  0.00  0.00    +0.000 A 
ATOM     16  C   UNL     1     114.147 130.348 135.932  0.00  0.00    +0.000 A 
ATOM     17  C   UNL     1     115.183 130.081 134.675  0.00  0.00    +0.000 A 
ATOM     18  C   UNL     1     114.670 130.941 135.695  0.00  0.00    +0.000 A 
ATOM     19  C   UNL     1     115.187 130.807 135.066  0.00  0.00    +0.000 A 
ENDBRANCH   6  14
BRANCH   4  20
ATOM     20  O   UNL     1     112.204 126.789 137.193  0.00  0.00    +0.000 OA
BRANCH  20  29
ATOM     21  O   UNL     1     112.528 125.514 136.635  0.00  0.00    +0.000 OA
ATOM     22  O   UNL     1     111.053 124.416 138.292  0.00  0.00    +0.000 OA
ATOM     23  O   UNL     1     111.868 123.506 137.183  0.00  0.00    +0.000 OA
ATOM     24  O   UNL     1     111.221 126.057 138.297  0.00  0.00    +0.000 OA
ATOM     25  C   UNL     1     111.544 124.782 137.740  0.00  0.00    +0.000 C 
ATOM     26  C   UNL     1     111.951 124.327 137.186  0.00  0.00    +0.000 C 
ATOM     27  C   UNL     1     111.628 125.602 137.742  0.00  0.00    +0.000 C 
ATOM     28  C   UNL     1     112.443 124.693 136.633  0.00  0.00    +0.000 C 
ATOM     29  C   UNL     1     112.120 125.968 137.190  0.00  0.00    +0.000 C 
ATOM     30  C   UNL     1     112.851 124.238 136.078  0.00  0.00    +0.000 C 
ENDBRANCH  20  29
ENDBRANCH   4  20
TORSDOF 3
ENDMDL
MODEL 7
REMARK VINA RESULT:      -9.3      8.280      9.648
REMARK  Name = 131752208
REMARK  3 active torsions:
REMARK  status: ('A' for Active; 'I' for Inactive)
REMARK    1  A    between atoms: O_2  and  C_14
REMARK    2  A    between atoms: O_2  and  C_16
REMARK    3  A    between atoms: C_18  and  C_23
REMARK                            x       y       z     vdW  Elec       q    Type
REMARK                         _______ _______ _______ _____ _____    ______ ____
ROOT
ATOM      1  O   UNL     1     111.900 126.410 136.079  0.00  0.00    +0.000 OA
ATOM      2  O   UNL     1     113.558 127.723 137.363  0.00  0.00    +0.000 OA
ATOM      3  O   UNL     1     111.112 128.799 134.612  0.00  0.00    +0.000 OA
ATOM      4  C   UNL     1     112.638 128.497 136.223  0.00  0.00    +0.000 A 
ATOM      5  C   UNL     1     112.539 127.656 136.363  0.00  0.00    +0.000 A 
ATOM      6  C   UNL     1     112.366 126.039 136.650  0.00  0.00    +0.000 C 
ATOM      7  C   UNL     1     112.918 126.478 137.078  0.00  0.00    +0.000 C 
ATOM      8  C   UNL     1     111.986 127.217 135.936  0.00  0.00    +0.000 A 
ATOM      9  C   UNL     1     113.005 127.286 136.935  0.00  0.00    +0.000 C 
ATOM     10  C   UNL     1     112.156 128.889 135.630  0.00  0.00    +0.000 A 
ATOM     11  C   UNL     1     111.494 127.591 135.338  0.00  0.00    +0.000 A 
ATOM     12  C   UNL     1     111.579 128.432 135.184  0.00  0.00    +0.000 A 
ENDROOT
BRANCH   6  14
ATOM     13  O   UNL     1     112.019 122.808 137.224  0.00  0.00    +0.000 OA
ATOM     14  C   UNL     1     112.279 125.232 136.793  0.00  0.00    +0.000 A 
ATOM     15  C   UNL     1     111.683 124.963 137.297  0.00  0.00    +0.000 A 
ATOM     16  C   UNL     1     112.788 124.692 136.433  0.00  0.00    +0.000 A 
ATOM     17  C   UNL     1     111.597 124.156 137.441  0.00  0.00    +0.000 A 
ATOM     18  C   UNL     1     112.702 123.884 136.576  0.00  0.00    +0.000 A 
ATOM     19  C   UNL     1     112.106 123.617 137.080  0.00  0.00    +0.000 A 
ENDBRANCH   6  14
BRANCH   4  20
ATOM     20  O   UNL     1     113.194 128.927 136.656  0.00  0.00    +0.000 OA
BRANCH  20  29
ATOM     21  O   UNL     1     114.149 129.218 135.634  0.00  0.00    +0.000 OA
ATOM     22  O   UNL     1     114.253 131.569 136.401  0.00  0.00    +0.000 OA
ATOM     23  O   UNL     1     115.174 131.077 135.124  0.00  0.00    +0.000 OA
ATOM     24  O   UNL     1     113.263 130.494 137.167  0.00  0.00    +0.000 OA
ATOM     25  C   UNL     1     114.218 130.786 136.146  0.00  0.00    +0.000 C 
ATOM     26  C   UNL     1     114.679 130.540 135.508  0.00  0.00    +0.000 C 
ATOM     27  C   UNL     1     113.724 130.249 136.529  0.00  0.00    +0.000 C 
ATOM     28  C   UNL     1     114.644 129.756 135.252  0.00  0.00    +0.000 C 
ATOM     29  C   UNL     1     113.689 129.465 136.273  0.00  0.00    +0.000 C 
ATOM     30  C   UNL     1     115.105 129.510 134.613  0.00  0.00    +0.000 C 
ENDBRANCH  20  29
ENDBRANCH   4  20
TORSDOF 3
ENDMDL
MODEL 8
REMARK VINA RESULT:      -9.3      8.553      9.566
REMARK  Name = 131752208
REMARK  3 active torsions:
REMARK  status: ('A' for Active; 'I' for Inactive)
REMARK    1  A    between atoms: O_2  and  C_14
REMARK    2  A    between atoms: O_2  and  C_16
REMARK    3  A    between atoms: C_18  and  C_23
REMARK                            x       y       z     vdW  Elec       q    Type
REMARK                         _______ _______ _______ _____ _____    ______ ____
ROOT
ATOM      1  O   UNL     1     113.679 127.325 136.322  0.00  0.00    +0.000 OA
ATOM      2  O   UNL     1     112.249 128.437 138.007  0.00  0.00    +0.000 OA
ATOM      3  O   UNL     1     114.199 129.888 135.040  0.00  0.00    +0.000 OA
ATOM      4  C   UNL     1     112.962 129.362 136.833  0.00  0.00    +0.000 A 
ATOM      5  C   UNL     1     113.088 128.513 136.854  0.00  0.00    +0.000 A 
ATOM      6  C   UNL     1     113.317 126.879 136.914  0.00  0.00    +0.000 C 
ATOM      7  C   UNL     1     112.840 127.251 137.475  0.00  0.00    +0.000 C 
ATOM      8  C   UNL     1     113.565 128.142 136.292  0.00  0.00    +0.000 A 
ATOM      9  C   UNL     1     112.725 128.067 137.446  0.00  0.00    +0.000 C 
ATOM     10  C   UNL     1     113.337 129.832 136.219  0.00  0.00    +0.000 A 
ATOM     11  C   UNL     1     113.949 128.594 135.671  0.00  0.00    +0.000 A 
ATOM     12  C   UNL     1     113.835 129.445 135.633  0.00  0.00    +0.000 A 
ENDROOT
BRANCH   6  14
ATOM     13  O   UNL     1     113.772 123.613 137.035  0.00  0.00    +0.000 OA
ATOM     14  C   UNL     1     113.431 126.063 136.944  0.00  0.00    +0.000 A 
ATOM     15  C   UNL     1     112.879 125.556 136.598  0.00  0.00    +0.000 A 
ATOM     16  C   UNL     1     114.096 125.753 137.321  0.00  0.00    +0.000 A 
ATOM     17  C   UNL     1     112.993 124.740 136.628  0.00  0.00    +0.000 A 
ATOM     18  C   UNL     1     114.210 124.936 137.352  0.00  0.00    +0.000 A 
ATOM     19  C   UNL     1     113.658 124.430 137.005  0.00  0.00    +0.000 A 
ENDBRANCH   6  14
BRANCH   4  20
ATOM     20  O   UNL     1     112.484 129.725 137.399  0.00  0.00    +0.000 OA
BRANCH  20  29
ATOM     21  O   UNL     1     111.373 130.091 136.577  0.00  0.00    +0.000 OA
ATOM     22  O   UNL     1     111.314 132.320 137.651  0.00  0.00    +0.000 OA
ATOM     23  O   UNL     1     110.223 131.943 136.471  0.00  0.00    +0.000 OA
ATOM     24  O   UNL     1     112.444 131.211 138.114  0.00  0.00    +0.000 OA
ATOM     25  C   UNL     1     111.334 131.577 137.293  0.00  0.00    +0.000 C 
ATOM     26  C   UNL     1     110.789 131.389 136.704  0.00  0.00    +0.000 C 
ATOM     27  C   UNL     1     111.899 131.023 137.524  0.00  0.00    +0.000 C 
ATOM     28  C   UNL     1     110.808 130.646 136.346  0.00  0.00    +0.000 C 
ATOM     29  C   UNL     1     111.918 130.280 137.167  0.00  0.00    +0.000 C 
ATOM     30  C   UNL     1     110.263 130.457 135.756  0.00  0.00    +0.000 C 
ENDBRANCH  20  29
ENDBRANCH   4  20
TORSDOF 3
ENDMDL
MODEL 9
REMARK VINA RESULT:      -9.2      4.139      6.738
REMARK  Name = 131752208
REMARK  3 active torsions:
REMARK  status: ('A' for Active; 'I' for Inactive)
REMARK    1  A    between atoms: O_2  and  C_14
REMARK    2  A    between atoms: O_2  and  C_16
REMARK    3  A    between atoms: C_18  and  C_23
REMARK                            x       y       z     vdW  Elec       q    Type
REMARK                         _______ _______ _______ _____ _____    ______ ____
ROOT
ATOM      1  O   UNL     1     106.444 124.880 146.135  0.00  0.00    +0.000 OA
ATOM      2  O   UNL     1     106.429 127.301 145.626  0.00  0.00    +0.000 OA
ATOM      3  O   UNL     1     105.316 124.301 143.513  0.00  0.00    +0.000 OA
ATOM      4  C   UNL     1     105.871 126.243 144.481  0.00  0.00    +0.000 A 
ATOM      5  C   UNL     1     106.159 125.953 145.236  0.00  0.00    +0.000 A 
ATOM      6  C   UNL     1     106.718 125.420 146.695  0.00  0.00    +0.000 C 
ATOM      7  C   UNL     1     106.713 126.227 146.525  0.00  0.00    +0.000 C 
ATOM      8  C   UNL     1     106.165 125.146 145.406  0.00  0.00    +0.000 A 
ATOM      9  C   UNL     1     106.434 126.495 145.796  0.00  0.00    +0.000 C 
ATOM     10  C   UNL     1     105.584 125.685 143.893  0.00  0.00    +0.000 A 
ATOM     11  C   UNL     1     105.882 124.572 144.832  0.00  0.00    +0.000 A 
ATOM     12  C   UNL     1     105.590 124.843 144.070  0.00  0.00    +0.000 A 
ENDROOT
BRANCH   6  14
ATOM     13  O   UNL     1     107.834 124.354 149.612  0.00  0.00    +0.000 OA
ATOM     14  C   UNL     1     106.997 125.154 147.424  0.00  0.00    +0.000 A 
ATOM     15  C   UNL     1     107.806 125.164 147.585  0.00  0.00    +0.000 A 
ATOM     16  C   UNL     1     106.466 124.877 147.993  0.00  0.00    +0.000 A 
ATOM     17  C   UNL     1     108.085 124.898 148.314  0.00  0.00    +0.000 A 
ATOM     18  C   UNL     1     106.745 124.610 148.722  0.00  0.00    +0.000 A 
ATOM     19  C   UNL     1     107.555 124.621 148.882  0.00  0.00    +0.000 A 
ENDBRANCH   6  14
BRANCH   4  20
ATOM     20  O   UNL     1     105.870 127.052 144.319  0.00  0.00    +0.000 OA
BRANCH  20  29
ATOM     21  O   UNL     1     106.872 127.145 143.305  0.00  0.00    +0.000 OA
ATOM     22  O   UNL     1     105.343 128.511 141.919  0.00  0.00    +0.000 OA
ATOM     23  O   UNL     1     106.855 128.148 141.367  0.00  0.00    +0.000 OA
ATOM     24  O   UNL     1     104.851 127.963 143.396  0.00  0.00    +0.000 OA
ATOM     25  C   UNL     1     105.853 128.056 142.381  0.00  0.00    +0.000 C 
ATOM     26  C   UNL     1     106.608 127.874 142.105  0.00  0.00    +0.000 C 
ATOM     27  C   UNL     1     105.607 127.782 143.119  0.00  0.00    +0.000 C 
ATOM     28  C   UNL     1     107.118 127.419 142.567  0.00  0.00    +0.000 C 
ATOM     29  C   UNL     1     106.116 127.326 143.581  0.00  0.00    +0.000 C 
ATOM     30  C   UNL     1     107.875 127.238 142.291  0.00  0.00    +0.000 C 
ENDBRANCH  20  29
ENDBRANCH   4  20
TORSDOF 3
ENDMDL
MODEL 10
REMARK VINA RESULT:      -9.1      7.617     10.004
REMARK  Name = 131752208
REMARK  3 active torsions:
REMARK  status: ('A' for Active; 'I' for Inactive)
REMARK    1  A    between atoms: O_2  and  C_14
REMARK    2  A    between atoms: O_2  and  C_16
REMARK    3  A    between atoms: C_18  and  C_23
REMARK                            x       y       z     vdW  Elec       q    Type
REMARK                         _______ _______ _______ _____ _____    ______ ____
ROOT
ATOM      1  O   UNL     1     113.400 129.290 138.882  0.00  0.00    +0.000 OA
ATOM      2  O   UNL     1     113.141 126.989 139.755  0.00  0.00    +0.000 OA
ATOM      3  O   UNL     1     112.371 128.446 136.292  0.00  0.00    +0.000 OA
ATOM      4  C   UNL     1     112.710 127.299 138.186  0.00  0.00    +0.000 A 
ATOM      5  C   UNL     1     113.017 127.927 138.685  0.00  0.00    +0.000 A 
ATOM      6  C   UNL     1     113.610 129.119 139.662  0.00  0.00    +0.000 C 
ATOM      7  C   UNL     1     113.523 128.351 139.952  0.00  0.00    +0.000 C 
ATOM      8  C   UNL     1     113.104 128.695 138.394  0.00  0.00    +0.000 A 
ATOM      9  C   UNL     1     113.227 127.755 139.464  0.00  0.00    +0.000 C 
ATOM     10  C   UNL     1     112.490 127.471 137.373  0.00  0.00    +0.000 A 
ATOM     11  C   UNL     1     112.889 128.887 137.585  0.00  0.00    +0.000 A 
ATOM     12  C   UNL     1     112.580 128.271 137.070  0.00  0.00    +0.000 A 
ENDROOT
BRANCH   6  14
ATOM     13  O   UNL     1     114.794 131.500 141.616  0.00  0.00    +0.000 OA
ATOM     14  C   UNL     1     113.906 129.714 140.150  0.00  0.00    +0.000 A 
ATOM     15  C   UNL     1     113.449 130.001 140.775  0.00  0.00    +0.000 A 
ATOM     16  C   UNL     1     114.659 130.023 140.014  0.00  0.00    +0.000 A 
ATOM     17  C   UNL     1     113.745 130.596 141.263  0.00  0.00    +0.000 A 
ATOM     18  C   UNL     1     114.955 130.618 140.502  0.00  0.00    +0.000 A 
ATOM     19  C   UNL     1     114.498 130.904 141.127  0.00  0.00    +0.000 A 
ENDBRANCH   6  14
BRANCH   4  20
ATOM     20  O   UNL     1     112.627 126.535 138.485  0.00  0.00    +0.000 OA
BRANCH  20  29
ATOM     21  O   UNL     1     113.610 125.815 137.738  0.00  0.00    +0.000 OA
ATOM     22  O   UNL     1     111.929 124.079 137.202  0.00  0.00    +0.000 OA
ATOM     23  O   UNL     1     113.472 123.937 136.634  0.00  0.00    +0.000 OA
ATOM     24  O   UNL     1     111.507 125.378 138.128  0.00  0.00    +0.000 OA
ATOM     25  C   UNL     1     112.489 124.657 137.381  0.00  0.00    +0.000 C 
ATOM     26  C   UNL     1     113.260 124.587 137.097  0.00  0.00    +0.000 C 
ATOM     27  C   UNL     1     112.278 125.306 137.843  0.00  0.00    +0.000 C 
ATOM     28  C   UNL     1     113.820 125.165 137.275  0.00  0.00    +0.000 C 
ATOM     29  C   UNL     1     112.838 125.885 138.022  0.00  0.00    +0.000 C 
ATOM     30  C   UNL     1     114.592 125.095 136.991  0.00  0.00    +0.000 C 
ENDBRANCH  20  29
ENDBRANCH   4  20
TORSDOF 3
ENDMDL
