MODEL 1
REMARK VINA RESULT:      -8.5      0.000      0.000
REMARK  Name = 77181160
REMARK  2 active torsions:
REMARK  status: ('A' for Active; 'I' for Inactive)
REMARK    1  A    between atoms: O_5  and  C_19
REMARK    2  A    between atoms: C_7  and  C_9
REMARK                            x       y       z     vdW  Elec       q    Type
REMARK                         _______ _______ _______ _____ _____    ______ ____
ROOT
ATOM      1  O   UNL     1     105.229 124.974 139.112  0.00  0.00    +0.000 OA
ATOM      2  O   UNL     1     104.027 123.071 138.997  0.00  0.00    +0.000 OA
ATOM      3  O   UNL     1     104.526 122.819 140.107  0.00  0.00    +0.000 OA
ATOM      4  O   UNL     1     106.908 125.518 141.428  0.00  0.00    +0.000 OA
ATOM      5  C   UNL     1     104.467 123.767 139.039  0.00  0.00    +0.000 C 
ATOM      6  C   UNL     1     104.701 124.486 138.707  0.00  0.00    +0.000 C 
ATOM      7  C   UNL     1     104.761 123.537 139.775  0.00  0.00    +0.000 C 
ATOM      8  C   UNL     1     105.288 124.026 140.179  0.00  0.00    +0.000 A 
ATOM      9  C   UNL     1     105.523 124.744 139.848  0.00  0.00    +0.000 A 
ATOM     10  C   UNL     1     105.587 123.776 140.946  0.00  0.00    +0.000 A 
ATOM     11  C   UNL     1     106.072 125.262 140.259  0.00  0.00    +0.000 A 
ATOM     12  C   UNL     1     106.137 124.280 141.371  0.00  0.00    +0.000 A 
ATOM     13  C   UNL     1     106.381 125.028 141.026  0.00  0.00    +0.000 A 
ENDROOT
BRANCH   5  15
ATOM     14  O   UNL     1     102.862 124.147 139.075  0.00  0.00    +0.000 OA
ATOM     15  C   UNL     1     103.993 123.618 138.380  0.00  0.00    +0.000 A 
ATOM     16  C   UNL     1     103.191 123.808 138.398  0.00  0.00    +0.000 A 
ATOM     17  C   UNL     1     104.322 123.279 137.704  0.00  0.00    +0.000 A 
ATOM     18  C   UNL     1     102.717 123.658 137.740  0.00  0.00    +0.000 A 
ATOM     19  C   UNL     1     103.848 123.129 137.046  0.00  0.00    +0.000 A 
ATOM     20  C   UNL     1     103.045 123.319 137.063  0.00  0.00    +0.000 A 
BRANCH  20  21
ATOM     21  O   UNL     1     102.571 123.170 136.405  0.00  0.00    +0.000 OA
ATOM     22  C   UNL     1     102.917 123.062 135.664  0.00  0.00    +0.000 C 
ENDBRANCH  20  21
ENDBRANCH   5  15
TORSDOF 2
ENDMDL
MODEL 2
REMARK VINA RESULT:      -8.3      7.057      7.982
REMARK  Name = 77181160
REMARK  2 active torsions:
REMARK  status: ('A' for Active; 'I' for Inactive)
REMARK    1  A    between atoms: O_5  and  C_19
REMARK    2  A    between atoms: C_7  and  C_9
REMARK                            x       y       z     vdW  Elec       q    Type
REMARK                         _______ _______ _______ _____ _____    ______ ____
ROOT
ATOM      1  O   UNL     1     112.694 126.228 136.663  0.00  0.00    +0.000 OA
ATOM      2  O   UNL     1     110.856 125.027 136.155  0.00  0.00    +0.000 OA
ATOM      3  O   UNL     1     111.581 124.039 136.357  0.00  0.00    +0.000 OA
ATOM      4  O   UNL     1     115.186 124.887 137.353  0.00  0.00    +0.000 OA
ATOM      5  C   UNL     1     111.529 125.467 136.341  0.00  0.00    +0.000 C 
ATOM      6  C   UNL     1     111.900 126.197 136.443  0.00  0.00    +0.000 C 
ATOM      7  C   UNL     1     111.952 124.769 136.459  0.00  0.00    +0.000 C 
ATOM      8  C   UNL     1     112.747 124.801 136.679  0.00  0.00    +0.000 A 
ATOM      9  C   UNL     1     113.118 125.531 136.781  0.00  0.00    +0.000 A 
ATOM     10  C   UNL     1     113.177 124.067 136.799  0.00  0.00    +0.000 A 
ATOM     11  C   UNL     1     113.945 125.576 137.009  0.00  0.00    +0.000 A 
ATOM     12  C   UNL     1     114.005 124.093 137.027  0.00  0.00    +0.000 A 
ATOM     13  C   UNL     1     114.391 124.853 137.133  0.00  0.00    +0.000 A 
ENDROOT
BRANCH   5  15
ATOM     14  O   UNL     1     110.458 125.880 137.527  0.00  0.00    +0.000 OA
ATOM     15  C   UNL     1     110.825 125.852 136.146  0.00  0.00    +0.000 A 
ATOM     16  C   UNL     1     110.291 126.058 136.739  0.00  0.00    +0.000 A 
ATOM     17  C   UNL     1     110.658 126.031 135.358  0.00  0.00    +0.000 A 
ATOM     18  C   UNL     1     109.587 126.443 136.544  0.00  0.00    +0.000 A 
ATOM     19  C   UNL     1     109.955 126.415 135.163  0.00  0.00    +0.000 A 
ATOM     20  C   UNL     1     109.419 126.622 135.756  0.00  0.00    +0.000 A 
BRANCH  20  21
ATOM     21  O   UNL     1     108.716 127.007 135.562  0.00  0.00    +0.000 OA
ATOM     22  C   UNL     1     108.643 127.819 135.685  0.00  0.00    +0.000 C 
ENDBRANCH  20  21
ENDBRANCH   5  15
TORSDOF 2
ENDMDL
MODEL 3
REMARK VINA RESULT:      -8.2      7.024      8.315
REMARK  Name = 77181160
REMARK  2 active torsions:
REMARK  status: ('A' for Active; 'I' for Inactive)
REMARK    1  A    between atoms: O_5  and  C_19
REMARK    2  A    between atoms: C_7  and  C_9
REMARK                            x       y       z     vdW  Elec       q    Type
REMARK                         _______ _______ _______ _____ _____    ______ ____
ROOT
ATOM      1  O   UNL     1     103.218 124.789 146.891  0.00  0.00    +0.000 OA
ATOM      2  O   UNL     1     105.114 123.923 146.032  0.00  0.00    +0.000 OA
ATOM      3  O   UNL     1     104.395 122.963 145.705  0.00  0.00    +0.000 OA
ATOM      4  O   UNL     1     100.710 123.321 146.704  0.00  0.00    +0.000 OA
ATOM      5  C   UNL     1     104.420 124.240 146.347  0.00  0.00    +0.000 C 
ATOM      6  C   UNL     1     104.028 124.849 146.742  0.00  0.00    +0.000 C 
ATOM      7  C   UNL     1     104.003 123.572 146.101  0.00  0.00    +0.000 C 
ATOM      8  C   UNL     1     103.194 123.513 146.250  0.00  0.00    +0.000 A 
ATOM      9  C   UNL     1     102.802 124.122 146.646  0.00  0.00    +0.000 A 
ATOM     10  C   UNL     1     102.770 122.812 145.989  0.00  0.00    +0.000 A 
ATOM     11  C   UNL     1     101.959 124.071 146.807  0.00  0.00    +0.000 A 
ATOM     12  C   UNL     1     101.928 122.744 146.141  0.00  0.00    +0.000 A 
ATOM     13  C   UNL     1     101.519 123.378 146.553  0.00  0.00    +0.000 A 
ENDROOT
BRANCH   5  15
ATOM     14  O   UNL     1     104.903 125.213 145.104  0.00  0.00    +0.000 OA
ATOM     15  C   UNL     1     105.128 124.660 146.403  0.00  0.00    +0.000 A 
ATOM     16  C   UNL     1     105.369 125.146 145.782  0.00  0.00    +0.000 A 
ATOM     17  C   UNL     1     105.594 124.594 147.080  0.00  0.00    +0.000 A 
ATOM     18  C   UNL     1     106.077 125.566 145.838  0.00  0.00    +0.000 A 
ATOM     19  C   UNL     1     106.302 125.014 147.136  0.00  0.00    +0.000 A 
ATOM     20  C   UNL     1     106.544 125.500 146.514  0.00  0.00    +0.000 A 
BRANCH  20  21
ATOM     21  O   UNL     1     107.252 125.920 146.570  0.00  0.00    +0.000 OA
ATOM     22  C   UNL     1     107.288 126.608 147.024  0.00  0.00    +0.000 C 
ENDBRANCH  20  21
ENDBRANCH   5  15
TORSDOF 2
ENDMDL
MODEL 4
REMARK VINA RESULT:      -8.2      5.874      8.037
REMARK  Name = 77181160
REMARK  2 active torsions:
REMARK  status: ('A' for Active; 'I' for Inactive)
REMARK    1  A    between atoms: O_5  and  C_19
REMARK    2  A    between atoms: C_7  and  C_9
REMARK                            x       y       z     vdW  Elec       q    Type
REMARK                         _______ _______ _______ _____ _____    ______ ____
ROOT
ATOM      1  O   UNL     1     107.536 125.471 147.002  0.00  0.00    +0.000 OA
ATOM      2  O   UNL     1     105.419 125.309 146.246  0.00  0.00    +0.000 OA
ATOM      3  O   UNL     1     105.195 124.736 147.325  0.00  0.00    +0.000 OA
ATOM      4  O   UNL     1     108.255 124.398 149.612  0.00  0.00    +0.000 OA
ATOM      5  C   UNL     1     106.194 125.368 146.522  0.00  0.00    +0.000 C 
ATOM      6  C   UNL     1     106.975 125.614 146.414  0.00  0.00    +0.000 C 
ATOM      7  C   UNL     1     105.976 124.981 147.218  0.00  0.00    +0.000 C 
ATOM      8  C   UNL     1     106.538 124.839 147.804  0.00  0.00    +0.000 A 
ATOM      9  C   UNL     1     107.318 125.084 147.696  0.00  0.00    +0.000 A 
ATOM     10  C   UNL     1     106.298 124.435 148.524  0.00  0.00    +0.000 A 
ATOM     11  C   UNL     1     107.913 124.942 148.301  0.00  0.00    +0.000 A 
ATOM     12  C   UNL     1     106.879 124.284 149.139  0.00  0.00    +0.000 A 
ATOM     13  C   UNL     1     107.691 124.539 149.026  0.00  0.00    +0.000 A 
ENDROOT
BRANCH   5  15
ATOM     14  O   UNL     1     106.339 124.427 145.175  0.00  0.00    +0.000 OA
ATOM     15  C   UNL     1     105.996 125.674 145.782  0.00  0.00    +0.000 A 
ATOM     16  C   UNL     1     106.068 125.203 145.109  0.00  0.00    +0.000 A 
ATOM     17  C   UNL     1     105.725 126.451 145.716  0.00  0.00    +0.000 A 
ATOM     18  C   UNL     1     105.870 125.509 144.369  0.00  0.00    +0.000 A 
ATOM     19  C   UNL     1     105.527 126.756 144.976  0.00  0.00    +0.000 A 
ATOM     20  C   UNL     1     105.599 126.285 144.302  0.00  0.00    +0.000 A 
BRANCH  20  21
ATOM     21  O   UNL     1     105.401 126.591 143.561  0.00  0.00    +0.000 OA
ATOM     22  C   UNL     1     105.806 127.245 143.264  0.00  0.00    +0.000 C 
ENDBRANCH  20  21
ENDBRANCH   5  15
TORSDOF 2
ENDMDL
MODEL 5
REMARK VINA RESULT:      -8.2      7.042      7.658
REMARK  Name = 77181160
REMARK  2 active torsions:
REMARK  status: ('A' for Active; 'I' for Inactive)
REMARK    1  A    between atoms: O_5  and  C_19
REMARK    2  A    between atoms: C_7  and  C_9
REMARK                            x       y       z     vdW  Elec       q    Type
REMARK                         _______ _______ _______ _____ _____    ______ ____
ROOT
ATOM      1  O   UNL     1     105.431 124.244 147.367  0.00  0.00    +0.000 OA
ATOM      2  O   UNL     1     103.936 124.607 145.720  0.00  0.00    +0.000 OA
ATOM      3  O   UNL     1     104.755 125.448 145.314  0.00  0.00    +0.000 OA
ATOM      4  O   UNL     1     107.921 125.751 147.455  0.00  0.00    +0.000 OA
ATOM      5  C   UNL     1     104.483 124.474 146.323  0.00  0.00    +0.000 C 
ATOM      6  C   UNL     1     104.708 124.072 147.008  0.00  0.00    +0.000 C 
ATOM      7  C   UNL     1     104.980 125.047 145.998  0.00  0.00    +0.000 C 
ATOM      8  C   UNL     1     105.702 125.218 146.358  0.00  0.00    +0.000 A 
ATOM      9  C   UNL     1     105.928 124.816 147.043  0.00  0.00    +0.000 A 
ATOM     10  C   UNL     1     106.212 125.817 146.010  0.00  0.00    +0.000 A 
ATOM     11  C   UNL     1     106.678 124.986 147.427  0.00  0.00    +0.000 A 
ATOM     12  C   UNL     1     106.965 125.999 146.381  0.00  0.00    +0.000 A 
ATOM     13  C   UNL     1     107.200 125.581 147.093  0.00  0.00    +0.000 A 
ENDROOT
BRANCH   5  15
ATOM     14  O   UNL     1     104.411 123.046 145.500  0.00  0.00    +0.000 OA
ATOM     15  C   UNL     1     103.779 124.044 146.303  0.00  0.00    +0.000 A 
ATOM     16  C   UNL     1     103.743 123.331 145.892  0.00  0.00    +0.000 A 
ATOM     17  C   UNL     1     103.111 124.329 146.695  0.00  0.00    +0.000 A 
ATOM     18  C   UNL     1     103.039 122.901 145.871  0.00  0.00    +0.000 A 
ATOM     19  C   UNL     1     102.407 123.900 146.675  0.00  0.00    +0.000 A 
ATOM     20  C   UNL     1     102.370 123.185 146.263  0.00  0.00    +0.000 A 
BRANCH  20  21
ATOM     21  O   UNL     1     101.666 122.756 146.243  0.00  0.00    +0.000 OA
ATOM     22  C   UNL     1     101.045 123.006 145.761  0.00  0.00    +0.000 C 
ENDBRANCH  20  21
ENDBRANCH   5  15
TORSDOF 2
ENDMDL
MODEL 6
REMARK VINA RESULT:      -8.1      0.768      4.151
REMARK  Name = 77181160
REMARK  2 active torsions:
REMARK  status: ('A' for Active; 'I' for Inactive)
REMARK    1  A    between atoms: O_5  and  C_19
REMARK    2  A    between atoms: C_7  and  C_9
REMARK                            x       y       z     vdW  Elec       q    Type
REMARK                         _______ _______ _______ _____ _____    ______ ____
ROOT
ATOM      1  O   UNL     1     104.681 123.438 137.616  0.00  0.00    +0.000 OA
ATOM      2  O   UNL     1     103.759 124.017 139.590  0.00  0.00    +0.000 OA
ATOM      3  O   UNL     1     102.676 123.830 139.012  0.00  0.00    +0.000 OA
ATOM      4  O   UNL     1     102.992 122.739 135.349  0.00  0.00    +0.000 OA
ATOM      5  C   UNL     1     104.098 123.805 138.867  0.00  0.00    +0.000 C 
ATOM      6  C   UNL     1     104.766 123.674 138.402  0.00  0.00    +0.000 C 
ATOM      7  C   UNL     1     103.344 123.699 138.546  0.00  0.00    +0.000 C 
ATOM      8  C   UNL     1     103.261 123.463 137.761  0.00  0.00    +0.000 A 
ATOM      9  C   UNL     1     103.929 123.333 137.295  0.00  0.00    +0.000 A 
ATOM     10  C   UNL     1     102.471 123.357 137.438  0.00  0.00    +0.000 A 
ATOM     11  C   UNL     1     103.855 123.087 136.475  0.00  0.00    +0.000 A 
ATOM     12  C   UNL     1     102.377 123.111 136.620  0.00  0.00    +0.000 A 
ATOM     13  C   UNL     1     103.073 122.975 136.136  0.00  0.00    +0.000 A 
ENDROOT
BRANCH   5  15
ATOM     14  O   UNL     1     104.594 125.365 139.076  0.00  0.00    +0.000 OA
ATOM     15  C   UNL     1     104.581 124.002 139.506  0.00  0.00    +0.000 A 
ATOM     16  C   UNL     1     104.829 124.781 139.610  0.00  0.00    +0.000 A 
ATOM     17  C   UNL     1     104.815 123.419 140.041  0.00  0.00    +0.000 A 
ATOM     18  C   UNL     1     105.312 124.979 140.249  0.00  0.00    +0.000 A 
ATOM     19  C   UNL     1     105.299 123.616 140.680  0.00  0.00    +0.000 A 
ATOM     20  C   UNL     1     105.547 124.397 140.784  0.00  0.00    +0.000 A 
BRANCH  20  21
ATOM     21  O   UNL     1     106.030 124.594 141.423  0.00  0.00    +0.000 OA
ATOM     22  C   UNL     1     106.811 124.329 141.446  0.00  0.00    +0.000 C 
ENDBRANCH  20  21
ENDBRANCH   5  15
TORSDOF 2
ENDMDL
MODEL 7
REMARK VINA RESULT:      -7.9      7.061      7.801
REMARK  Name = 77181160
REMARK  2 active torsions:
REMARK  status: ('A' for Active; 'I' for Inactive)
REMARK    1  A    between atoms: O_5  and  C_19
REMARK    2  A    between atoms: C_7  and  C_9
REMARK                            x       y       z     vdW  Elec       q    Type
REMARK                         _______ _______ _______ _____ _____    ______ ____
ROOT
ATOM      1  O   UNL     1     105.115 125.851 146.092  0.00  0.00    +0.000 OA
ATOM      2  O   UNL     1     104.693 123.866 147.074  0.00  0.00    +0.000 OA
ATOM      3  O   UNL     1     105.794 124.031 147.626  0.00  0.00    +0.000 OA
ATOM      4  O   UNL     1     107.582 127.286 146.669  0.00  0.00    +0.000 OA
ATOM      5  C   UNL     1     104.847 124.593 146.714  0.00  0.00    +0.000 C 
ATOM      6  C   UNL     1     104.620 125.199 146.203  0.00  0.00    +0.000 C 
ATOM      7  C   UNL     1     105.567 124.638 147.115  0.00  0.00    +0.000 C 
ATOM      8  C   UNL     1     106.061 125.290 147.003  0.00  0.00    +0.000 A 
ATOM      9  C   UNL     1     105.834 125.896 146.492  0.00  0.00    +0.000 A 
ATOM     10  C   UNL     1     106.808 125.325 147.426  0.00  0.00    +0.000 A 
ATOM     11  C   UNL     1     106.340 126.580 146.368  0.00  0.00    +0.000 A 
ATOM     12  C   UNL     1     107.326 126.001 147.314  0.00  0.00    +0.000 A 
ATOM     13  C   UNL     1     107.091 126.633 146.782  0.00  0.00    +0.000 A 
ENDROOT
BRANCH   5  15
ATOM     14  O   UNL     1     104.793 123.513 145.468  0.00  0.00    +0.000 OA
ATOM     15  C   UNL     1     104.146 124.191 146.547  0.00  0.00    +0.000 A 
ATOM     16  C   UNL     1     104.119 123.651 145.924  0.00  0.00    +0.000 A 
ATOM     17  C   UNL     1     103.473 124.329 147.003  0.00  0.00    +0.000 A 
ATOM     18  C   UNL     1     103.419 123.249 145.757  0.00  0.00    +0.000 A 
ATOM     19  C   UNL     1     102.772 123.927 146.836  0.00  0.00    +0.000 A 
ATOM     20  C   UNL     1     102.745 123.386 146.213  0.00  0.00    +0.000 A 
BRANCH  20  21
ATOM     21  O   UNL     1     102.044 122.984 146.046  0.00  0.00    +0.000 OA
ATOM     22  C   UNL     1     101.351 123.407 145.901  0.00  0.00    +0.000 C 
ENDBRANCH  20  21
ENDBRANCH   5  15
TORSDOF 2
ENDMDL
MODEL 8
REMARK VINA RESULT:      -7.9      8.312      9.045
REMARK  Name = 77181160
REMARK  2 active torsions:
REMARK  status: ('A' for Active; 'I' for Inactive)
REMARK    1  A    between atoms: O_5  and  C_19
REMARK    2  A    between atoms: C_7  and  C_9
REMARK                            x       y       z     vdW  Elec       q    Type
REMARK                         _______ _______ _______ _____ _____    ______ ____
ROOT
ATOM      1  O   UNL     1     105.831 125.178 146.979  0.00  0.00    +0.000 OA
ATOM      2  O   UNL     1     104.358 124.533 148.558  0.00  0.00    +0.000 OA
ATOM      3  O   UNL     1     105.360 124.395 149.279  0.00  0.00    +0.000 OA
ATOM      4  O   UNL     1     108.682 125.255 147.568  0.00  0.00    +0.000 OA
ATOM      5  C   UNL     1     104.897 124.770 147.979  0.00  0.00    +0.000 C 
ATOM      6  C   UNL     1     105.054 125.031 147.213  0.00  0.00    +0.000 C 
ATOM      7  C   UNL     1     105.517 124.656 148.512  0.00  0.00    +0.000 C 
ATOM      8  C   UNL     1     106.294 124.804 148.277  0.00  0.00    +0.000 A 
ATOM      9  C   UNL     1     106.451 125.065 147.511  0.00  0.00    +0.000 A 
ATOM     10  C   UNL     1     106.931 124.683 148.841  0.00  0.00    +0.000 A 
ATOM     11  C   UNL     1     107.256 125.223 147.255  0.00  0.00    +0.000 A 
ATOM     12  C   UNL     1     107.742 124.835 148.603  0.00  0.00    +0.000 A 
ATOM     13  C   UNL     1     107.906 125.107 147.805  0.00  0.00    +0.000 A 
ENDROOT
BRANCH   5  15
ATOM     14  O   UNL     1     103.960 126.099 148.259  0.00  0.00    +0.000 OA
ATOM     15  C   UNL     1     104.090 124.750 147.807  0.00  0.00    +0.000 A 
ATOM     16  C   UNL     1     103.622 125.414 147.947  0.00  0.00    +0.000 A 
ATOM     17  C   UNL     1     103.752 124.064 147.495  0.00  0.00    +0.000 A 
ATOM     18  C   UNL     1     102.816 125.394 147.774  0.00  0.00    +0.000 A 
ATOM     19  C   UNL     1     102.946 124.044 147.323  0.00  0.00    +0.000 A 
ATOM     20  C   UNL     1     102.477 124.710 147.463  0.00  0.00    +0.000 A 
BRANCH  20  21
ATOM     21  O   UNL     1     101.670 124.690 147.290  0.00  0.00    +0.000 OA
ATOM     22  C   UNL     1     101.393 124.224 146.668  0.00  0.00    +0.000 C 
ENDBRANCH  20  21
ENDBRANCH   5  15
TORSDOF 2
ENDMDL
MODEL 9
REMARK VINA RESULT:      -7.9      6.825      8.329
REMARK  Name = 77181160
REMARK  2 active torsions:
REMARK  status: ('A' for Active; 'I' for Inactive)
REMARK    1  A    between atoms: O_5  and  C_19
REMARK    2  A    between atoms: C_7  and  C_9
REMARK                            x       y       z     vdW  Elec       q    Type
REMARK                         _______ _______ _______ _____ _____    ______ ____
ROOT
ATOM      1  O   UNL     1     110.716 126.615 137.017  0.00  0.00    +0.000 OA
ATOM      2  O   UNL     1     111.688 124.964 135.830  0.00  0.00    +0.000 OA
ATOM      3  O   UNL     1     110.721 125.097 135.062  0.00  0.00    +0.000 OA
ATOM      4  O   UNL     1     108.214 127.800 136.117  0.00  0.00    +0.000 OA
ATOM      5  C   UNL     1     111.333 125.568 136.265  0.00  0.00    +0.000 C 
ATOM      6  C   UNL     1     111.332 126.074 136.917  0.00  0.00    +0.000 C 
ATOM      7  C   UNL     1     110.719 125.603 135.714  0.00  0.00    +0.000 C 
ATOM      8  C   UNL     1     110.105 126.144 135.815  0.00  0.00    +0.000 A 
ATOM      9  C   UNL     1     110.103 126.650 136.467  0.00  0.00    +0.000 A 
ATOM     10  C   UNL     1     109.471 126.171 135.235  0.00  0.00    +0.000 A 
ATOM     11  C   UNL     1     109.468 127.218 136.583  0.00  0.00    +0.000 A 
ATOM     12  C   UNL     1     108.829 126.732 135.335  0.00  0.00    +0.000 A 
ATOM     13  C   UNL     1     108.827 127.259 136.013  0.00  0.00    +0.000 A 
ENDROOT
BRANCH   5  15
ATOM     14  O   UNL     1     111.312 124.233 137.234  0.00  0.00    +0.000 OA
ATOM     15  C   UNL     1     112.042 125.236 136.524  0.00  0.00    +0.000 A 
ATOM     16  C   UNL     1     112.031 124.569 137.008  0.00  0.00    +0.000 A 
ATOM     17  C   UNL     1     112.761 125.572 136.299  0.00  0.00    +0.000 A 
ATOM     18  C   UNL     1     112.740 124.236 137.268  0.00  0.00    +0.000 A 
ATOM     19  C   UNL     1     113.470 125.240 136.559  0.00  0.00    +0.000 A 
ATOM     20  C   UNL     1     113.460 124.571 137.044  0.00  0.00    +0.000 A 
BRANCH  20  21
ATOM     21  O   UNL     1     114.169 124.239 137.303  0.00  0.00    +0.000 OA
ATOM     22  C   UNL     1     114.846 124.707 137.364  0.00  0.00    +0.000 C 
ENDBRANCH  20  21
ENDBRANCH   5  15
TORSDOF 2
ENDMDL
MODEL 10
REMARK VINA RESULT:      -7.8      5.885      8.569
REMARK  Name = 77181160
REMARK  2 active torsions:
REMARK  status: ('A' for Active; 'I' for Inactive)
REMARK    1  A    between atoms: O_5  and  C_19
REMARK    2  A    between atoms: C_7  and  C_9
REMARK                            x       y       z     vdW  Elec       q    Type
REMARK                         _______ _______ _______ _____ _____    ______ ____
ROOT
ATOM      1  O   UNL     1     105.931 126.808 146.059  0.00  0.00    +0.000 OA
ATOM      2  O   UNL     1     106.701 124.712 146.366  0.00  0.00    +0.000 OA
ATOM      3  O   UNL     1     106.604 124.615 145.132  0.00  0.00    +0.000 OA
ATOM      4  O   UNL     1     105.309 127.772 143.382  0.00  0.00    +0.000 OA
ATOM      5  C   UNL     1     106.419 125.480 146.254  0.00  0.00    +0.000 C 
ATOM      6  C   UNL     1     106.195 126.211 146.564  0.00  0.00    +0.000 C 
ATOM      7  C   UNL     1     106.380 125.346 145.441  0.00  0.00    +0.000 C 
ATOM      8  C   UNL     1     106.116 125.944 144.937  0.00  0.00    +0.000 A 
ATOM      9  C   UNL     1     105.892 126.675 145.246  0.00  0.00    +0.000 A 
ATOM     10  C   UNL     1     106.080 125.792 144.092  0.00  0.00    +0.000 A 
ATOM     11  C   UNL     1     105.616 127.306 144.731  0.00  0.00    +0.000 A 
ATOM     12  C   UNL     1     105.807 126.411 143.562  0.00  0.00    +0.000 A 
ATOM     13  C   UNL     1     105.573 127.172 143.884  0.00  0.00    +0.000 A 
ENDROOT
BRANCH   5  15
ATOM     14  O   UNL     1     105.264 124.704 147.142  0.00  0.00    +0.000 OA
ATOM     15  C   UNL     1     106.594 125.212 147.015  0.00  0.00    +0.000 A 
ATOM     16  C   UNL     1     106.017 124.824 147.458  0.00  0.00    +0.000 A 
ATOM     17  C   UNL     1     107.346 125.332 147.331  0.00  0.00    +0.000 A 
ATOM     18  C   UNL     1     106.191 124.557 148.219  0.00  0.00    +0.000 A 
ATOM     19  C   UNL     1     107.521 125.064 148.092  0.00  0.00    +0.000 A 
ATOM     20  C   UNL     1     106.943 124.676 148.536  0.00  0.00    +0.000 A 
BRANCH  20  21
ATOM     21  O   UNL     1     107.118 124.408 149.296  0.00  0.00    +0.000 OA
ATOM     22  C   UNL     1     107.904 124.305 149.527  0.00  0.00    +0.000 C 
ENDBRANCH  20  21
ENDBRANCH   5  15
TORSDOF 2
ENDMDL
