MODEL 1
REMARK VINA RESULT:      -8.3      0.000      0.000
REMARK  Name = 44257640
REMARK  3 active torsions:
REMARK  status: ('A' for Active; 'I' for Inactive)
REMARK    1  A    between atoms: O_2  and  C_7
REMARK    2  A    between atoms: O_3  and  C_9
REMARK    3  A    between atoms: C_12  and  C_15
REMARK                            x       y       z     vdW  Elec       q    Type
REMARK                         _______ _______ _______ _____ _____    ______ ____
ROOT
ATOM      1  O   UNL     1     105.422 124.294 147.206  0.00  0.00    +0.000 OA
ATOM      2  O   UNL     1     103.722 125.362 148.749  0.00  0.00    +0.000 OA
ATOM      3  C   UNL     1     104.029 124.596 147.544  0.00  0.00    +0.000 A 
ATOM      4  C   UNL     1     104.580 124.247 147.039  0.00  0.00    +0.000 A 
ATOM      5  C   UNL     1     103.224 124.545 147.373  0.00  0.00    +0.000 A 
ATOM      6  C   UNL     1     102.969 124.145 146.698  0.00  0.00    +0.000 A 
ATOM      7  C   UNL     1     103.521 123.796 146.193  0.00  0.00    +0.000 A 
ATOM      8  C   UNL     1     104.327 123.847 146.364  0.00  0.00    +0.000 A 
ATOM      9  C   UNL     1     104.281 125.016 148.250  0.00  0.00    +0.000 A 
ATOM     10  C   UNL     1     105.693 124.710 147.908  0.00  0.00    +0.000 A 
ATOM     11  C   UNL     1     105.118 125.073 148.433  0.00  0.00    +0.000 A 
ATOM     12  C   UNL     1     102.164 124.093 146.527  0.00  0.00    +0.000 C 
ENDROOT
BRANCH  10  13
ATOM     13  C   UNL     1     106.499 124.759 148.075  0.00  0.00    +0.000 A 
ATOM     14  C   UNL     1     107.001 125.177 147.571  0.00  0.00    +0.000 A 
ATOM     15  C   UNL     1     106.804 124.390 148.748  0.00  0.00    +0.000 A 
ATOM     16  C   UNL     1     107.808 125.226 147.739  0.00  0.00    +0.000 A 
ATOM     17  C   UNL     1     107.610 124.439 148.916  0.00  0.00    +0.000 A 
ATOM     18  C   UNL     1     108.112 124.857 148.412  0.00  0.00    +0.000 A 
ENDBRANCH  10  13
BRANCH   5  19
ATOM     19  O   UNL     1     102.672 124.894 147.878  0.00  0.00    +0.000 OA
ATOM     20  C   UNL     1     102.427 124.498 148.559  0.00  0.00    +0.000 C 
ENDBRANCH   5  19
BRANCH   7  21
ATOM     21  O   UNL     1     103.268 123.395 145.518  0.00  0.00    +0.000 OA
ATOM     22  C   UNL     1     103.728 122.789 145.200  0.00  0.00    +0.000 C 
ENDBRANCH   7  21
TORSDOF 3
ENDMDL
MODEL 2
REMARK VINA RESULT:      -8.1      1.181      4.259
REMARK  Name = 44257640
REMARK  3 active torsions:
REMARK  status: ('A' for Active; 'I' for Inactive)
REMARK    1  A    between atoms: O_2  and  C_7
REMARK    2  A    between atoms: O_3  and  C_9
REMARK    3  A    between atoms: C_12  and  C_15
REMARK                            x       y       z     vdW  Elec       q    Type
REMARK                         _______ _______ _______ _____ _____    ______ ____
ROOT
ATOM      1  O   UNL     1     104.838 124.225 147.319  0.00  0.00    +0.000 OA
ATOM      2  O   UNL     1     105.958 125.408 145.381  0.00  0.00    +0.000 OA
ATOM      3  C   UNL     1     105.997 124.925 146.758  0.00  0.00    +0.000 A 
ATOM      4  C   UNL     1     105.635 124.540 147.392  0.00  0.00    +0.000 A 
ATOM      5  C   UNL     1     106.761 125.222 146.840  0.00  0.00    +0.000 A 
ATOM      6  C   UNL     1     107.165 125.136 147.554  0.00  0.00    +0.000 A 
ATOM      7  C   UNL     1     106.802 124.751 148.188  0.00  0.00    +0.000 A 
ATOM      8  C   UNL     1     106.037 124.453 148.106  0.00  0.00    +0.000 A 
ATOM      9  C   UNL     1     105.588 125.022 146.008  0.00  0.00    +0.000 A 
ATOM     10  C   UNL     1     104.414 124.313 146.577  0.00  0.00    +0.000 A 
ATOM     11  C   UNL     1     104.791 124.714 145.918  0.00  0.00    +0.000 A 
ATOM     12  C   UNL     1     107.929 125.433 147.636  0.00  0.00    +0.000 C 
ENDROOT
BRANCH  10  13
ATOM     13  C   UNL     1     103.648 124.014 146.499  0.00  0.00    +0.000 A 
ATOM     14  C   UNL     1     103.006 124.442 146.791  0.00  0.00    +0.000 A 
ATOM     15  C   UNL     1     103.526 123.286 146.130  0.00  0.00    +0.000 A 
ATOM     16  C   UNL     1     102.241 124.142 146.712  0.00  0.00    +0.000 A 
ATOM     17  C   UNL     1     102.761 122.987 146.052  0.00  0.00    +0.000 A 
ATOM     18  C   UNL     1     102.119 123.415 146.343  0.00  0.00    +0.000 A 
ENDBRANCH  10  13
BRANCH   5  19
ATOM     19  O   UNL     1     107.124 125.607 146.206  0.00  0.00    +0.000 OA
ATOM     20  C   UNL     1     106.914 126.384 146.020  0.00  0.00    +0.000 C 
ENDBRANCH   5  19
BRANCH   7  21
ATOM     21  O   UNL     1     107.204 124.663 148.903  0.00  0.00    +0.000 OA
ATOM     22  C   UNL     1     106.872 124.217 149.512  0.00  0.00    +0.000 C 
ENDBRANCH   7  21
TORSDOF 3
ENDMDL
MODEL 3
REMARK VINA RESULT:      -8.1     13.223     13.818
REMARK  Name = 44257640
REMARK  3 active torsions:
REMARK  status: ('A' for Active; 'I' for Inactive)
REMARK    1  A    between atoms: O_2  and  C_7
REMARK    2  A    between atoms: O_3  and  C_9
REMARK    3  A    between atoms: C_12  and  C_15
REMARK                            x       y       z     vdW  Elec       q    Type
REMARK                         _______ _______ _______ _____ _____    ______ ____
ROOT
ATOM      1  O   UNL     1     112.613 126.638 136.290  0.00  0.00    +0.000 OA
ATOM      2  O   UNL     1     110.686 125.051 135.868  0.00  0.00    +0.000 OA
ATOM      3  C   UNL     1     111.253 126.395 135.801  0.00  0.00    +0.000 A 
ATOM      4  C   UNL     1     111.880 126.914 135.938  0.00  0.00    +0.000 A 
ATOM      5  C   UNL     1     110.555 126.672 135.463  0.00  0.00    +0.000 A 
ATOM      6  C   UNL     1     110.481 127.468 135.260  0.00  0.00    +0.000 A 
ATOM      7  C   UNL     1     111.107 127.988 135.396  0.00  0.00    +0.000 A 
ATOM      8  C   UNL     1     111.807 127.711 135.735  0.00  0.00    +0.000 A 
ATOM      9  C   UNL     1     111.318 125.563 136.008  0.00  0.00    +0.000 A 
ATOM     10  C   UNL     1     112.695 125.810 136.503  0.00  0.00    +0.000 A 
ATOM     11  C   UNL     1     112.043 125.269 136.361  0.00  0.00    +0.000 A 
ATOM     12  C   UNL     1     109.782 127.745 134.921  0.00  0.00    +0.000 C 
ENDROOT
BRANCH  10  13
ATOM     13  C   UNL     1     113.397 125.536 136.842  0.00  0.00    +0.000 A 
ATOM     14  C   UNL     1     113.531 125.636 137.650  0.00  0.00    +0.000 A 
ATOM     15  C   UNL     1     113.963 125.163 136.372  0.00  0.00    +0.000 A 
ATOM     16  C   UNL     1     114.232 125.362 137.988  0.00  0.00    +0.000 A 
ATOM     17  C   UNL     1     114.664 124.889 136.710  0.00  0.00    +0.000 A 
ATOM     18  C   UNL     1     114.799 124.989 137.518  0.00  0.00    +0.000 A 
ENDBRANCH  10  13
BRANCH   5  19
ATOM     19  O   UNL     1     109.928 126.152 135.327  0.00  0.00    +0.000 OA
ATOM     20  C   UNL     1     109.881 125.741 134.612  0.00  0.00    +0.000 C 
ENDBRANCH   5  19
BRANCH   7  21
ATOM     21  O   UNL     1     111.034 128.784 135.194  0.00  0.00    +0.000 OA
ATOM     22  C   UNL     1     111.617 129.322 135.420  0.00  0.00    +0.000 C 
ENDBRANCH   7  21
TORSDOF 3
ENDMDL
MODEL 4
REMARK VINA RESULT:      -7.9     13.418     14.072
REMARK  Name = 44257640
REMARK  3 active torsions:
REMARK  status: ('A' for Active; 'I' for Inactive)
REMARK    1  A    between atoms: O_2  and  C_7
REMARK    2  A    between atoms: O_3  and  C_9
REMARK    3  A    between atoms: C_12  and  C_15
REMARK                            x       y       z     vdW  Elec       q    Type
REMARK                         _______ _______ _______ _____ _____    ______ ____
ROOT
ATOM      1  O   UNL     1     112.333 126.185 136.157  0.00  0.00    +0.000 OA
ATOM      2  O   UNL     1     112.774 128.674 136.008  0.00  0.00    +0.000 OA
ATOM      3  C   UNL     1     111.919 127.523 135.727  0.00  0.00    +0.000 A 
ATOM      4  C   UNL     1     111.773 126.713 135.774  0.00  0.00    +0.000 A 
ATOM      5  C   UNL     1     111.375 128.020 135.358  0.00  0.00    +0.000 A 
ATOM      6  C   UNL     1     110.683 127.707 135.036  0.00  0.00    +0.000 A 
ATOM      7  C   UNL     1     110.536 126.896 135.083  0.00  0.00    +0.000 A 
ATOM      8  C   UNL     1     111.082 126.399 135.452  0.00  0.00    +0.000 A 
ATOM      9  C   UNL     1     112.636 127.862 136.060  0.00  0.00    +0.000 A 
ATOM     10  C   UNL     1     113.055 126.506 136.494  0.00  0.00    +0.000 A 
ATOM     11  C   UNL     1     113.208 127.350 136.446  0.00  0.00    +0.000 A 
ATOM     12  C   UNL     1     110.138 128.203 134.666  0.00  0.00    +0.000 C 
ENDROOT
BRANCH  10  13
ATOM     13  C   UNL     1     113.598 126.005 136.863  0.00  0.00    +0.000 A 
ATOM     14  C   UNL     1     113.607 125.940 137.686  0.00  0.00    +0.000 A 
ATOM     15  C   UNL     1     114.133 125.571 136.409  0.00  0.00    +0.000 A 
ATOM     16  C   UNL     1     114.151 125.440 138.054  0.00  0.00    +0.000 A 
ATOM     17  C   UNL     1     114.676 125.071 136.777  0.00  0.00    +0.000 A 
ATOM     18  C   UNL     1     114.685 125.005 137.599  0.00  0.00    +0.000 A 
ENDBRANCH  10  13
BRANCH   5  19
ATOM     19  O   UNL     1     111.521 128.830 135.311  0.00  0.00    +0.000 OA
ATOM     20  C   UNL     1     112.026 129.126 134.729  0.00  0.00    +0.000 C 
ENDBRANCH   5  19
BRANCH   7  21
ATOM     21  O   UNL     1     109.845 126.582 134.760  0.00  0.00    +0.000 OA
ATOM     22  C   UNL     1     109.721 125.766 134.763  0.00  0.00    +0.000 C 
ENDBRANCH   7  21
TORSDOF 3
ENDMDL
MODEL 5
REMARK VINA RESULT:      -7.8     13.198     14.126
REMARK  Name = 44257640
REMARK  3 active torsions:
REMARK  status: ('A' for Active; 'I' for Inactive)
REMARK    1  A    between atoms: O_2  and  C_7
REMARK    2  A    between atoms: O_3  and  C_9
REMARK    3  A    between atoms: C_12  and  C_15
REMARK                            x       y       z     vdW  Elec       q    Type
REMARK                         _______ _______ _______ _____ _____    ______ ____
ROOT
ATOM      1  O   UNL     1     112.525 127.288 136.031  0.00  0.00    +0.000 OA
ATOM      2  O   UNL     1     113.983 125.663 137.314  0.00  0.00    +0.000 OA
ATOM      3  C   UNL     1     112.764 125.942 136.559  0.00  0.00    +0.000 A 
ATOM      4  C   UNL     1     112.287 126.469 136.141  0.00  0.00    +0.000 A 
ATOM      5  C   UNL     1     112.525 125.159 136.658  0.00  0.00    +0.000 A 
ATOM      6  C   UNL     1     111.809 124.902 136.338  0.00  0.00    +0.000 A 
ATOM      7  C   UNL     1     111.332 125.429 135.919  0.00  0.00    +0.000 A 
ATOM      8  C   UNL     1     111.571 126.213 135.820  0.00  0.00    +0.000 A 
ATOM      9  C   UNL     1     113.512 126.198 136.897  0.00  0.00    +0.000 A 
ATOM     10  C   UNL     1     113.269 127.561 136.362  0.00  0.00    +0.000 A 
ATOM     11  C   UNL     1     113.766 127.012 136.798  0.00  0.00    +0.000 A 
ATOM     12  C   UNL     1     111.571 124.119 136.437  0.00  0.00    +0.000 C 
ENDROOT
BRANCH  10  13
ATOM     13  C   UNL     1     113.505 128.345 136.261  0.00  0.00    +0.000 A 
ATOM     14  C   UNL     1     113.257 128.923 136.795  0.00  0.00    +0.000 A 
ATOM     15  C   UNL     1     113.989 128.552 135.625  0.00  0.00    +0.000 A 
ATOM     16  C   UNL     1     113.493 129.707 136.694  0.00  0.00    +0.000 A 
ATOM     17  C   UNL     1     114.225 129.336 135.524  0.00  0.00    +0.000 A 
ATOM     18  C   UNL     1     113.977 129.913 136.058  0.00  0.00    +0.000 A 
ENDBRANCH  10  13
BRANCH   5  19
ATOM     19  O   UNL     1     113.002 124.632 137.077  0.00  0.00    +0.000 OA
ATOM     20  C   UNL     1     113.639 124.264 136.701  0.00  0.00    +0.000 C 
ENDBRANCH   5  19
BRANCH   7  21
ATOM     21  O   UNL     1     110.617 125.173 135.599  0.00  0.00    +0.000 OA
ATOM     22  C   UNL     1     110.177 125.676 135.115  0.00  0.00    +0.000 C 
ENDBRANCH   7  21
TORSDOF 3
ENDMDL
MODEL 6
REMARK VINA RESULT:      -7.8     13.169     14.390
REMARK  Name = 44257640
REMARK  3 active torsions:
REMARK  status: ('A' for Active; 'I' for Inactive)
REMARK    1  A    between atoms: O_2  and  C_7
REMARK    2  A    between atoms: O_3  and  C_9
REMARK    3  A    between atoms: C_12  and  C_15
REMARK                            x       y       z     vdW  Elec       q    Type
REMARK                         _______ _______ _______ _____ _____    ______ ____
ROOT
ATOM      1  O   UNL     1     113.804 127.275 136.426  0.00  0.00    +0.000 OA
ATOM      2  O   UNL     1     111.319 127.009 136.018  0.00  0.00    +0.000 OA
ATOM      3  C   UNL     1     112.603 126.435 136.413  0.00  0.00    +0.000 A 
ATOM      4  C   UNL     1     113.413 126.519 136.546  0.00  0.00    +0.000 A 
ATOM      5  C   UNL     1     112.239 125.705 136.532  0.00  0.00    +0.000 A 
ATOM      6  C   UNL     1     112.684 125.058 136.784  0.00  0.00    +0.000 A 
ATOM      7  C   UNL     1     113.494 125.141 136.918  0.00  0.00    +0.000 A 
ATOM      8  C   UNL     1     113.859 125.872 136.799  0.00  0.00    +0.000 A 
ATOM      9  C   UNL     1     112.128 127.102 136.149  0.00  0.00    +0.000 A 
ATOM     10  C   UNL     1     113.346 127.952 136.163  0.00  0.00    +0.000 A 
ATOM     11  C   UNL     1     112.502 127.865 136.024  0.00  0.00    +0.000 A 
ATOM     12  C   UNL     1     112.320 124.328 136.903  0.00  0.00    +0.000 C 
ENDROOT
BRANCH  10  13
ATOM     13  C   UNL     1     113.714 128.681 136.045  0.00  0.00    +0.000 A 
ATOM     14  C   UNL     1     113.659 129.270 136.620  0.00  0.00    +0.000 A 
ATOM     15  C   UNL     1     114.136 128.822 135.350  0.00  0.00    +0.000 A 
ATOM     16  C   UNL     1     114.027 129.998 136.502  0.00  0.00    +0.000 A 
ATOM     17  C   UNL     1     114.504 129.551 135.231  0.00  0.00    +0.000 A 
ATOM     18  C   UNL     1     114.450 130.139 135.807  0.00  0.00    +0.000 A 
ENDBRANCH  10  13
BRANCH   5  19
ATOM     19  O   UNL     1     111.429 125.622 136.398  0.00  0.00    +0.000 OA
ATOM     20  C   UNL     1     111.149 125.484 135.634  0.00  0.00    +0.000 C 
ENDBRANCH   5  19
BRANCH   7  21
ATOM     21  O   UNL     1     113.940 124.495 137.170  0.00  0.00    +0.000 OA
ATOM     22  C   UNL     1     114.730 124.597 137.385  0.00  0.00    +0.000 C 
ENDBRANCH   7  21
TORSDOF 3
ENDMDL
MODEL 7
REMARK VINA RESULT:      -7.8      0.879      2.268
REMARK  Name = 44257640
REMARK  3 active torsions:
REMARK  status: ('A' for Active; 'I' for Inactive)
REMARK    1  A    between atoms: O_2  and  C_7
REMARK    2  A    between atoms: O_3  and  C_9
REMARK    3  A    between atoms: C_12  and  C_15
REMARK                            x       y       z     vdW  Elec       q    Type
REMARK                         _______ _______ _______ _____ _____    ______ ____
ROOT
ATOM      1  O   UNL     1     104.021 124.632 147.786  0.00  0.00    +0.000 OA
ATOM      2  O   UNL     1     104.104 123.754 145.412  0.00  0.00    +0.000 OA
ATOM      3  C   UNL     1     103.340 124.068 146.617  0.00  0.00    +0.000 A 
ATOM      4  C   UNL     1     103.310 124.354 147.391  0.00  0.00    +0.000 A 
ATOM      5  C   UNL     1     102.652 123.804 146.248  0.00  0.00    +0.000 A 
ATOM      6  C   UNL     1     101.933 123.825 146.652  0.00  0.00    +0.000 A 
ATOM      7  C   UNL     1     101.903 124.110 147.425  0.00  0.00    +0.000 A 
ATOM      8  C   UNL     1     102.592 124.375 147.795  0.00  0.00    +0.000 A 
ATOM      9  C   UNL     1     104.084 124.041 146.186  0.00  0.00    +0.000 A 
ATOM     10  C   UNL     1     104.773 124.612 147.370  0.00  0.00    +0.000 A 
ATOM     11  C   UNL     1     104.804 124.315 146.565  0.00  0.00    +0.000 A 
ATOM     12  C   UNL     1     101.244 123.561 146.283  0.00  0.00    +0.000 C 
ENDROOT
BRANCH  10  13
ATOM     13  C   UNL     1     105.460 124.877 147.743  0.00  0.00    +0.000 A 
ATOM     14  C   UNL     1     105.930 124.349 148.167  0.00  0.00    +0.000 A 
ATOM     15  C   UNL     1     105.676 125.672 147.691  0.00  0.00    +0.000 A 
ATOM     16  C   UNL     1     106.617 124.614 148.540  0.00  0.00    +0.000 A 
ATOM     17  C   UNL     1     106.363 125.937 148.063  0.00  0.00    +0.000 A 
ATOM     18  C   UNL     1     106.833 125.409 148.487  0.00  0.00    +0.000 A 
ENDBRANCH  10  13
BRANCH   5  19
ATOM     19  O   UNL     1     102.682 123.519 145.475  0.00  0.00    +0.000 OA
ATOM     20  C   UNL     1     102.930 122.745 145.329  0.00  0.00    +0.000 C 
ENDBRANCH   5  19
BRANCH   7  21
ATOM     21  O   UNL     1     101.184 124.132 147.830  0.00  0.00    +0.000 OA
ATOM     22  C   UNL     1     101.152 124.426 148.600  0.00  0.00    +0.000 C 
ENDBRANCH   7  21
TORSDOF 3
ENDMDL
MODEL 8
REMARK VINA RESULT:      -7.7     13.194     14.477
REMARK  Name = 44257640
REMARK  3 active torsions:
REMARK  status: ('A' for Active; 'I' for Inactive)
REMARK    1  A    between atoms: O_2  and  C_7
REMARK    2  A    between atoms: O_3  and  C_9
REMARK    3  A    between atoms: C_12  and  C_15
REMARK                            x       y       z     vdW  Elec       q    Type
REMARK                         _______ _______ _______ _____ _____    ______ ____
ROOT
ATOM      1  O   UNL     1     113.772 127.170 136.368  0.00  0.00    +0.000 OA
ATOM      2  O   UNL     1     112.481 128.270 138.247  0.00  0.00    +0.000 OA
ATOM      3  C   UNL     1     113.227 128.376 136.996  0.00  0.00    +0.000 A 
ATOM      4  C   UNL     1     113.648 128.020 136.382  0.00  0.00    +0.000 A 
ATOM      5  C   UNL     1     113.114 129.193 137.000  0.00  0.00    +0.000 A 
ATOM      6  C   UNL     1     113.423 129.655 136.390  0.00  0.00    +0.000 A 
ATOM      7  C   UNL     1     113.844 129.299 135.776  0.00  0.00    +0.000 A 
ATOM      8  C   UNL     1     113.957 128.481 135.772  0.00  0.00    +0.000 A 
ATOM      9  C   UNL     1     112.901 127.905 137.637  0.00  0.00    +0.000 A 
ATOM     10  C   UNL     1     113.453 126.684 137.000  0.00  0.00    +0.000 A 
ATOM     11  C   UNL     1     113.015 127.054 137.639  0.00  0.00    +0.000 A 
ATOM     12  C   UNL     1     113.310 130.472 136.393  0.00  0.00    +0.000 C 
ENDROOT
BRANCH  10  13
ATOM     13  C   UNL     1     113.568 125.866 136.993  0.00  0.00    +0.000 A 
ATOM     14  C   UNL     1     113.010 125.374 136.638  0.00  0.00    +0.000 A 
ATOM     15  C   UNL     1     114.242 125.542 137.342  0.00  0.00    +0.000 A 
ATOM     16  C   UNL     1     113.125 124.557 136.631  0.00  0.00    +0.000 A 
ATOM     17  C   UNL     1     114.357 124.725 137.336  0.00  0.00    +0.000 A 
ATOM     18  C   UNL     1     113.799 124.233 136.980  0.00  0.00    +0.000 A 
ENDBRANCH  10  13
BRANCH   5  19
ATOM     19  O   UNL     1     112.693 129.548 137.613  0.00  0.00    +0.000 OA
ATOM     20  C   UNL     1     113.073 129.732 138.323  0.00  0.00    +0.000 C 
ENDBRANCH   5  19
BRANCH   7  21
ATOM     21  O   UNL     1     114.153 129.760 135.166  0.00  0.00    +0.000 OA
ATOM     22  C   UNL     1     114.664 129.424 134.612  0.00  0.00    +0.000 C 
ENDBRANCH   7  21
TORSDOF 3
ENDMDL
MODEL 9
REMARK VINA RESULT:      -7.7     11.539     12.646
REMARK  Name = 44257640
REMARK  3 active torsions:
REMARK  status: ('A' for Active; 'I' for Inactive)
REMARK    1  A    between atoms: O_2  and  C_7
REMARK    2  A    between atoms: O_3  and  C_9
REMARK    3  A    between atoms: C_12  and  C_15
REMARK                            x       y       z     vdW  Elec       q    Type
REMARK                         _______ _______ _______ _____ _____    ______ ____
ROOT
ATOM      1  O   UNL     1     113.826 126.374 138.618  0.00  0.00    +0.000 OA
ATOM      2  O   UNL     1     111.422 125.595 138.778  0.00  0.00    +0.000 OA
ATOM      3  C   UNL     1     112.724 125.548 138.118  0.00  0.00    +0.000 A 
ATOM      4  C   UNL     1     113.507 125.800 138.063  0.00  0.00    +0.000 A 
ATOM      5  C   UNL     1     112.429 124.997 137.579  0.00  0.00    +0.000 A 
ATOM      6  C   UNL     1     112.918 124.698 136.986  0.00  0.00    +0.000 A 
ATOM      7  C   UNL     1     113.702 124.949 136.931  0.00  0.00    +0.000 A 
ATOM      8  C   UNL     1     113.997 125.501 137.470  0.00  0.00    +0.000 A 
ATOM      9  C   UNL     1     112.204 125.853 138.731  0.00  0.00    +0.000 A 
ATOM     10  C   UNL     1     113.322 126.689 139.238  0.00  0.00    +0.000 A 
ATOM     11  C   UNL     1     112.506 126.427 139.295  0.00  0.00    +0.000 A 
ATOM     12  C   UNL     1     112.623 124.147 136.448  0.00  0.00    +0.000 C 
ENDROOT
BRANCH  10  13
ATOM     13  C   UNL     1     113.620 127.240 139.775  0.00  0.00    +0.000 A 
ATOM     14  C   UNL     1     113.442 128.041 139.687  0.00  0.00    +0.000 A 
ATOM     15  C   UNL     1     114.097 126.990 140.400  0.00  0.00    +0.000 A 
ATOM     16  C   UNL     1     113.740 128.591 140.224  0.00  0.00    +0.000 A 
ATOM     17  C   UNL     1     114.396 127.540 140.937  0.00  0.00    +0.000 A 
ATOM     18  C   UNL     1     114.217 128.341 140.849  0.00  0.00    +0.000 A 
ENDBRANCH  10  13
BRANCH   5  19
ATOM     19  O   UNL     1     111.646 124.746 137.634  0.00  0.00    +0.000 OA
ATOM     20  C   UNL     1     111.042 125.199 137.299  0.00  0.00    +0.000 C 
ENDBRANCH   5  19
BRANCH   7  21
ATOM     21  O   UNL     1     114.191 124.650 136.338  0.00  0.00    +0.000 OA
ATOM     22  C   UNL     1     114.897 125.034 136.153  0.00  0.00    +0.000 C 
ENDBRANCH   7  21
TORSDOF 3
ENDMDL
MODEL 10
REMARK VINA RESULT:      -7.7      2.546      3.231
REMARK  Name = 44257640
REMARK  3 active torsions:
REMARK  status: ('A' for Active; 'I' for Inactive)
REMARK    1  A    between atoms: O_2  and  C_7
REMARK    2  A    between atoms: O_3  and  C_9
REMARK    3  A    between atoms: C_12  and  C_15
REMARK                            x       y       z     vdW  Elec       q    Type
REMARK                         _______ _______ _______ _____ _____    ______ ____
ROOT
ATOM      1  O   UNL     1     106.596 125.105 146.789  0.00  0.00    +0.000 OA
ATOM      2  O   UNL     1     107.001 127.597 146.602  0.00  0.00    +0.000 OA
ATOM      3  C   UNL     1     106.526 126.347 146.015  0.00  0.00    +0.000 A 
ATOM      4  C   UNL     1     106.393 125.535 146.073  0.00  0.00    +0.000 A 
ATOM      5  C   UNL     1     106.327 126.749 145.324  0.00  0.00    +0.000 A 
ATOM      6  C   UNL     1     105.995 126.340 144.689  0.00  0.00    +0.000 A 
ATOM      7  C   UNL     1     105.862 125.527 144.747  0.00  0.00    +0.000 A 
ATOM      8  C   UNL     1     106.061 125.125 145.439  0.00  0.00    +0.000 A 
ATOM      9  C   UNL     1     106.871 126.785 146.670  0.00  0.00    +0.000 A 
ATOM     10  C   UNL     1     106.943 125.526 147.453  0.00  0.00    +0.000 A 
ATOM     11  C   UNL     1     107.081 126.372 147.393  0.00  0.00    +0.000 A 
ATOM     12  C   UNL     1     105.795 126.741 143.997  0.00  0.00    +0.000 C 
ENDROOT
BRANCH  10  13
ATOM     13  C   UNL     1     107.141 125.120 148.144  0.00  0.00    +0.000 A 
ATOM     14  C   UNL     1     106.555 124.928 148.692  0.00  0.00    +0.000 A 
ATOM     15  C   UNL     1     107.925 124.907 148.286  0.00  0.00    +0.000 A 
ATOM     16  C   UNL     1     106.754 124.523 149.383  0.00  0.00    +0.000 A 
ATOM     17  C   UNL     1     108.124 124.502 148.976  0.00  0.00    +0.000 A 
ATOM     18  C   UNL     1     107.538 124.309 149.525  0.00  0.00    +0.000 A 
ENDBRANCH  10  13
BRANCH   5  19
ATOM     19  O   UNL     1     106.460 127.561 145.266  0.00  0.00    +0.000 OA
ATOM     20  C   UNL     1     105.905 128.093 145.569  0.00  0.00    +0.000 C 
ENDBRANCH   5  19
BRANCH   7  21
ATOM     21  O   UNL     1     105.530 125.117 144.113  0.00  0.00    +0.000 OA
ATOM     22  C   UNL     1     105.431 124.299 144.157  0.00  0.00    +0.000 C 
ENDBRANCH   7  21
TORSDOF 3
ENDMDL
