MODEL 1
REMARK VINA RESULT:      -9.2      0.000      0.000
REMARK  Name = 44257690
REMARK  9 active torsions:
REMARK  status: ('A' for Active; 'I' for Inactive)
REMARK    1  A    between atoms: O_5  and  C_21
REMARK    2  A    between atoms: O_5  and  C_27
REMARK    3  A    between atoms: C_18  and  C_20
REMARK    4  A    between atoms: C_19  and  C_21
REMARK    5  A    between atoms: C_27  and  C_29
REMARK    6  A    between atoms: C_28  and  C_29
REMARK    7  A    between atoms: C_28  and  C_33
REMARK    8  A    between atoms: C_31  and  C_35
REMARK    9  A    between atoms: C_33  and  C_36
REMARK                            x       y       z     vdW  Elec       q    Type
REMARK                         _______ _______ _______ _____ _____    ______ ____
ROOT
ATOM      1  O   UNL     1     112.904 126.034 137.883  0.00  0.00    +0.000 OA
ATOM      2  O   UNL     1     114.896 124.824 137.053  0.00  0.00    +0.000 OA
ATOM      3  O   UNL     1     113.538 124.913 136.122  0.00  0.00    +0.000 OA
ATOM      4  O   UNL     1     114.927 125.541 138.539  0.00  0.00    +0.000 OA
ATOM      5  C   UNL     1     114.232 125.228 137.330  0.00  0.00    +0.000 C 
ATOM      6  C   UNL     1     113.552 125.272 136.864  0.00  0.00    +0.000 C 
ATOM      7  C   UNL     1     114.248 125.586 138.073  0.00  0.00    +0.000 C 
ATOM      8  C   UNL     1     112.889 125.676 137.141  0.00  0.00    +0.000 C 
ATOM      9  C   UNL     1     113.583 125.990 138.349  0.00  0.00    +0.000 C 
ENDROOT
BRANCH   8  14
ATOM     10  O   UNL     1     112.586 127.073 136.306  0.00  0.00    +0.000 OA
ATOM     11  O   UNL     1     111.861 124.387 137.055  0.00  0.00    +0.000 OA
ATOM     12  O   UNL     1     110.171 125.855 135.278  0.00  0.00    +0.000 OA
ATOM     13  O   UNL     1     110.498 127.201 134.879  0.00  0.00    +0.000 OA
ATOM     14  C   UNL     1     112.209 125.720 136.675  0.00  0.00    +0.000 A 
ATOM     15  C   UNL     1     112.043 126.409 136.253  0.00  0.00    +0.000 A 
ATOM     16  C   UNL     1     111.695 125.077 136.632  0.00  0.00    +0.000 A 
ATOM     17  C   UNL     1     111.364 126.454 135.787  0.00  0.00    +0.000 A 
ATOM     18  C   UNL     1     111.016 125.121 136.166  0.00  0.00    +0.000 A 
ATOM     19  C   UNL     1     110.850 125.810 135.744  0.00  0.00    +0.000 A 
ATOM     20  C   UNL     1     111.180 127.166 135.342  0.00  0.00    +0.000 A 
ATOM     21  C   UNL     1     112.418 127.793 135.868  0.00  0.00    +0.000 A 
ATOM     22  C   UNL     1     111.711 127.840 135.383  0.00  0.00    +0.000 A 
BRANCH  21  24
ATOM     23  O   UNL     1     114.480 130.364 136.052  0.00  0.00    +0.000 OA
ATOM     24  C   UNL     1     112.935 128.436 135.914  0.00  0.00    +0.000 A 
ATOM     25  C   UNL     1     112.760 129.070 136.412  0.00  0.00    +0.000 A 
ATOM     26  C   UNL     1     113.625 128.444 135.462  0.00  0.00    +0.000 A 
ATOM     27  C   UNL     1     113.275 129.713 136.458  0.00  0.00    +0.000 A 
ATOM     28  C   UNL     1     114.140 129.087 135.508  0.00  0.00    +0.000 A 
ATOM     29  C   UNL     1     113.965 129.721 136.006  0.00  0.00    +0.000 A 
ENDBRANCH  21  24
ENDBRANCH   8  14
BRANCH   9  30
ATOM     30  C   UNL     1     113.599 126.349 139.092  0.00  0.00    +0.000 C 
BRANCH  30  31
ATOM     31  O   UNL     1     113.204 127.063 139.214  0.00  0.00    +0.000 OA
BRANCH  31  33
ATOM     32  O   UNL     1     113.171 127.113 140.642  0.00  0.00    +0.000 OA
ATOM     33  C   UNL     1     113.313 127.480 139.917  0.00  0.00    +0.000 C 
BRANCH  33  34
ATOM     34  C   UNL     1     113.565 128.265 139.895  0.00  0.00    +0.000 C 
BRANCH  34  36
ATOM     35  O   UNL     1     112.527 128.793 139.840  0.00  0.00    +0.000 OA
ATOM     36  C   UNL     1     113.176 128.836 140.347  0.00  0.00    +0.000 C 
ATOM     37  C   UNL     1     113.827 128.878 140.852  0.00  0.00    +0.000 C 
BRANCH  36  38
ATOM     38  C   UNL     1     112.788 129.407 140.798  0.00  0.00    +0.000 C 
BRANCH  38  41
ATOM     39  O   UNL     1     113.434 130.659 141.040  0.00  0.00    +0.000 OA
ATOM     40  O   UNL     1     112.430 130.556 140.028  0.00  0.00    +0.000 OA
ATOM     41  C   UNL     1     112.884 130.207 140.622  0.00  0.00    +0.000 C 
ENDBRANCH  38  41
ENDBRANCH  36  38
ENDBRANCH  34  36
ENDBRANCH  33  34
ENDBRANCH  31  33
ENDBRANCH  30  31
ENDBRANCH   9  30
TORSDOF 9
ENDMDL
MODEL 2
REMARK VINA RESULT:      -9.2      1.782      3.836
REMARK  Name = 44257690
REMARK  9 active torsions:
REMARK  status: ('A' for Active; 'I' for Inactive)
REMARK    1  A    between atoms: O_5  and  C_21
REMARK    2  A    between atoms: O_5  and  C_27
REMARK    3  A    between atoms: C_18  and  C_20
REMARK    4  A    between atoms: C_19  and  C_21
REMARK    5  A    between atoms: C_27  and  C_29
REMARK    6  A    between atoms: C_28  and  C_29
REMARK    7  A    between atoms: C_28  and  C_33
REMARK    8  A    between atoms: C_31  and  C_35
REMARK    9  A    between atoms: C_33  and  C_36
REMARK                            x       y       z     vdW  Elec       q    Type
REMARK                         _______ _______ _______ _____ _____    ______ ____
ROOT
ATOM      1  O   UNL     1     111.706 128.897 136.768  0.00  0.00    +0.000 OA
ATOM      2  O   UNL     1     113.075 129.119 134.718  0.00  0.00    +0.000 OA
ATOM      3  O   UNL     1     111.429 129.103 134.613  0.00  0.00    +0.000 OA
ATOM      4  O   UNL     1     113.809 128.986 136.190  0.00  0.00    +0.000 OA
ATOM      5  C   UNL     1     112.618 129.045 135.402  0.00  0.00    +0.000 C 
ATOM      6  C   UNL     1     111.795 129.037 135.349  0.00  0.00    +0.000 C 
ATOM      7  C   UNL     1     112.986 128.979 136.138  0.00  0.00    +0.000 C 
ATOM      8  C   UNL     1     111.339 128.963 136.032  0.00  0.00    +0.000 C 
ATOM      9  C   UNL     1     112.529 128.905 136.820  0.00  0.00    +0.000 C 
ENDROOT
BRANCH   8  14
ATOM     10  O   UNL     1     110.551 127.507 136.076  0.00  0.00    +0.000 OA
ATOM     11  O   UNL     1     110.509 130.382 135.887  0.00  0.00    +0.000 OA
ATOM     12  O   UNL     1     108.046 128.933 135.822  0.00  0.00    +0.000 OA
ATOM     13  O   UNL     1     108.025 127.493 135.914  0.00  0.00    +0.000 OA
ATOM     14  C   UNL     1     110.516 128.956 135.980  0.00  0.00    +0.000 A 
ATOM     15  C   UNL     1     110.107 128.239 136.000  0.00  0.00    +0.000 A 
ATOM     16  C   UNL     1     110.100 129.664 135.907  0.00  0.00    +0.000 A 
ATOM     17  C   UNL     1     109.284 128.232 135.947  0.00  0.00    +0.000 A 
ATOM     18  C   UNL     1     109.277 129.657 135.854  0.00  0.00    +0.000 A 
ATOM     19  C   UNL     1     108.869 128.940 135.874  0.00  0.00    +0.000 A 
ATOM     20  C   UNL     1     108.848 127.491 135.967  0.00  0.00    +0.000 A 
ATOM     21  C   UNL     1     110.132 126.758 136.097  0.00  0.00    +0.000 A 
ATOM     22  C   UNL     1     109.275 126.750 136.042  0.00  0.00    +0.000 A 
BRANCH  21  24
ATOM     23  O   UNL     1     111.807 123.928 136.386  0.00  0.00    +0.000 OA
ATOM     24  C   UNL     1     110.551 126.050 136.170  0.00  0.00    +0.000 A 
ATOM     25  C   UNL     1     110.777 125.634 135.494  0.00  0.00    +0.000 A 
ATOM     26  C   UNL     1     110.743 125.759 136.918  0.00  0.00    +0.000 A 
ATOM     27  C   UNL     1     111.195 124.927 135.566  0.00  0.00    +0.000 A 
ATOM     28  C   UNL     1     111.162 125.052 136.989  0.00  0.00    +0.000 A 
ATOM     29  C   UNL     1     111.388 124.635 136.314  0.00  0.00    +0.000 A 
ENDBRANCH  21  24
ENDBRANCH   8  14
BRANCH   9  30
ATOM     30  C   UNL     1     112.896 128.839 137.557  0.00  0.00    +0.000 C 
BRANCH  30  31
ATOM     31  O   UNL     1     112.476 128.545 138.203  0.00  0.00    +0.000 OA
BRANCH  31  33
ATOM     32  O   UNL     1     113.381 128.904 139.248  0.00  0.00    +0.000 OA
ATOM     33  C   UNL     1     112.871 128.356 138.901  0.00  0.00    +0.000 C 
BRANCH  33  34
ATOM     34  C   UNL     1     112.757 127.619 139.253  0.00  0.00    +0.000 C 
BRANCH  34  36
ATOM     35  O   UNL     1     111.825 127.820 139.925  0.00  0.00    +0.000 OA
ATOM     36  C   UNL     1     112.599 127.567 140.062  0.00  0.00    +0.000 C 
ATOM     37  C   UNL     1     113.373 127.315 140.197  0.00  0.00    +0.000 C 
BRANCH  36  38
ATOM     38  C   UNL     1     112.440 127.516 140.869  0.00  0.00    +0.000 C 
BRANCH  38  41
ATOM     39  O   UNL     1     111.228 127.181 141.549  0.00  0.00    +0.000 OA
ATOM     40  O   UNL     1     112.068 126.146 141.034  0.00  0.00    +0.000 OA
ATOM     41  C   UNL     1     111.912 126.948 141.150  0.00  0.00    +0.000 C 
ENDBRANCH  38  41
ENDBRANCH  36  38
ENDBRANCH  34  36
ENDBRANCH  33  34
ENDBRANCH  31  33
ENDBRANCH  30  31
ENDBRANCH   9  30
TORSDOF 9
ENDMDL
MODEL 3
REMARK VINA RESULT:      -9.1      2.092      4.231
REMARK  Name = 44257690
REMARK  9 active torsions:
REMARK  status: ('A' for Active; 'I' for Inactive)
REMARK    1  A    between atoms: O_5  and  C_21
REMARK    2  A    between atoms: O_5  and  C_27
REMARK    3  A    between atoms: C_18  and  C_20
REMARK    4  A    between atoms: C_19  and  C_21
REMARK    5  A    between atoms: C_27  and  C_29
REMARK    6  A    between atoms: C_28  and  C_29
REMARK    7  A    between atoms: C_28  and  C_33
REMARK    8  A    between atoms: C_31  and  C_35
REMARK    9  A    between atoms: C_33  and  C_36
REMARK                            x       y       z     vdW  Elec       q    Type
REMARK                         _______ _______ _______ _____ _____    ______ ____
ROOT
ATOM      1  O   UNL     1     110.645 126.478 137.049  0.00  0.00    +0.000 OA
ATOM      2  O   UNL     1     111.541 124.545 135.789  0.00  0.00    +0.000 OA
ATOM      3  O   UNL     1     112.217 124.976 137.231  0.00  0.00    +0.000 OA
ATOM      4  O   UNL     1     110.266 125.403 135.187  0.00  0.00    +0.000 OA
ATOM      5  C   UNL     1     111.242 125.190 136.209  0.00  0.00    +0.000 C 
ATOM      6  C   UNL     1     111.580 125.405 136.930  0.00  0.00    +0.000 C 
ATOM      7  C   UNL     1     110.605 125.619 135.908  0.00  0.00    +0.000 C 
ATOM      8  C   UNL     1     111.281 126.049 137.350  0.00  0.00    +0.000 C 
ATOM      9  C   UNL     1     110.306 126.263 136.328  0.00  0.00    +0.000 C 
ENDROOT
BRANCH   8  14
ATOM     10  O   UNL     1     112.410 127.261 137.370  0.00  0.00    +0.000 OA
ATOM     11  O   UNL     1     110.831 125.276 138.736  0.00  0.00    +0.000 OA
ATOM     12  O   UNL     1     112.634 126.910 140.234  0.00  0.00    +0.000 OA
ATOM     13  O   UNL     1     113.442 127.915 139.588  0.00  0.00    +0.000 OA
ATOM     14  C   UNL     1     111.619 126.264 138.071  0.00  0.00    +0.000 A 
ATOM     15  C   UNL     1     112.183 126.866 138.099  0.00  0.00    +0.000 A 
ATOM     16  C   UNL     1     111.395 125.878 138.764  0.00  0.00    +0.000 A 
ATOM     17  C   UNL     1     112.521 127.081 138.820  0.00  0.00    +0.000 A 
ATOM     18  C   UNL     1     111.733 126.094 139.485  0.00  0.00    +0.000 A 
ATOM     19  C   UNL     1     112.296 126.695 139.513  0.00  0.00    +0.000 A 
ATOM     20  C   UNL     1     113.110 127.707 138.862  0.00  0.00    +0.000 A 
ATOM     21  C   UNL     1     112.996 127.889 137.393  0.00  0.00    +0.000 A 
ATOM     22  C   UNL     1     113.348 128.113 138.144  0.00  0.00    +0.000 A 
BRANCH  21  24
ATOM     23  O   UNL     1     113.886 129.429 134.613  0.00  0.00    +0.000 OA
ATOM     24  C   UNL     1     113.219 128.273 136.697  0.00  0.00    +0.000 A 
ATOM     25  C   UNL     1     112.862 128.987 136.489  0.00  0.00    +0.000 A 
ATOM     26  C   UNL     1     113.799 127.945 136.211  0.00  0.00    +0.000 A 
ATOM     27  C   UNL     1     113.084 129.372 135.794  0.00  0.00    +0.000 A 
ATOM     28  C   UNL     1     114.021 128.330 135.516  0.00  0.00    +0.000 A 
ATOM     29  C   UNL     1     113.664 129.044 135.307  0.00  0.00    +0.000 A 
ENDBRANCH  21  24
ENDBRANCH   8  14
BRANCH   9  30
ATOM     30  C   UNL     1     109.669 126.692 136.026  0.00  0.00    +0.000 C 
BRANCH  30  31
ATOM     31  O   UNL     1     109.641 127.511 136.122  0.00  0.00    +0.000 OA
BRANCH  31  33
ATOM     32  O   UNL     1     108.216 127.620 136.142  0.00  0.00    +0.000 OA
ATOM     33  C   UNL     1     108.953 127.924 135.931  0.00  0.00    +0.000 C 
BRANCH  33  34
ATOM     34  C   UNL     1     109.003 128.644 135.530  0.00  0.00    +0.000 C 
BRANCH  34  36
ATOM     35  O   UNL     1     107.964 129.100 135.804  0.00  0.00    +0.000 OA
ATOM     36  C   UNL     1     108.749 129.339 135.896  0.00  0.00    +0.000 C 
ATOM     37  C   UNL     1     109.533 129.576 135.988  0.00  0.00    +0.000 C 
BRANCH  36  38
ATOM     38  C   UNL     1     108.495 130.033 136.262  0.00  0.00    +0.000 C 
BRANCH  38  41
ATOM     39  O   UNL     1     107.395 130.846 135.846  0.00  0.00    +0.000 OA
ATOM     40  O   UNL     1     108.700 131.082 135.313  0.00  0.00    +0.000 OA
ATOM     41  C   UNL     1     108.197 130.653 135.807  0.00  0.00    +0.000 C 
ENDBRANCH  38  41
ENDBRANCH  36  38
ENDBRANCH  34  36
ENDBRANCH  33  34
ENDBRANCH  31  33
ENDBRANCH  30  31
ENDBRANCH   9  30
TORSDOF 9
ENDMDL
MODEL 4
REMARK VINA RESULT:      -9.0      1.831      2.859
REMARK  Name = 44257690
REMARK  9 active torsions:
REMARK  status: ('A' for Active; 'I' for Inactive)
REMARK    1  A    between atoms: O_5  and  C_21
REMARK    2  A    between atoms: O_5  and  C_27
REMARK    3  A    between atoms: C_18  and  C_20
REMARK    4  A    between atoms: C_19  and  C_21
REMARK    5  A    between atoms: C_27  and  C_29
REMARK    6  A    between atoms: C_28  and  C_29
REMARK    7  A    between atoms: C_28  and  C_33
REMARK    8  A    between atoms: C_31  and  C_35
REMARK    9  A    between atoms: C_33  and  C_36
REMARK                            x       y       z     vdW  Elec       q    Type
REMARK                         _______ _______ _______ _____ _____    ______ ____
ROOT
ATOM      1  O   UNL     1     111.210 125.759 138.159  0.00  0.00    +0.000 OA
ATOM      2  O   UNL     1     109.410 126.216 136.523  0.00  0.00    +0.000 OA
ATOM      3  O   UNL     1     110.851 125.594 136.013  0.00  0.00    +0.000 OA
ATOM      4  O   UNL     1     109.169 126.534 138.124  0.00  0.00    +0.000 OA
ATOM      5  C   UNL     1     110.011 126.064 137.069  0.00  0.00    +0.000 C 
ATOM      6  C   UNL     1     110.731 125.753 136.814  0.00  0.00    +0.000 C 
ATOM      7  C   UNL     1     109.890 126.223 137.869  0.00  0.00    +0.000 C 
ATOM      8  C   UNL     1     111.330 125.601 137.359  0.00  0.00    +0.000 C 
ATOM      9  C   UNL     1     110.490 126.070 138.414  0.00  0.00    +0.000 C 
ENDROOT
BRANCH   8  14
ATOM     10  O   UNL     1     112.579 126.641 137.039  0.00  0.00    +0.000 OA
ATOM     11  O   UNL     1     111.507 123.970 137.178  0.00  0.00    +0.000 OA
ATOM     12  O   UNL     1     114.212 124.356 136.340  0.00  0.00    +0.000 OA
ATOM     13  O   UNL     1     114.786 125.677 136.257  0.00  0.00    +0.000 OA
ATOM     14  C   UNL     1     112.051 125.290 137.104  0.00  0.00    +0.000 A 
ATOM     15  C   UNL     1     112.683 125.793 136.940  0.00  0.00    +0.000 A 
ATOM     16  C   UNL     1     112.140 124.475 137.013  0.00  0.00    +0.000 A 
ATOM     17  C   UNL     1     113.403 125.482 136.685  0.00  0.00    +0.000 A 
ATOM     18  C   UNL     1     112.860 124.164 136.759  0.00  0.00    +0.000 A 
ATOM     19  C   UNL     1     113.491 124.667 136.595  0.00  0.00    +0.000 A 
ATOM     20  C   UNL     1     114.069 125.997 136.511  0.00  0.00    +0.000 A 
ATOM     21  C   UNL     1     113.233 127.171 136.869  0.00  0.00    +0.000 A 
ATOM     22  C   UNL     1     113.983 126.847 136.604  0.00  0.00    +0.000 A 
BRANCH  21  24
ATOM     23  O   UNL     1     112.867 130.430 137.240  0.00  0.00    +0.000 OA
ATOM     24  C   UNL     1     113.141 127.986 136.961  0.00  0.00    +0.000 A 
ATOM     25  C   UNL     1     113.262 128.333 137.700  0.00  0.00    +0.000 A 
ATOM     26  C   UNL     1     112.929 128.453 136.315  0.00  0.00    +0.000 A 
ATOM     27  C   UNL     1     113.171 129.148 137.793  0.00  0.00    +0.000 A 
ATOM     28  C   UNL     1     112.838 129.268 136.408  0.00  0.00    +0.000 A 
ATOM     29  C   UNL     1     112.958 129.615 137.147  0.00  0.00    +0.000 A 
ENDBRANCH  21  24
ENDBRANCH   8  14
BRANCH   9  30
ATOM     30  C   UNL     1     110.369 126.229 139.215  0.00  0.00    +0.000 C 
BRANCH  30  31
ATOM     31  O   UNL     1     110.988 126.521 139.676  0.00  0.00    +0.000 OA
BRANCH  31  33
ATOM     32  O   UNL     1     110.694 126.003 140.975  0.00  0.00    +0.000 OA
ATOM     33  C   UNL     1     110.879 126.640 140.485  0.00  0.00    +0.000 C 
BRANCH  33  34
ATOM     34  C   UNL     1     110.957 127.397 140.804  0.00  0.00    +0.000 C 
BRANCH  34  36
ATOM     35  O   UNL     1     110.678 127.422 141.937  0.00  0.00    +0.000 OA
ATOM     36  C   UNL     1     111.377 127.509 141.506  0.00  0.00    +0.000 C 
ATOM     37  C   UNL     1     112.074 127.595 141.074  0.00  0.00    +0.000 C 
BRANCH  36  38
ATOM     38  C   UNL     1     111.796 127.620 142.207  0.00  0.00    +0.000 C 
BRANCH  38  41
ATOM     39  O   UNL     1     111.284 128.360 143.318  0.00  0.00    +0.000 OA
ATOM     40  O   UNL     1     112.098 129.010 142.339  0.00  0.00    +0.000 OA
ATOM     41  C   UNL     1     111.726 128.330 142.621  0.00  0.00    +0.000 C 
ENDBRANCH  38  41
ENDBRANCH  36  38
ENDBRANCH  34  36
ENDBRANCH  33  34
ENDBRANCH  31  33
ENDBRANCH  30  31
ENDBRANCH   9  30
TORSDOF 9
ENDMDL
MODEL 5
REMARK VINA RESULT:      -9.0      1.747      3.524
REMARK  Name = 44257690
REMARK  9 active torsions:
REMARK  status: ('A' for Active; 'I' for Inactive)
REMARK    1  A    between atoms: O_5  and  C_21
REMARK    2  A    between atoms: O_5  and  C_27
REMARK    3  A    between atoms: C_18  and  C_20
REMARK    4  A    between atoms: C_19  and  C_21
REMARK    5  A    between atoms: C_27  and  C_29
REMARK    6  A    between atoms: C_28  and  C_29
REMARK    7  A    between atoms: C_28  and  C_33
REMARK    8  A    between atoms: C_31  and  C_35
REMARK    9  A    between atoms: C_33  and  C_36
REMARK                            x       y       z     vdW  Elec       q    Type
REMARK                         _______ _______ _______ _____ _____    ______ ____
ROOT
ATOM      1  O   UNL     1     112.070 128.606 137.293  0.00  0.00    +0.000 OA
ATOM      2  O   UNL     1     111.923 128.460 134.827  0.00  0.00    +0.000 OA
ATOM      3  O   UNL     1     110.904 127.568 135.769  0.00  0.00    +0.000 OA
ATOM      4  O   UNL     1     113.041 129.450 135.530  0.00  0.00    +0.000 OA
ATOM      5  C   UNL     1     111.972 128.509 135.650  0.00  0.00    +0.000 C 
ATOM      6  C   UNL     1     111.463 128.063 136.121  0.00  0.00    +0.000 C 
ATOM      7  C   UNL     1     112.531 129.004 136.000  0.00  0.00    +0.000 C 
ATOM      8  C   UNL     1     111.512 128.112 136.942  0.00  0.00    +0.000 C 
ATOM      9  C   UNL     1     112.580 129.052 136.822  0.00  0.00    +0.000 C 
ENDROOT
BRANCH   8  14
ATOM     10  O   UNL     1     112.036 126.652 137.523  0.00  0.00    +0.000 OA
ATOM     11  O   UNL     1     110.001 128.678 137.289  0.00  0.00    +0.000 OA
ATOM     12  O   UNL     1     109.473 126.327 138.826  0.00  0.00    +0.000 OA
ATOM     13  O   UNL     1     110.465 125.290 138.968  0.00  0.00    +0.000 OA
ATOM     14  C   UNL     1     111.002 127.665 137.413  0.00  0.00    +0.000 A 
ATOM     15  C   UNL     1     111.247 126.936 137.711  0.00  0.00    +0.000 A 
ATOM     16  C   UNL     1     110.247 127.948 137.587  0.00  0.00    +0.000 A 
ATOM     17  C   UNL     1     110.737 126.490 138.182  0.00  0.00    +0.000 A 
ATOM     18  C   UNL     1     109.737 127.502 138.058  0.00  0.00    +0.000 A 
ATOM     19  C   UNL     1     109.983 126.773 138.355  0.00  0.00    +0.000 A 
ATOM     20  C   UNL     1     110.982 125.729 138.498  0.00  0.00    +0.000 A 
ATOM     21  C   UNL     1     112.298 125.893 137.830  0.00  0.00    +0.000 A 
ATOM     22  C   UNL     1     111.767 125.429 138.321  0.00  0.00    +0.000 A 
BRANCH  21  24
ATOM     23  O   UNL     1     115.323 124.775 137.131  0.00  0.00    +0.000 OA
ATOM     24  C   UNL     1     113.054 125.613 137.655  0.00  0.00    +0.000 A 
ATOM     25  C   UNL     1     113.692 125.820 138.136  0.00  0.00    +0.000 A 
ATOM     26  C   UNL     1     113.173 125.127 136.999  0.00  0.00    +0.000 A 
ATOM     27  C   UNL     1     114.448 125.540 137.962  0.00  0.00    +0.000 A 
ATOM     28  C   UNL     1     113.929 124.848 136.824  0.00  0.00    +0.000 A 
ATOM     29  C   UNL     1     114.567 125.054 137.306  0.00  0.00    +0.000 A 
ENDBRANCH  21  24
ENDBRANCH   8  14
BRANCH   9  30
ATOM     30  C   UNL     1     113.139 129.548 137.174  0.00  0.00    +0.000 C 
BRANCH  30  31
ATOM     31  O   UNL     1     113.295 129.487 137.982  0.00  0.00    +0.000 OA
BRANCH  31  33
ATOM     32  O   UNL     1     114.409 130.381 137.960  0.00  0.00    +0.000 OA
ATOM     33  C   UNL     1     113.763 130.053 138.355  0.00  0.00    +0.000 C 
BRANCH  33  34
ATOM     34  C   UNL     1     113.586 130.293 139.124  0.00  0.00    +0.000 C 
BRANCH  34  36
ATOM     35  O   UNL     1     114.357 131.134 139.366  0.00  0.00    +0.000 OA
ATOM     36  C   UNL     1     114.192 130.389 139.677  0.00  0.00    +0.000 C 
ATOM     37  C   UNL     1     114.025 129.642 139.988  0.00  0.00    +0.000 C 
BRANCH  36  38
ATOM     38  C   UNL     1     114.796 130.484 140.229  0.00  0.00    +0.000 C 
BRANCH  38  41
ATOM     39  O   UNL     1     115.233 131.642 140.945  0.00  0.00    +0.000 OA
ATOM     40  O   UNL     1     114.084 130.919 141.389  0.00  0.00    +0.000 OA
ATOM     41  C   UNL     1     114.704 131.014 140.854  0.00  0.00    +0.000 C 
ENDBRANCH  38  41
ENDBRANCH  36  38
ENDBRANCH  34  36
ENDBRANCH  33  34
ENDBRANCH  31  33
ENDBRANCH  30  31
ENDBRANCH   9  30
TORSDOF 9
ENDMDL
MODEL 6
REMARK VINA RESULT:      -9.0      1.043      3.261
REMARK  Name = 44257690
REMARK  9 active torsions:
REMARK  status: ('A' for Active; 'I' for Inactive)
REMARK    1  A    between atoms: O_5  and  C_21
REMARK    2  A    between atoms: O_5  and  C_27
REMARK    3  A    between atoms: C_18  and  C_20
REMARK    4  A    between atoms: C_19  and  C_21
REMARK    5  A    between atoms: C_27  and  C_29
REMARK    6  A    between atoms: C_28  and  C_29
REMARK    7  A    between atoms: C_28  and  C_33
REMARK    8  A    between atoms: C_31  and  C_35
REMARK    9  A    between atoms: C_33  and  C_36
REMARK                            x       y       z     vdW  Elec       q    Type
REMARK                         _______ _______ _______ _____ _____    ______ ____
ROOT
ATOM      1  O   UNL     1     112.198 128.645 136.758  0.00  0.00    +0.000 OA
ATOM      2  O   UNL     1     113.787 129.596 135.116  0.00  0.00    +0.000 OA
ATOM      3  O   UNL     1     112.596 128.571 134.614  0.00  0.00    +0.000 OA
ATOM      4  O   UNL     1     113.920 129.987 136.714  0.00  0.00    +0.000 OA
ATOM      5  C   UNL     1     113.257 129.279 135.664  0.00  0.00    +0.000 C 
ATOM      6  C   UNL     1     112.661 128.766 135.413  0.00  0.00    +0.000 C 
ATOM      7  C   UNL     1     113.324 129.474 136.463  0.00  0.00    +0.000 C 
ATOM      8  C   UNL     1     112.132 128.449 135.960  0.00  0.00    +0.000 C 
ATOM      9  C   UNL     1     112.794 129.157 137.010  0.00  0.00    +0.000 C 
ENDROOT
BRANCH   8  14
ATOM     10  O   UNL     1     112.341 126.820 136.171  0.00  0.00    +0.000 OA
ATOM     11  O   UNL     1     110.764 129.053 135.263  0.00  0.00    +0.000 OA
ATOM     12  O   UNL     1     109.749 126.400 134.955  0.00  0.00    +0.000 OA
ATOM     13  O   UNL     1     110.508 125.255 135.397  0.00  0.00    +0.000 OA
ATOM     14  C   UNL     1     111.537 127.937 135.709  0.00  0.00    +0.000 A 
ATOM     15  C   UNL     1     111.624 127.123 135.806  0.00  0.00    +0.000 A 
ATOM     16  C   UNL     1     110.853 128.238 135.360  0.00  0.00    +0.000 A 
ATOM     17  C   UNL     1     111.029 126.610 135.555  0.00  0.00    +0.000 A 
ATOM     18  C   UNL     1     110.257 127.726 135.109  0.00  0.00    +0.000 A 
ATOM     19  C   UNL     1     110.345 126.912 135.206  0.00  0.00    +0.000 A 
ATOM     20  C   UNL     1     111.109 125.760 135.651  0.00  0.00    +0.000 A 
ATOM     21  C   UNL     1     112.439 125.973 136.275  0.00  0.00    +0.000 A 
ATOM     22  C   UNL     1     111.819 125.439 136.014  0.00  0.00    +0.000 A 
BRANCH  21  24
ATOM     23  O   UNL     1     115.182 124.779 137.670  0.00  0.00    +0.000 OA
ATOM     24  C   UNL     1     113.125 125.674 136.625  0.00  0.00    +0.000 A 
ATOM     25  C   UNL     1     113.814 125.596 136.178  0.00  0.00    +0.000 A 
ATOM     26  C   UNL     1     113.121 125.454 137.420  0.00  0.00    +0.000 A 
ATOM     27  C   UNL     1     114.500 125.297 136.526  0.00  0.00    +0.000 A 
ATOM     28  C   UNL     1     113.807 125.156 137.768  0.00  0.00    +0.000 A 
ATOM     29  C   UNL     1     114.496 125.077 137.321  0.00  0.00    +0.000 A 
ENDBRANCH  21  24
ENDBRANCH   8  14
BRANCH   9  30
ATOM     30  C   UNL     1     112.861 129.353 137.809  0.00  0.00    +0.000 C 
BRANCH  30  31
ATOM     31  O   UNL     1     112.604 128.822 138.386  0.00  0.00    +0.000 OA
BRANCH  31  33
ATOM     32  O   UNL     1     112.558 129.659 139.544  0.00  0.00    +0.000 OA
ATOM     33  C   UNL     1     112.787 128.955 139.179  0.00  0.00    +0.000 C 
BRANCH  33  34
ATOM     34  C   UNL     1     113.201 128.385 139.608  0.00  0.00    +0.000 C 
BRANCH  34  36
ATOM     35  O   UNL     1     112.358 127.616 139.853  0.00  0.00    +0.000 OA
ATOM     36  C   UNL     1     112.877 128.074 140.301  0.00  0.00    +0.000 C 
ATOM     37  C   UNL     1     113.396 128.534 140.749  0.00  0.00    +0.000 C 
BRANCH  36  38
ATOM     38  C   UNL     1     112.554 127.764 140.993  0.00  0.00    +0.000 C 
BRANCH  38  41
ATOM     39  O   UNL     1     113.486 126.766 141.414  0.00  0.00    +0.000 OA
ATOM     40  O   UNL     1     112.111 126.426 141.228  0.00  0.00    +0.000 OA
ATOM     41  C   UNL     1     112.716 126.986 141.212  0.00  0.00    +0.000 C 
ENDBRANCH  38  41
ENDBRANCH  36  38
ENDBRANCH  34  36
ENDBRANCH  33  34
ENDBRANCH  31  33
ENDBRANCH  30  31
ENDBRANCH   9  30
TORSDOF 9
ENDMDL
MODEL 7
REMARK VINA RESULT:      -9.0      1.732      3.718
REMARK  Name = 44257690
REMARK  9 active torsions:
REMARK  status: ('A' for Active; 'I' for Inactive)
REMARK    1  A    between atoms: O_5  and  C_21
REMARK    2  A    between atoms: O_5  and  C_27
REMARK    3  A    between atoms: C_18  and  C_20
REMARK    4  A    between atoms: C_19  and  C_21
REMARK    5  A    between atoms: C_27  and  C_29
REMARK    6  A    between atoms: C_28  and  C_29
REMARK    7  A    between atoms: C_28  and  C_33
REMARK    8  A    between atoms: C_31  and  C_35
REMARK    9  A    between atoms: C_33  and  C_36
REMARK                            x       y       z     vdW  Elec       q    Type
REMARK                         _______ _______ _______ _____ _____    ______ ____
ROOT
ATOM      1  O   UNL     1     111.075 127.919 137.781  0.00  0.00    +0.000 OA
ATOM      2  O   UNL     1     110.557 126.892 139.973  0.00  0.00    +0.000 OA
ATOM      3  O   UNL     1     109.882 126.283 138.596  0.00  0.00    +0.000 OA
ATOM      4  O   UNL     1     111.578 128.186 139.888  0.00  0.00    +0.000 OA
ATOM      5  C   UNL     1     110.730 127.235 139.241  0.00  0.00    +0.000 C 
ATOM      6  C   UNL     1     110.392 126.930 138.553  0.00  0.00    +0.000 C 
ATOM      7  C   UNL     1     111.240 127.881 139.200  0.00  0.00    +0.000 C 
ATOM      8  C   UNL     1     110.565 127.272 137.823  0.00  0.00    +0.000 C 
ATOM      9  C   UNL     1     111.413 128.223 138.469  0.00  0.00    +0.000 C 
ENDROOT
BRANCH   8  14
ATOM     10  O   UNL     1     111.439 126.198 136.915  0.00  0.00    +0.000 OA
ATOM     11  O   UNL     1     109.047 127.736 137.374  0.00  0.00    +0.000 OA
ATOM     12  O   UNL     1     109.214 126.055 135.069  0.00  0.00    +0.000 OA
ATOM     13  O   UNL     1     110.394 125.268 134.804  0.00  0.00    +0.000 OA
ATOM     14  C   UNL     1     110.227 126.968 137.135  0.00  0.00    +0.000 A 
ATOM     15  C   UNL     1     110.648 126.432 136.671  0.00  0.00    +0.000 A 
ATOM     16  C   UNL     1     109.468 127.199 136.910  0.00  0.00    +0.000 A 
ATOM     17  C   UNL     1     110.311 126.127 135.982  0.00  0.00    +0.000 A 
ATOM     18  C   UNL     1     109.131 126.895 136.221  0.00  0.00    +0.000 A 
ATOM     19  C   UNL     1     109.552 126.359 135.758  0.00  0.00    +0.000 A 
ATOM     20  C   UNL     1     110.740 125.568 135.490  0.00  0.00    +0.000 A 
ATOM     21  C   UNL     1     111.882 125.639 136.436  0.00  0.00    +0.000 A 
ATOM     22  C   UNL     1     111.531 125.322 135.719  0.00  0.00    +0.000 A 
BRANCH  21  24
ATOM     23  O   UNL     1     114.920 124.722 137.345  0.00  0.00    +0.000 OA
ATOM     24  C   UNL     1     112.642 125.410 136.664  0.00  0.00    +0.000 A 
ATOM     25  C   UNL     1     113.293 125.870 136.451  0.00  0.00    +0.000 A 
ATOM     26  C   UNL     1     112.750 124.720 137.103  0.00  0.00    +0.000 A 
ATOM     27  C   UNL     1     114.052 125.641 136.678  0.00  0.00    +0.000 A 
ATOM     28  C   UNL     1     113.510 124.491 137.330  0.00  0.00    +0.000 A 
ATOM     29  C   UNL     1     114.160 124.951 137.118  0.00  0.00    +0.000 A 
ENDBRANCH  21  24
ENDBRANCH   8  14
BRANCH   9  30
ATOM     30  C   UNL     1     111.924 128.870 138.427  0.00  0.00    +0.000 C 
BRANCH  30  31
ATOM     31  O   UNL     1     112.323 129.036 137.725  0.00  0.00    +0.000 OA
BRANCH  31  33
ATOM     32  O   UNL     1     112.569 130.428 137.937  0.00  0.00    +0.000 OA
ATOM     33  C   UNL     1     112.827 129.687 137.681  0.00  0.00    +0.000 C 
BRANCH  33  34
ATOM     34  C   UNL     1     113.590 129.598 137.381  0.00  0.00    +0.000 C 
BRANCH  34  36
ATOM     35  O   UNL     1     113.507 129.541 136.219  0.00  0.00    +0.000 OA
ATOM     36  C   UNL     1     113.846 130.070 136.754  0.00  0.00    +0.000 C 
ATOM     37  C   UNL     1     114.184 130.598 137.290  0.00  0.00    +0.000 C 
BRANCH  36  38
ATOM     38  C   UNL     1     114.101 130.542 136.128  0.00  0.00    +0.000 C 
BRANCH  38  41
ATOM     39  O   UNL     1     115.521 130.613 135.981  0.00  0.00    +0.000 OA
ATOM     40  O   UNL     1     114.741 129.877 135.037  0.00  0.00    +0.000 OA
ATOM     41  C   UNL     1     114.787 130.344 135.715  0.00  0.00    +0.000 C 
ENDBRANCH  38  41
ENDBRANCH  36  38
ENDBRANCH  34  36
ENDBRANCH  33  34
ENDBRANCH  31  33
ENDBRANCH  30  31
ENDBRANCH   9  30
TORSDOF 9
ENDMDL
MODEL 8
REMARK VINA RESULT:      -9.0      2.130      4.205
REMARK  Name = 44257690
REMARK  9 active torsions:
REMARK  status: ('A' for Active; 'I' for Inactive)
REMARK    1  A    between atoms: O_5  and  C_21
REMARK    2  A    between atoms: O_5  and  C_27
REMARK    3  A    between atoms: C_18  and  C_20
REMARK    4  A    between atoms: C_19  and  C_21
REMARK    5  A    between atoms: C_27  and  C_29
REMARK    6  A    between atoms: C_28  and  C_29
REMARK    7  A    between atoms: C_28  and  C_33
REMARK    8  A    between atoms: C_31  and  C_35
REMARK    9  A    between atoms: C_33  and  C_36
REMARK                            x       y       z     vdW  Elec       q    Type
REMARK                         _______ _______ _______ _____ _____    ______ ____
ROOT
ATOM      1  O   UNL     1     110.622 126.196 137.092  0.00  0.00    +0.000 OA
ATOM      2  O   UNL     1     110.091 125.542 139.419  0.00  0.00    +0.000 OA
ATOM      3  O   UNL     1     111.489 125.021 138.714  0.00  0.00    +0.000 OA
ATOM      4  O   UNL     1     109.047 126.499 138.573  0.00  0.00    +0.000 OA
ATOM      5  C   UNL     1     110.268 125.760 138.643  0.00  0.00    +0.000 C 
ATOM      6  C   UNL     1     110.967 125.500 138.290  0.00  0.00    +0.000 C 
ATOM      7  C   UNL     1     109.746 126.239 138.220  0.00  0.00    +0.000 C 
ATOM      8  C   UNL     1     111.144 125.718 137.515  0.00  0.00    +0.000 C 
ATOM      9  C   UNL     1     109.923 126.456 137.444  0.00  0.00    +0.000 C 
ENDROOT
BRANCH   8  14
ATOM     10  O   UNL     1     112.441 126.746 137.462  0.00  0.00    +0.000 OA
ATOM     11  O   UNL     1     111.230 124.198 136.879  0.00  0.00    +0.000 OA
ATOM     12  O   UNL     1     113.939 124.676 136.104  0.00  0.00    +0.000 OA
ATOM     13  O   UNL     1     114.582 125.938 136.378  0.00  0.00    +0.000 OA
ATOM     14  C   UNL     1     111.843 125.457 137.162  0.00  0.00    +0.000 A 
ATOM     15  C   UNL     1     112.499 125.956 137.127  0.00  0.00    +0.000 A 
ATOM     16  C   UNL     1     111.887 124.698 136.844  0.00  0.00    +0.000 A 
ATOM     17  C   UNL     1     113.197 125.696 136.775  0.00  0.00    +0.000 A 
ATOM     18  C   UNL     1     112.585 124.437 136.491  0.00  0.00    +0.000 A 
ATOM     19  C   UNL     1     113.240 124.936 136.457  0.00  0.00    +0.000 A 
ATOM     20  C   UNL     1     113.887 126.207 136.732  0.00  0.00    +0.000 A 
ATOM     21  C   UNL     1     113.120 127.271 137.429  0.00  0.00    +0.000 A 
ATOM     22  C   UNL     1     113.848 127.000 137.062  0.00  0.00    +0.000 A 
BRANCH  21  24
ATOM     23  O   UNL     1     112.933 130.308 138.707  0.00  0.00    +0.000 OA
ATOM     24  C   UNL     1     113.074 128.031 137.748  0.00  0.00    +0.000 A 
ATOM     25  C   UNL     1     113.133 128.139 138.564  0.00  0.00    +0.000 A 
ATOM     26  C   UNL     1     112.967 128.681 137.252  0.00  0.00    +0.000 A 
ATOM     27  C   UNL     1     113.087 128.898 138.883  0.00  0.00    +0.000 A 
ATOM     28  C   UNL     1     112.921 129.440 137.572  0.00  0.00    +0.000 A 
ATOM     29  C   UNL     1     112.980 129.549 138.387  0.00  0.00    +0.000 A 
ENDBRANCH  21  24
ENDBRANCH   8  14
BRANCH   9  30
ATOM     30  C   UNL     1     109.401 126.935 137.021  0.00  0.00    +0.000 C 
BRANCH  30  31
ATOM     31  O   UNL     1     109.692 127.525 136.524  0.00  0.00    +0.000 OA
BRANCH  31  33
ATOM     32  O   UNL     1     108.513 127.764 135.753  0.00  0.00    +0.000 OA
ATOM     33  C   UNL     1     109.172 128.050 136.158  0.00  0.00    +0.000 C 
BRANCH  33  34
ATOM     34  C   UNL     1     109.311 128.863 136.197  0.00  0.00    +0.000 C 
BRANCH  34  36
ATOM     35  O   UNL     1     108.483 129.483 135.659  0.00  0.00    +0.000 OA
ATOM     36  C   UNL     1     109.278 129.321 135.511  0.00  0.00    +0.000 C 
ATOM     37  C   UNL     1     110.073 129.158 135.365  0.00  0.00    +0.000 C 
BRANCH  36  38
ATOM     38  C   UNL     1     109.245 129.778 134.826  0.00  0.00    +0.000 C 
BRANCH  38  41
ATOM     39  O   UNL     1     108.510 130.986 134.613  0.00  0.00    +0.000 OA
ATOM     40  O   UNL     1     109.812 131.035 135.202  0.00  0.00    +0.000 OA
ATOM     41  C   UNL     1     109.189 130.599 134.881  0.00  0.00    +0.000 C 
ENDBRANCH  38  41
ENDBRANCH  36  38
ENDBRANCH  34  36
ENDBRANCH  33  34
ENDBRANCH  31  33
ENDBRANCH  30  31
ENDBRANCH   9  30
TORSDOF 9
ENDMDL
MODEL 9
REMARK VINA RESULT:      -8.8      1.941      3.966
REMARK  Name = 44257690
REMARK  9 active torsions:
REMARK  status: ('A' for Active; 'I' for Inactive)
REMARK    1  A    between atoms: O_5  and  C_21
REMARK    2  A    between atoms: O_5  and  C_27
REMARK    3  A    between atoms: C_18  and  C_20
REMARK    4  A    between atoms: C_19  and  C_21
REMARK    5  A    between atoms: C_27  and  C_29
REMARK    6  A    between atoms: C_28  and  C_29
REMARK    7  A    between atoms: C_28  and  C_33
REMARK    8  A    between atoms: C_31  and  C_35
REMARK    9  A    between atoms: C_33  and  C_36
REMARK                            x       y       z     vdW  Elec       q    Type
REMARK                         _______ _______ _______ _____ _____    ______ ____
ROOT
ATOM      1  O   UNL     1     110.982 126.652 137.556  0.00  0.00    +0.000 OA
ATOM      2  O   UNL     1     109.573 125.614 139.306  0.00  0.00    +0.000 OA
ATOM      3  O   UNL     1     110.923 124.835 138.763  0.00  0.00    +0.000 OA
ATOM      4  O   UNL     1     109.162 127.085 138.682  0.00  0.00    +0.000 OA
ATOM      5  C   UNL     1     110.043 125.960 138.722  0.00  0.00    +0.000 C 
ATOM      6  C   UNL     1     110.718 125.571 138.451  0.00  0.00    +0.000 C 
ATOM      7  C   UNL     1     109.837 126.696 138.410  0.00  0.00    +0.000 C 
ATOM      8  C   UNL     1     111.187 125.917 137.868  0.00  0.00    +0.000 C 
ATOM      9  C   UNL     1     110.307 127.042 137.827  0.00  0.00    +0.000 C 
ENDROOT
BRANCH   8  14
ATOM     10  O   UNL     1     112.653 126.307 138.533  0.00  0.00    +0.000 OA
ATOM     11  O   UNL     1     111.061 124.774 136.685  0.00  0.00    +0.000 OA
ATOM     12  O   UNL     1     113.887 124.360 136.783  0.00  0.00    +0.000 OA
ATOM     13  O   UNL     1     114.719 125.107 137.694  0.00  0.00    +0.000 OA
ATOM     14  C   UNL     1     111.862 125.528 137.597  0.00  0.00    +0.000 A 
ATOM     15  C   UNL     1     112.600 125.710 137.917  0.00  0.00    +0.000 A 
ATOM     16  C   UNL     1     111.799 124.957 137.005  0.00  0.00    +0.000 A 
ATOM     17  C   UNL     1     113.275 125.321 137.645  0.00  0.00    +0.000 A 
ATOM     18  C   UNL     1     112.474 124.567 136.734  0.00  0.00    +0.000 A 
ATOM     19  C   UNL     1     113.212 124.750 137.054  0.00  0.00    +0.000 A 
ATOM     20  C   UNL     1     114.050 125.502 137.971  0.00  0.00    +0.000 A 
ATOM     21  C   UNL     1     113.419 126.501 138.870  0.00  0.00    +0.000 A 
ATOM     22  C   UNL     1     114.122 126.096 138.587  0.00  0.00    +0.000 A 
BRANCH  21  24
ATOM     23  O   UNL     1     113.657 128.792 141.234  0.00  0.00    +0.000 OA
ATOM     24  C   UNL     1     113.478 127.074 139.462  0.00  0.00    +0.000 A 
ATOM     25  C   UNL     1     113.529 127.872 139.259  0.00  0.00    +0.000 A 
ATOM     26  C   UNL     1     113.487 126.848 140.255  0.00  0.00    +0.000 A 
ATOM     27  C   UNL     1     113.589 128.445 139.850  0.00  0.00    +0.000 A 
ATOM     28  C   UNL     1     113.546 127.421 140.846  0.00  0.00    +0.000 A 
ATOM     29  C   UNL     1     113.597 128.219 140.643  0.00  0.00    +0.000 A 
ENDBRANCH  21  24
ENDBRANCH   8  14
BRANCH   9  30
ATOM     30  C   UNL     1     110.101 127.778 137.515  0.00  0.00    +0.000 C 
BRANCH  30  31
ATOM     31  O   UNL     1     110.690 128.319 137.312  0.00  0.00    +0.000 OA
BRANCH  31  33
ATOM     32  O   UNL     1     109.993 129.194 136.423  0.00  0.00    +0.000 OA
ATOM     33  C   UNL     1     110.485 129.082 137.076  0.00  0.00    +0.000 C 
BRANCH  33  34
ATOM     34  C   UNL     1     110.772 129.733 137.493  0.00  0.00    +0.000 C 
BRANCH  34  36
ATOM     35  O   UNL     1     111.814 129.917 137.002  0.00  0.00    +0.000 OA
ATOM     36  C   UNL     1     111.124 130.361 137.087  0.00  0.00    +0.000 C 
ATOM     37  C   UNL     1     110.434 130.804 137.174  0.00  0.00    +0.000 C 
BRANCH  36  38
ATOM     38  C   UNL     1     111.476 130.987 136.683  0.00  0.00    +0.000 C 
BRANCH  38  41
ATOM     39  O   UNL     1     112.766 131.428 137.114  0.00  0.00    +0.000 OA
ATOM     40  O   UNL     1     111.600 132.171 137.474  0.00  0.00    +0.000 OA
ATOM     41  C   UNL     1     111.947 131.528 137.090  0.00  0.00    +0.000 C 
ENDBRANCH  38  41
ENDBRANCH  36  38
ENDBRANCH  34  36
ENDBRANCH  33  34
ENDBRANCH  31  33
ENDBRANCH  30  31
ENDBRANCH   9  30
TORSDOF 9
ENDMDL
MODEL 10
REMARK VINA RESULT:      -8.8      1.654      2.909
REMARK  Name = 44257690
REMARK  9 active torsions:
REMARK  status: ('A' for Active; 'I' for Inactive)
REMARK    1  A    between atoms: O_5  and  C_21
REMARK    2  A    between atoms: O_5  and  C_27
REMARK    3  A    between atoms: C_18  and  C_20
REMARK    4  A    between atoms: C_19  and  C_21
REMARK    5  A    between atoms: C_27  and  C_29
REMARK    6  A    between atoms: C_28  and  C_29
REMARK    7  A    between atoms: C_28  and  C_33
REMARK    8  A    between atoms: C_31  and  C_35
REMARK    9  A    between atoms: C_33  and  C_36
REMARK                            x       y       z     vdW  Elec       q    Type
REMARK                         _______ _______ _______ _____ _____    ______ ____
ROOT
ATOM      1  O   UNL     1     110.535 126.833 136.894  0.00  0.00    +0.000 OA
ATOM      2  O   UNL     1     110.791 125.150 135.098  0.00  0.00    +0.000 OA
ATOM      3  O   UNL     1     109.923 126.526 134.822  0.00  0.00    +0.000 OA
ATOM      4  O   UNL     1     111.489 124.896 136.572  0.00  0.00    +0.000 OA
ATOM      5  C   UNL     1     110.706 125.711 135.697  0.00  0.00    +0.000 C 
ATOM      6  C   UNL     1     110.272 126.399 135.559  0.00  0.00    +0.000 C 
ATOM      7  C   UNL     1     111.055 125.584 136.434  0.00  0.00    +0.000 C 
ATOM      8  C   UNL     1     110.187 126.960 136.158  0.00  0.00    +0.000 C 
ATOM      9  C   UNL     1     110.969 126.145 137.032  0.00  0.00    +0.000 C 
ENDROOT
BRANCH   8  14
ATOM     10  O   UNL     1     111.000 128.354 135.784  0.00  0.00    +0.000 OA
ATOM     11  O   UNL     1     108.540 126.930 136.257  0.00  0.00    +0.000 OA
ATOM     12  O   UNL     1     108.451 129.712 135.607  0.00  0.00    +0.000 OA
ATOM     13  O   UNL     1     109.659 130.460 135.363  0.00  0.00    +0.000 OA
ATOM     14  C   UNL     1     109.753 127.648 136.020  0.00  0.00    +0.000 A 
ATOM     15  C   UNL     1     110.142 128.351 135.833  0.00  0.00    +0.000 A 
ATOM     16  C   UNL     1     108.930 127.633 136.070  0.00  0.00    +0.000 A 
ATOM     17  C   UNL     1     109.708 129.039 135.695  0.00  0.00    +0.000 A 
ATOM     18  C   UNL     1     108.496 128.321 135.932  0.00  0.00    +0.000 A 
ATOM     19  C   UNL     1     108.885 129.024 135.745  0.00  0.00    +0.000 A 
ATOM     20  C   UNL     1     110.102 129.777 135.499  0.00  0.00    +0.000 A 
ATOM     21  C   UNL     1     111.411 129.082 135.590  0.00  0.00    +0.000 A 
ATOM     22  C   UNL     1     110.959 129.799 135.446  0.00  0.00    +0.000 A 
BRANCH  21  24
ATOM     23  O   UNL     1     114.705 129.126 135.393  0.00  0.00    +0.000 OA
ATOM     24  C   UNL     1     112.235 129.093 135.541  0.00  0.00    +0.000 A 
ATOM     25  C   UNL     1     112.607 128.949 134.819  0.00  0.00    +0.000 A 
ATOM     26  C   UNL     1     112.686 129.248 136.214  0.00  0.00    +0.000 A 
ATOM     27  C   UNL     1     113.430 128.960 134.769  0.00  0.00    +0.000 A 
ATOM     28  C   UNL     1     113.510 129.259 136.165  0.00  0.00    +0.000 A 
ATOM     29  C   UNL     1     113.882 129.115 135.442  0.00  0.00    +0.000 A 
ENDBRANCH  21  24
ENDBRANCH   8  14
BRANCH   9  30
ATOM     30  C   UNL     1     111.318 126.017 137.770  0.00  0.00    +0.000 C 
BRANCH  30  31
ATOM     31  O   UNL     1     111.624 126.653 138.197  0.00  0.00    +0.000 OA
BRANCH  31  33
ATOM     32  O   UNL     1     111.765 125.999 139.459  0.00  0.00    +0.000 OA
ATOM     33  C   UNL     1     112.055 126.517 138.886  0.00  0.00    +0.000 C 
BRANCH  33  34
ATOM     34  C   UNL     1     112.776 126.900 139.004  0.00  0.00    +0.000 C 
BRANCH  34  36
ATOM     35  O   UNL     1     113.459 126.370 139.787  0.00  0.00    +0.000 OA
ATOM     36  C   UNL     1     113.031 127.074 139.770  0.00  0.00    +0.000 C 
ATOM     37  C   UNL     1     112.602 127.779 139.752  0.00  0.00    +0.000 C 
BRANCH  36  38
ATOM     38  C   UNL     1     113.285 127.248 140.535  0.00  0.00    +0.000 C 
BRANCH  38  41
ATOM     39  O   UNL     1     114.662 127.046 140.863  0.00  0.00    +0.000 OA
ATOM     40  O   UNL     1     114.180 128.361 140.578  0.00  0.00    +0.000 OA
ATOM     41  C   UNL     1     114.042 127.552 140.659  0.00  0.00    +0.000 C 
ENDBRANCH  38  41
ENDBRANCH  36  38
ENDBRANCH  34  36
ENDBRANCH  33  34
ENDBRANCH  31  33
ENDBRANCH  30  31
ENDBRANCH   9  30
TORSDOF 9
ENDMDL
