MODEL 1
REMARK VINA RESULT:      -9.5      0.000      0.000
REMARK  Name = 5320439
REMARK  5 active torsions:
REMARK  status: ('A' for Active; 'I' for Inactive)
REMARK    1  A    between atoms: O_2  and  C_17
REMARK    2  A    between atoms: O_2  and  C_19
REMARK    3  A    between atoms: O_8  and  C_21
REMARK    4  A    between atoms: C_16  and  C_18
REMARK    5  A    between atoms: C_26  and  C_28
REMARK                            x       y       z     vdW  Elec       q    Type
REMARK                         _______ _______ _______ _____ _____    ______ ____
ROOT
ATOM      1  O   UNL     1     113.341 128.915 139.470  0.00  0.00    +0.000 OA
ATOM      2  O   UNL     1     112.590 126.144 139.841  0.00  0.00    +0.000 OA
ATOM      3  O   UNL     1     113.325 126.816 140.887  0.00  0.00    +0.000 OA
ATOM      4  C   UNL     1     112.232 126.823 138.636  0.00  0.00    +0.000 A 
ATOM      5  C   UNL     1     112.594 126.826 139.378  0.00  0.00    +0.000 A 
ATOM      6  C   UNL     1     112.236 127.506 138.173  0.00  0.00    +0.000 A 
ATOM      7  C   UNL     1     112.960 127.512 139.656  0.00  0.00    +0.000 A 
ATOM      8  C   UNL     1     112.963 128.194 139.191  0.00  0.00    +0.000 A 
ATOM      9  C   UNL     1     112.602 128.191 138.451  0.00  0.00    +0.000 A 
ATOM     10  C   UNL     1     113.333 127.502 140.430  0.00  0.00    +0.000 A 
ATOM     11  C   UNL     1     113.719 128.924 140.241  0.00  0.00    +0.000 A 
ATOM     12  C   UNL     1     113.716 128.214 140.725  0.00  0.00    +0.000 A 
ENDROOT
BRANCH  11  15
ATOM     13  O   UNL     1     113.624 131.333 141.776  0.00  0.00    +0.000 OA
ATOM     14  O   UNL     1     115.179 131.672 141.342  0.00  0.00    +0.000 OA
ATOM     15  C   UNL     1     114.084 129.611 140.517  0.00  0.00    +0.000 A 
ATOM     16  C   UNL     1     113.671 130.129 141.009  0.00  0.00    +0.000 A 
ATOM     17  C   UNL     1     114.862 129.781 140.300  0.00  0.00    +0.000 A 
ATOM     18  C   UNL     1     114.037 130.815 141.284  0.00  0.00    +0.000 A 
ATOM     19  C   UNL     1     115.227 130.467 140.575  0.00  0.00    +0.000 A 
ATOM     20  C   UNL     1     114.814 130.985 141.067  0.00  0.00    +0.000 A 
ENDBRANCH  11  15
BRANCH   6  21
ATOM     21  O   UNL     1     111.874 127.502 137.431  0.00  0.00    +0.000 OA
ATOM     22  C   UNL     1     111.623 128.211 137.092  0.00  0.00    +0.000 C 
ENDBRANCH   6  21
BRANCH   4  23
ATOM     23  O   UNL     1     111.867 126.139 138.359  0.00  0.00    +0.000 OA
BRANCH  23  32
ATOM     24  O   UNL     1     113.108 125.702 137.799  0.00  0.00    +0.000 OA
ATOM     25  O   UNL     1     111.978 123.720 136.841  0.00  0.00    +0.000 OA
ATOM     26  O   UNL     1     113.594 123.944 136.601  0.00  0.00    +0.000 OA
ATOM     27  O   UNL     1     111.114 124.817 137.720  0.00  0.00    +0.000 OA
ATOM     28  C   UNL     1     112.354 124.380 137.160  0.00  0.00    +0.000 C 
ATOM     29  C   UNL     1     113.162 124.492 137.040  0.00  0.00    +0.000 C 
ATOM     30  C   UNL     1     111.922 124.929 137.600  0.00  0.00    +0.000 C 
ATOM     31  C   UNL     1     113.539 125.153 137.360  0.00  0.00    +0.000 C 
ATOM     32  C   UNL     1     112.298 125.590 137.919  0.00  0.00    +0.000 C 
BRANCH  31  34
ATOM     33  O   UNL     1     114.878 125.123 137.856  0.00  0.00    +0.000 OA
ATOM     34  C   UNL     1     114.347 125.266 137.240  0.00  0.00    +0.000 C 
ENDBRANCH  31  34
ENDBRANCH  23  32
ENDBRANCH   4  23
TORSDOF 5
ENDMDL
MODEL 2
REMARK VINA RESULT:      -9.5      3.934      6.811
REMARK  Name = 5320439
REMARK  5 active torsions:
REMARK  status: ('A' for Active; 'I' for Inactive)
REMARK    1  A    between atoms: O_2  and  C_17
REMARK    2  A    between atoms: O_2  and  C_19
REMARK    3  A    between atoms: O_8  and  C_21
REMARK    4  A    between atoms: C_16  and  C_18
REMARK    5  A    between atoms: C_26  and  C_28
REMARK                            x       y       z     vdW  Elec       q    Type
REMARK                         _______ _______ _______ _____ _____    ______ ____
ROOT
ATOM      1  O   UNL     1     110.732 127.139 136.116  0.00  0.00    +0.000 OA
ATOM      2  O   UNL     1     108.205 128.512 135.783  0.00  0.00    +0.000 OA
ATOM      3  O   UNL     1     108.200 127.119 136.163  0.00  0.00    +0.000 OA
ATOM      4  C   UNL     1     109.431 129.215 135.571  0.00  0.00    +0.000 A 
ATOM      5  C   UNL     1     109.030 128.521 135.767  0.00  0.00    +0.000 A 
ATOM      6  C   UNL     1     110.256 129.224 135.556  0.00  0.00    +0.000 A 
ATOM      7  C   UNL     1     109.454 127.836 135.947  0.00  0.00    +0.000 A 
ATOM      8  C   UNL     1     110.279 127.846 135.931  0.00  0.00    +0.000 A 
ATOM      9  C   UNL     1     110.679 128.539 135.735  0.00  0.00    +0.000 A 
ATOM     10  C   UNL     1     109.024 127.120 136.149  0.00  0.00    +0.000 A 
ATOM     11  C   UNL     1     110.319 126.413 136.321  0.00  0.00    +0.000 A 
ATOM     12  C   UNL     1     109.461 126.403 136.337  0.00  0.00    +0.000 A 
ENDROOT
BRANCH  11  15
ATOM     13  O   UNL     1     111.539 124.690 138.247  0.00  0.00    +0.000 OA
ATOM     14  O   UNL     1     112.025 123.680 137.036  0.00  0.00    +0.000 OA
ATOM     15  C   UNL     1     110.746 125.730 136.500  0.00  0.00    +0.000 A 
ATOM     16  C   UNL     1     110.929 125.552 137.284  0.00  0.00    +0.000 A 
ATOM     17  C   UNL     1     110.989 125.225 135.894  0.00  0.00    +0.000 A 
ATOM     18  C   UNL     1     111.355 124.869 137.462  0.00  0.00    +0.000 A 
ATOM     19  C   UNL     1     111.416 124.542 136.074  0.00  0.00    +0.000 A 
ATOM     20  C   UNL     1     111.599 124.363 136.857  0.00  0.00    +0.000 A 
ENDBRANCH  11  15
BRANCH   6  21
ATOM     21  O   UNL     1     110.657 129.919 135.360  0.00  0.00    +0.000 OA
ATOM     22  C   UNL     1     111.436 129.883 135.093  0.00  0.00    +0.000 C 
ENDBRANCH   6  21
BRANCH   4  23
ATOM     23  O   UNL     1     109.008 129.899 135.392  0.00  0.00    +0.000 OA
BRANCH  23  32
ATOM     24  O   UNL     1     109.043 130.295 136.765  0.00  0.00    +0.000 OA
ATOM     25  O   UNL     1     107.445 132.121 136.280  0.00  0.00    +0.000 OA
ATOM     26  O   UNL     1     108.013 131.907 137.814  0.00  0.00    +0.000 OA
ATOM     27  O   UNL     1     107.942 131.117 135.069  0.00  0.00    +0.000 OA
ATOM     28  C   UNL     1     107.977 131.512 136.442  0.00  0.00    +0.000 C 
ATOM     29  C   UNL     1     108.261 131.406 137.208  0.00  0.00    +0.000 C 
ATOM     30  C   UNL     1     108.226 131.010 135.836  0.00  0.00    +0.000 C 
ATOM     31  C   UNL     1     108.794 130.797 137.370  0.00  0.00    +0.000 C 
ATOM     32  C   UNL     1     108.759 130.401 135.997  0.00  0.00    +0.000 C 
BRANCH  31  34
ATOM     33  O   UNL     1     108.779 130.080 138.606  0.00  0.00    +0.000 OA
ATOM     34  C   UNL     1     109.079 130.690 138.137  0.00  0.00    +0.000 C 
ENDBRANCH  31  34
ENDBRANCH  23  32
ENDBRANCH   4  23
TORSDOF 5
ENDMDL
MODEL 3
REMARK VINA RESULT:      -9.5      8.598      9.761
REMARK  Name = 5320439
REMARK  5 active torsions:
REMARK  status: ('A' for Active; 'I' for Inactive)
REMARK    1  A    between atoms: O_2  and  C_17
REMARK    2  A    between atoms: O_2  and  C_19
REMARK    3  A    between atoms: O_8  and  C_21
REMARK    4  A    between atoms: C_16  and  C_18
REMARK    5  A    between atoms: C_26  and  C_28
REMARK                            x       y       z     vdW  Elec       q    Type
REMARK                         _______ _______ _______ _____ _____    ______ ____
ROOT
ATOM      1  O   UNL     1     106.610 125.270 146.130  0.00  0.00    +0.000 OA
ATOM      2  O   UNL     1     105.580 127.661 144.865  0.00  0.00    +0.000 OA
ATOM      3  O   UNL     1     106.040 127.735 146.232  0.00  0.00    +0.000 OA
ATOM      4  C   UNL     1     105.626 126.434 144.136  0.00  0.00    +0.000 A 
ATOM      5  C   UNL     1     105.765 126.858 144.830  0.00  0.00    +0.000 A 
ATOM      6  C   UNL     1     105.811 125.630 144.100  0.00  0.00    +0.000 A 
ATOM      7  C   UNL     1     106.088 126.479 145.488  0.00  0.00    +0.000 A 
ATOM      8  C   UNL     1     106.272 125.676 145.451  0.00  0.00    +0.000 A 
ATOM      9  C   UNL     1     106.134 125.252 144.758  0.00  0.00    +0.000 A 
ATOM     10  C   UNL     1     106.228 126.933 146.205  0.00  0.00    +0.000 A 
ATOM     11  C   UNL     1     106.756 125.706 146.855  0.00  0.00    +0.000 A 
ATOM     12  C   UNL     1     106.564 126.543 146.893  0.00  0.00    +0.000 A 
ENDROOT
BRANCH  11  15
ATOM     13  O   UNL     1     106.414 124.236 149.282  0.00  0.00    +0.000 OA
ATOM     14  O   UNL     1     108.050 124.181 149.480  0.00  0.00    +0.000 OA
ATOM     15  C   UNL     1     107.080 125.325 147.512  0.00  0.00    +0.000 A 
ATOM     16  C   UNL     1     106.584 124.971 148.068  0.00  0.00    +0.000 A 
ATOM     17  C   UNL     1     107.898 125.297 147.611  0.00  0.00    +0.000 A 
ATOM     18  C   UNL     1     106.908 124.590 148.724  0.00  0.00    +0.000 A 
ATOM     19  C   UNL     1     108.221 124.916 148.267  0.00  0.00    +0.000 A 
ATOM     20  C   UNL     1     107.727 124.562 148.824  0.00  0.00    +0.000 A 
ENDBRANCH  11  15
BRANCH   6  21
ATOM     21  O   UNL     1     105.672 125.206 143.406  0.00  0.00    +0.000 OA
ATOM     22  C   UNL     1     105.607 124.384 143.432  0.00  0.00    +0.000 C 
ENDBRANCH   6  21
BRANCH   4  23
ATOM     23  O   UNL     1     105.303 126.812 143.479  0.00  0.00    +0.000 OA
BRANCH  23  32
ATOM     24  O   UNL     1     106.608 127.159 143.011  0.00  0.00    +0.000 OA
ATOM     25  O   UNL     1     105.606 128.737 141.388  0.00  0.00    +0.000 OA
ATOM     26  O   UNL     1     107.244 128.558 141.461  0.00  0.00    +0.000 OA
ATOM     27  O   UNL     1     104.635 127.864 142.397  0.00  0.00    +0.000 OA
ATOM     28  C   UNL     1     105.940 128.211 141.929  0.00  0.00    +0.000 C 
ATOM     29  C   UNL     1     106.759 128.122 141.965  0.00  0.00    +0.000 C 
ATOM     30  C   UNL     1     105.454 127.775 142.433  0.00  0.00    +0.000 C 
ATOM     31  C   UNL     1     107.093 127.596 142.506  0.00  0.00    +0.000 C 
ATOM     32  C   UNL     1     105.788 127.249 142.974  0.00  0.00    +0.000 C 
BRANCH  31  34
ATOM     33  O   UNL     1     108.256 126.781 142.350  0.00  0.00    +0.000 OA
ATOM     34  C   UNL     1     107.912 127.506 142.543  0.00  0.00    +0.000 C 
ENDBRANCH  31  34
ENDBRANCH  23  32
ENDBRANCH   4  23
TORSDOF 5
ENDMDL
MODEL 4
REMARK VINA RESULT:      -9.0      8.983     10.011
REMARK  Name = 5320439
REMARK  5 active torsions:
REMARK  status: ('A' for Active; 'I' for Inactive)
REMARK    1  A    between atoms: O_2  and  C_17
REMARK    2  A    between atoms: O_2  and  C_19
REMARK    3  A    between atoms: O_8  and  C_21
REMARK    4  A    between atoms: C_16  and  C_18
REMARK    5  A    between atoms: C_26  and  C_28
REMARK                            x       y       z     vdW  Elec       q    Type
REMARK                         _______ _______ _______ _____ _____    ______ ____
ROOT
ATOM      1  O   UNL     1     103.378 130.308 142.557  0.00  0.00    +0.000 OA
ATOM      2  O   UNL     1     104.511 127.946 141.324  0.00  0.00    +0.000 OA
ATOM      3  O   UNL     1     103.588 128.758 140.567  0.00  0.00    +0.000 OA
ATOM      4  C   UNL     1     104.869 128.291 142.664  0.00  0.00    +0.000 A 
ATOM      5  C   UNL     1     104.444 128.450 141.974  0.00  0.00    +0.000 A 
ATOM      6  C   UNL     1     104.802 128.795 143.314  0.00  0.00    +0.000 A 
ATOM      7  C   UNL     1     103.953 129.112 141.935  0.00  0.00    +0.000 A 
ATOM      8  C   UNL     1     103.887 129.615 142.586  0.00  0.00    +0.000 A 
ATOM      9  C   UNL     1     104.311 129.457 143.275  0.00  0.00    +0.000 A 
ATOM     10  C   UNL     1     103.516 129.266 141.211  0.00  0.00    +0.000 A 
ATOM     11  C   UNL     1     102.933 130.478 141.842  0.00  0.00    +0.000 A 
ATOM     12  C   UNL     1     103.002 129.954 141.165  0.00  0.00    +0.000 A 
ENDROOT
BRANCH  11  15
ATOM     13  O   UNL     1     102.562 133.255 141.280  0.00  0.00    +0.000 OA
ATOM     14  O   UNL     1     100.971 133.127 141.698  0.00  0.00    +0.000 OA
ATOM     15  C   UNL     1     102.443 131.140 141.806  0.00  0.00    +0.000 A 
ATOM     16  C   UNL     1     102.748 131.866 141.561  0.00  0.00    +0.000 A 
ATOM     17  C   UNL     1     101.647 131.077 142.015  0.00  0.00    +0.000 A 
ATOM     18  C   UNL     1     102.257 132.528 141.525  0.00  0.00    +0.000 A 
ATOM     19  C   UNL     1     101.157 131.739 141.978  0.00  0.00    +0.000 A 
ATOM     20  C   UNL     1     101.462 132.465 141.734  0.00  0.00    +0.000 A 
ENDBRANCH  11  15
BRANCH   6  21
ATOM     21  O   UNL     1     105.228 128.636 144.003  0.00  0.00    +0.000 OA
ATOM     22  C   UNL     1     104.993 128.974 144.719  0.00  0.00    +0.000 C 
ENDBRANCH   6  21
BRANCH   4  23
ATOM     23  O   UNL     1     105.360 127.630 142.703  0.00  0.00    +0.000 OA
BRANCH  23  32
ATOM     24  O   UNL     1     106.446 128.406 142.194  0.00  0.00    +0.000 OA
ATOM     25  O   UNL     1     107.937 126.439 142.376  0.00  0.00    +0.000 OA
ATOM     26  O   UNL     1     108.526 127.870 141.806  0.00  0.00    +0.000 OA
ATOM     27  O   UNL     1     106.353 126.319 142.825  0.00  0.00    +0.000 OA
ATOM     28  C   UNL     1     107.440 127.095 142.315  0.00  0.00    +0.000 C 
ATOM     29  C   UNL     1     107.735 127.810 142.031  0.00  0.00    +0.000 C 
ATOM     30  C   UNL     1     106.648 127.034 142.540  0.00  0.00    +0.000 C 
ATOM     31  C   UNL     1     107.238 128.466 141.970  0.00  0.00    +0.000 C 
ATOM     32  C   UNL     1     106.151 127.690 142.479  0.00  0.00    +0.000 C 
BRANCH  31  34
ATOM     33  O   UNL     1     107.306 129.452 140.938  0.00  0.00    +0.000 OA
ATOM     34  C   UNL     1     107.532 129.182 141.684  0.00  0.00    +0.000 C 
ENDBRANCH  31  34
ENDBRANCH  23  32
ENDBRANCH   4  23
TORSDOF 5
ENDMDL
MODEL 5
REMARK VINA RESULT:      -9.0      3.685      6.309
REMARK  Name = 5320439
REMARK  5 active torsions:
REMARK  status: ('A' for Active; 'I' for Inactive)
REMARK    1  A    between atoms: O_2  and  C_17
REMARK    2  A    between atoms: O_2  and  C_19
REMARK    3  A    between atoms: O_8  and  C_21
REMARK    4  A    between atoms: C_16  and  C_18
REMARK    5  A    between atoms: C_26  and  C_28
REMARK                            x       y       z     vdW  Elec       q    Type
REMARK                         _______ _______ _______ _____ _____    ______ ____
ROOT
ATOM      1  O   UNL     1     110.103 130.979 135.963  0.00  0.00    +0.000 OA
ATOM      2  O   UNL     1     112.037 131.764 137.968  0.00  0.00    +0.000 OA
ATOM      3  O   UNL     1     110.836 132.549 137.809  0.00  0.00    +0.000 OA
ATOM      4  C   UNL     1     112.281 130.613 137.156  0.00  0.00    +0.000 A 
ATOM      5  C   UNL     1     111.800 131.251 137.367  0.00  0.00    +0.000 A 
ATOM      6  C   UNL     1     112.044 130.101 136.555  0.00  0.00    +0.000 A 
ATOM      7  C   UNL     1     111.083 131.374 136.978  0.00  0.00    +0.000 A 
ATOM      8  C   UNL     1     110.847 130.861 136.376  0.00  0.00    +0.000 A 
ATOM      9  C   UNL     1     111.327 130.224 136.165  0.00  0.00    +0.000 A 
ATOM     10  C   UNL     1     110.592 132.041 137.207  0.00  0.00    +0.000 A 
ATOM     11  C   UNL     1     109.599 131.640 136.179  0.00  0.00    +0.000 A 
ATOM     12  C   UNL     1     109.844 132.175 136.804  0.00  0.00    +0.000 A 
ENDROOT
BRANCH  11  15
ATOM     13  O   UNL     1     106.758 131.341 136.063  0.00  0.00    +0.000 OA
ATOM     14  O   UNL     1     106.735 132.125 134.612  0.00  0.00    +0.000 OA
ATOM     15  C   UNL     1     108.882 131.762 135.787  0.00  0.00    +0.000 A 
ATOM     16  C   UNL     1     108.179 131.490 136.122  0.00  0.00    +0.000 A 
ATOM     17  C   UNL     1     108.870 132.154 135.061  0.00  0.00    +0.000 A 
ATOM     18  C   UNL     1     107.463 131.612 135.729  0.00  0.00    +0.000 A 
ATOM     19  C   UNL     1     108.154 132.275 134.670  0.00  0.00    +0.000 A 
ATOM     20  C   UNL     1     107.451 132.004 135.004  0.00  0.00    +0.000 A 
ENDBRANCH  11  15
BRANCH   6  21
ATOM     21  O   UNL     1     112.524 129.463 136.343  0.00  0.00    +0.000 OA
ATOM     22  C   UNL     1     112.460 129.131 135.591  0.00  0.00    +0.000 C 
ENDBRANCH   6  21
BRANCH   4  23
ATOM     23  O   UNL     1     112.996 130.490 137.545  0.00  0.00    +0.000 OA
BRANCH  23  32
ATOM     24  O   UNL     1     112.365 129.670 138.530  0.00  0.00    +0.000 OA
ATOM     25  O   UNL     1     114.315 129.963 140.025  0.00  0.00    +0.000 OA
ATOM     26  O   UNL     1     113.034 129.045 140.511  0.00  0.00    +0.000 OA
ATOM     27  O   UNL     1     114.297 130.686 138.542  0.00  0.00    +0.000 OA
ATOM     28  C   UNL     1     113.665 129.865 139.527  0.00  0.00    +0.000 C 
ATOM     29  C   UNL     1     113.025 129.407 139.770  0.00  0.00    +0.000 C 
ATOM     30  C   UNL     1     113.656 130.227 138.785  0.00  0.00    +0.000 C 
ATOM     31  C   UNL     1     112.375 129.309 139.272  0.00  0.00    +0.000 C 
ATOM     32  C   UNL     1     113.006 130.129 138.287  0.00  0.00    +0.000 C 
BRANCH  31  34
ATOM     33  O   UNL     1     111.554 128.149 139.116  0.00  0.00    +0.000 OA
ATOM     34  C   UNL     1     111.734 128.850 139.514  0.00  0.00    +0.000 C 
ENDBRANCH  31  34
ENDBRANCH  23  32
ENDBRANCH   4  23
TORSDOF 5
ENDMDL
MODEL 6
REMARK VINA RESULT:      -8.9      1.042      5.509
REMARK  Name = 5320439
REMARK  5 active torsions:
REMARK  status: ('A' for Active; 'I' for Inactive)
REMARK    1  A    between atoms: O_2  and  C_17
REMARK    2  A    between atoms: O_2  and  C_19
REMARK    3  A    between atoms: O_8  and  C_21
REMARK    4  A    between atoms: C_16  and  C_18
REMARK    5  A    between atoms: C_26  and  C_28
REMARK                            x       y       z     vdW  Elec       q    Type
REMARK                         _______ _______ _______ _____ _____    ______ ____
ROOT
ATOM      1  O   UNL     1     112.905 127.142 138.344  0.00  0.00    +0.000 OA
ATOM      2  O   UNL     1     113.103 127.986 141.105  0.00  0.00    +0.000 OA
ATOM      3  O   UNL     1     113.634 126.698 140.727  0.00  0.00    +0.000 OA
ATOM      4  C   UNL     1     112.486 128.842 140.142  0.00  0.00    +0.000 A 
ATOM      5  C   UNL     1     112.864 128.133 140.330  0.00  0.00    +0.000 A 
ATOM      6  C   UNL     1     112.247 128.989 139.366  0.00  0.00    +0.000 A 
ATOM      7  C   UNL     1     113.004 127.572 139.741  0.00  0.00    +0.000 A 
ATOM      8  C   UNL     1     112.765 127.720 138.966  0.00  0.00    +0.000 A 
ATOM      9  C   UNL     1     112.387 128.428 138.778  0.00  0.00    +0.000 A 
ATOM     10  C   UNL     1     113.399 126.837 139.950  0.00  0.00    +0.000 A 
ATOM     11  C   UNL     1     113.298 126.403 138.533  0.00  0.00    +0.000 A 
ATOM     12  C   UNL     1     113.547 126.249 139.340  0.00  0.00    +0.000 A 
ENDROOT
BRANCH  11  15
ATOM     13  O   UNL     1     112.327 124.379 136.764  0.00  0.00    +0.000 OA
ATOM     14  O   UNL     1     113.852 124.165 136.172  0.00  0.00    +0.000 OA
ATOM     15  C   UNL     1     113.436 125.843 137.943  0.00  0.00    +0.000 A 
ATOM     16  C   UNL     1     112.812 125.391 137.649  0.00  0.00    +0.000 A 
ATOM     17  C   UNL     1     114.199 125.736 137.646  0.00  0.00    +0.000 A 
ATOM     18  C   UNL     1     112.951 124.832 137.058  0.00  0.00    +0.000 A 
ATOM     19  C   UNL     1     114.337 125.176 137.056  0.00  0.00    +0.000 A 
ATOM     20  C   UNL     1     113.714 124.724 136.762  0.00  0.00    +0.000 A 
ENDBRANCH  11  15
BRANCH   6  21
ATOM     21  O   UNL     1     111.868 129.699 139.179  0.00  0.00    +0.000 OA
ATOM     22  C   UNL     1     111.399 129.748 138.502  0.00  0.00    +0.000 C 
ENDBRANCH   6  21
BRANCH   4  23
ATOM     23  O   UNL     1     112.346 129.403 140.730  0.00  0.00    +0.000 OA
BRANCH  23  32
ATOM     24  O   UNL     1     113.648 129.953 140.517  0.00  0.00    +0.000 OA
ATOM     25  O   UNL     1     113.296 131.517 142.403  0.00  0.00    +0.000 OA
ATOM     26  O   UNL     1     114.713 131.545 141.561  0.00  0.00    +0.000 OA
ATOM     27  O   UNL     1     112.111 130.445 141.987  0.00  0.00    +0.000 OA
ATOM     28  C   UNL     1     113.413 130.996 141.774  0.00  0.00    +0.000 C 
ATOM     29  C   UNL     1     114.122 131.010 141.354  0.00  0.00    +0.000 C 
ATOM     30  C   UNL     1     112.820 130.460 141.567  0.00  0.00    +0.000 C 
ATOM     31  C   UNL     1     114.239 130.489 140.725  0.00  0.00    +0.000 C 
ATOM     32  C   UNL     1     112.938 129.939 140.938  0.00  0.00    +0.000 C 
BRANCH  31  34
ATOM     33  O   UNL     1     114.954 130.749 139.515  0.00  0.00    +0.000 OA
ATOM     34  C   UNL     1     114.948 130.503 140.304  0.00  0.00    +0.000 C 
ENDBRANCH  31  34
ENDBRANCH  23  32
ENDBRANCH   4  23
TORSDOF 5
ENDMDL
MODEL 7
REMARK VINA RESULT:      -8.9      3.384      5.791
REMARK  Name = 5320439
REMARK  5 active torsions:
REMARK  status: ('A' for Active; 'I' for Inactive)
REMARK    1  A    between atoms: O_2  and  C_17
REMARK    2  A    between atoms: O_2  and  C_19
REMARK    3  A    between atoms: O_8  and  C_21
REMARK    4  A    between atoms: C_16  and  C_18
REMARK    5  A    between atoms: C_26  and  C_28
REMARK                            x       y       z     vdW  Elec       q    Type
REMARK                         _______ _______ _______ _____ _____    ______ ____
ROOT
ATOM      1  O   UNL     1     112.097 126.784 136.383  0.00  0.00    +0.000 OA
ATOM      2  O   UNL     1     111.513 129.498 135.561  0.00  0.00    +0.000 OA
ATOM      3  O   UNL     1     112.839 129.179 136.035  0.00  0.00    +0.000 OA
ATOM      4  C   UNL     1     110.494 128.499 135.493  0.00  0.00    +0.000 A 
ATOM      5  C   UNL     1     111.269 128.718 135.673  0.00  0.00    +0.000 A 
ATOM      6  C   UNL     1     110.250 127.719 135.605  0.00  0.00    +0.000 A 
ATOM      7  C   UNL     1     111.799 128.157 135.966  0.00  0.00    +0.000 A 
ATOM      8  C   UNL     1     111.554 127.377 136.078  0.00  0.00    +0.000 A 
ATOM      9  C   UNL     1     110.780 127.158 135.898  0.00  0.00    +0.000 A 
ATOM     10  C   UNL     1     112.603 128.398 136.151  0.00  0.00    +0.000 A 
ATOM     11  C   UNL     1     112.904 127.006 136.573  0.00  0.00    +0.000 A 
ATOM     12  C   UNL     1     113.160 127.818 136.456  0.00  0.00    +0.000 A 
ENDROOT
BRANCH  11  15
ATOM     13  O   UNL     1     114.961 125.072 136.126  0.00  0.00    +0.000 OA
ATOM     14  O   UNL     1     115.015 124.756 137.744  0.00  0.00    +0.000 OA
ATOM     15  C   UNL     1     113.432 126.444 136.865  0.00  0.00    +0.000 A 
ATOM     16  C   UNL     1     113.932 126.039 136.349  0.00  0.00    +0.000 A 
ATOM     17  C   UNL     1     113.459 126.285 137.674  0.00  0.00    +0.000 A 
ATOM     18  C   UNL     1     114.460 125.477 136.642  0.00  0.00    +0.000 A 
ATOM     19  C   UNL     1     113.987 125.722 137.967  0.00  0.00    +0.000 A 
ATOM     20  C   UNL     1     114.487 125.318 137.451  0.00  0.00    +0.000 A 
ENDBRANCH  11  15
BRANCH   6  21
ATOM     21  O   UNL     1     109.475 127.499 135.424  0.00  0.00    +0.000 OA
ATOM     22  C   UNL     1     109.283 126.703 135.331  0.00  0.00    +0.000 C 
ENDBRANCH   6  21
BRANCH   4  23
ATOM     23  O   UNL     1     109.965 129.058 135.200  0.00  0.00    +0.000 OA
BRANCH  23  32
ATOM     24  O   UNL     1     109.639 129.448 136.536  0.00  0.00    +0.000 OA
ATOM     25  O   UNL     1     108.064 131.143 135.657  0.00  0.00    +0.000 OA
ATOM     26  O   UNL     1     108.263 130.967 137.285  0.00  0.00    +0.000 OA
ATOM     27  O   UNL     1     108.915 130.189 134.614  0.00  0.00    +0.000 OA
ATOM     28  C   UNL     1     108.589 130.578 135.950  0.00  0.00    +0.000 C 
ATOM     29  C   UNL     1     108.688 130.490 136.764  0.00  0.00    +0.000 C 
ATOM     30  C   UNL     1     109.014 130.101 135.428  0.00  0.00    +0.000 C 
ATOM     31  C   UNL     1     109.213 129.925 137.057  0.00  0.00    +0.000 C 
ATOM     32  C   UNL     1     109.539 129.536 135.721  0.00  0.00    +0.000 C 
BRANCH  31  34
ATOM     33  O   UNL     1     109.009 129.171 138.253  0.00  0.00    +0.000 OA
ATOM     34  C   UNL     1     109.313 129.837 137.871  0.00  0.00    +0.000 C 
ENDBRANCH  31  34
ENDBRANCH  23  32
ENDBRANCH   4  23
TORSDOF 5
ENDMDL
MODEL 8
REMARK VINA RESULT:      -8.9      1.186      5.873
REMARK  Name = 5320439
REMARK  5 active torsions:
REMARK  status: ('A' for Active; 'I' for Inactive)
REMARK    1  A    between atoms: O_2  and  C_17
REMARK    2  A    between atoms: O_2  and  C_19
REMARK    3  A    between atoms: O_8  and  C_21
REMARK    4  A    between atoms: C_16  and  C_18
REMARK    5  A    between atoms: C_26  and  C_28
REMARK                            x       y       z     vdW  Elec       q    Type
REMARK                         _______ _______ _______ _____ _____    ______ ____
ROOT
ATOM      1  O   UNL     1     113.149 126.184 138.849  0.00  0.00    +0.000 OA
ATOM      2  O   UNL     1     113.011 129.065 139.085  0.00  0.00    +0.000 OA
ATOM      3  O   UNL     1     112.341 128.420 137.980  0.00  0.00    +0.000 OA
ATOM      4  C   UNL     1     113.735 128.306 140.055  0.00  0.00    +0.000 A 
ATOM      5  C   UNL     1     113.275 128.338 139.370  0.00  0.00    +0.000 A 
ATOM      6  C   UNL     1     113.999 127.578 140.340  0.00  0.00    +0.000 A 
ATOM      7  C   UNL     1     113.080 127.643 138.971  0.00  0.00    +0.000 A 
ATOM      8  C   UNL     1     113.345 126.915 139.257  0.00  0.00    +0.000 A 
ATOM      9  C   UNL     1     113.804 126.883 139.940  0.00  0.00    +0.000 A 
ATOM     10  C   UNL     1     112.601 127.690 138.259  0.00  0.00    +0.000 A 
ATOM     11  C   UNL     1     112.670 126.211 138.136  0.00  0.00    +0.000 A 
ATOM     12  C   UNL     1     112.395 126.968 137.838  0.00  0.00    +0.000 A 
ENDROOT
BRANCH  11  15
ATOM     13  O   UNL     1     113.397 124.084 136.371  0.00  0.00    +0.000 OA
ATOM     14  O   UNL     1     111.896 123.424 136.548  0.00  0.00    +0.000 OA
ATOM     15  C   UNL     1     112.477 125.514 137.739  0.00  0.00    +0.000 A 
ATOM     16  C   UNL     1     113.034 125.148 137.253  0.00  0.00    +0.000 A 
ATOM     17  C   UNL     1     111.726 125.184 137.827  0.00  0.00    +0.000 A 
ATOM     18  C   UNL     1     112.840 124.451 136.857  0.00  0.00    +0.000 A 
ATOM     19  C   UNL     1     111.533 124.487 137.430  0.00  0.00    +0.000 A 
ATOM     20  C   UNL     1     112.089 124.120 136.945  0.00  0.00    +0.000 A 
ENDBRANCH  11  15
BRANCH   6  21
ATOM     21  O   UNL     1     114.459 127.546 141.025  0.00  0.00    +0.000 OA
ATOM     22  C   UNL     1     114.941 126.892 141.167  0.00  0.00    +0.000 C 
ENDBRANCH   6  21
BRANCH   4  23
ATOM     23  O   UNL     1     113.930 129.000 140.453  0.00  0.00    +0.000 OA
BRANCH  23  32
ATOM     24  O   UNL     1     112.755 128.892 141.259  0.00  0.00    +0.000 OA
ATOM     25  O   UNL     1     113.069 131.223 142.029  0.00  0.00    +0.000 OA
ATOM     26  O   UNL     1     111.790 130.339 142.578  0.00  0.00    +0.000 OA
ATOM     27  O   UNL     1     114.139 130.554 140.967  0.00  0.00    +0.000 OA
ATOM     28  C   UNL     1     112.964 130.446 141.772  0.00  0.00    +0.000 C 
ATOM     29  C   UNL     1     112.325 130.004 142.047  0.00  0.00    +0.000 C 
ATOM     30  C   UNL     1     113.500 130.112 141.241  0.00  0.00    +0.000 C 
ATOM     31  C   UNL     1     112.220 129.227 141.790  0.00  0.00    +0.000 C 
ATOM     32  C   UNL     1     113.395 129.335 140.984  0.00  0.00    +0.000 C 
BRANCH  31  34
ATOM     33  O   UNL     1     111.708 128.153 142.581  0.00  0.00    +0.000 OA
ATOM     34  C   UNL     1     111.580 128.785 142.065  0.00  0.00    +0.000 C 
ENDBRANCH  31  34
ENDBRANCH  23  32
ENDBRANCH   4  23
TORSDOF 5
ENDMDL
MODEL 9
REMARK VINA RESULT:      -8.9      9.175     10.614
REMARK  Name = 5320439
REMARK  5 active torsions:
REMARK  status: ('A' for Active; 'I' for Inactive)
REMARK    1  A    between atoms: O_2  and  C_17
REMARK    2  A    between atoms: O_2  and  C_19
REMARK    3  A    between atoms: O_8  and  C_21
REMARK    4  A    between atoms: C_16  and  C_18
REMARK    5  A    between atoms: C_26  and  C_28
REMARK                            x       y       z     vdW  Elec       q    Type
REMARK                         _______ _______ _______ _____ _____    ______ ____
ROOT
ATOM      1  O   UNL     1     105.222 127.166 143.729  0.00  0.00    +0.000 OA
ATOM      2  O   UNL     1     107.194 127.139 145.847  0.00  0.00    +0.000 OA
ATOM      3  O   UNL     1     106.841 128.398 145.236  0.00  0.00    +0.000 OA
ATOM      4  C   UNL     1     106.587 125.916 145.424  0.00  0.00    +0.000 A 
ATOM      5  C   UNL     1     106.667 126.736 145.357  0.00  0.00    +0.000 A 
ATOM      6  C   UNL     1     106.061 125.513 144.934  0.00  0.00    +0.000 A 
ATOM      7  C   UNL     1     106.220 127.150 144.801  0.00  0.00    +0.000 A 
ATOM      8  C   UNL     1     105.693 126.745 144.312  0.00  0.00    +0.000 A 
ATOM      9  C   UNL     1     105.614 125.927 144.378  0.00  0.00    +0.000 A 
ATOM     10  C   UNL     1     106.312 128.002 144.742  0.00  0.00    +0.000 A 
ATOM     11  C   UNL     1     105.301 128.019 143.655  0.00  0.00    +0.000 A 
ATOM     12  C   UNL     1     105.849 128.440 144.165  0.00  0.00    +0.000 A 
ENDROOT
BRANCH  11  15
ATOM     13  O   UNL     1     104.402 128.362 140.964  0.00  0.00    +0.000 OA
ATOM     14  O   UNL     1     103.507 129.667 141.429  0.00  0.00    +0.000 OA
ATOM     15  C   UNL     1     104.852 128.430 143.098  0.00  0.00    +0.000 A 
ATOM     16  C   UNL     1     104.852 128.190 142.309  0.00  0.00    +0.000 A 
ATOM     17  C   UNL     1     104.404 129.083 143.331  0.00  0.00    +0.000 A 
ATOM     18  C   UNL     1     104.403 128.602 141.753  0.00  0.00    +0.000 A 
ATOM     19  C   UNL     1     103.956 129.495 142.774  0.00  0.00    +0.000 A 
ATOM     20  C   UNL     1     103.955 129.255 141.985  0.00  0.00    +0.000 A 
ENDBRANCH  11  15
BRANCH   6  21
ATOM     21  O   UNL     1     105.981 124.694 145.000  0.00  0.00    +0.000 OA
ATOM     22  C   UNL     1     105.639 124.262 144.386  0.00  0.00    +0.000 C 
ENDBRANCH   6  21
BRANCH   4  23
ATOM     23  O   UNL     1     107.034 125.502 145.979  0.00  0.00    +0.000 OA
BRANCH  23  32
ATOM     24  O   UNL     1     106.008 125.650 146.962  0.00  0.00    +0.000 OA
ATOM     25  O   UNL     1     107.621 125.038 148.737  0.00  0.00    +0.000 OA
ATOM     26  O   UNL     1     106.058 125.390 149.128  0.00  0.00    +0.000 OA
ATOM     27  O   UNL     1     108.109 125.094 147.162  0.00  0.00    +0.000 OA
ATOM     28  C   UNL     1     107.083 125.242 148.145  0.00  0.00    +0.000 C 
ATOM     29  C   UNL     1     106.302 125.418 148.342  0.00  0.00    +0.000 C 
ATOM     30  C   UNL     1     107.328 125.270 147.358  0.00  0.00    +0.000 C 
ATOM     31  C   UNL     1     105.765 125.622 147.750  0.00  0.00    +0.000 C 
ATOM     32  C   UNL     1     106.791 125.474 146.766  0.00  0.00    +0.000 C 
BRANCH  31  34
ATOM     33  O   UNL     1     104.378 125.278 147.733  0.00  0.00    +0.000 OA
ATOM     34  C   UNL     1     104.983 125.798 147.945  0.00  0.00    +0.000 C 
ENDBRANCH  31  34
ENDBRANCH  23  32
ENDBRANCH   4  23
TORSDOF 5
ENDMDL
MODEL 10
REMARK VINA RESULT:      -8.9      2.810      5.548
REMARK  Name = 5320439
REMARK  5 active torsions:
REMARK  status: ('A' for Active; 'I' for Inactive)
REMARK    1  A    between atoms: O_2  and  C_17
REMARK    2  A    between atoms: O_2  and  C_19
REMARK    3  A    between atoms: O_8  and  C_21
REMARK    4  A    between atoms: C_16  and  C_18
REMARK    5  A    between atoms: C_26  and  C_28
REMARK                            x       y       z     vdW  Elec       q    Type
REMARK                         _______ _______ _______ _____ _____    ______ ____
ROOT
ATOM      1  O   UNL     1     112.847 127.141 136.550  0.00  0.00    +0.000 OA
ATOM      2  O   UNL     1     111.135 129.022 137.934  0.00  0.00    +0.000 OA
ATOM      3  O   UNL     1     111.642 127.877 138.652  0.00  0.00    +0.000 OA
ATOM      4  C   UNL     1     111.465 129.237 136.560  0.00  0.00    +0.000 A 
ATOM      5  C   UNL     1     111.527 128.784 137.248  0.00  0.00    +0.000 A 
ATOM      6  C   UNL     1     111.857 128.999 135.874  0.00  0.00    +0.000 A 
ATOM      7  C   UNL     1     111.980 128.095 137.249  0.00  0.00    +0.000 A 
ATOM      8  C   UNL     1     112.372 127.858 136.562  0.00  0.00    +0.000 A 
ATOM      9  C   UNL     1     112.310 128.310 135.875  0.00  0.00    +0.000 A 
ATOM     10  C   UNL     1     112.037 127.632 137.971  0.00  0.00    +0.000 A 
ATOM     11  C   UNL     1     112.915 126.666 137.263  0.00  0.00    +0.000 A 
ATOM     12  C   UNL     1     112.508 126.913 137.978  0.00  0.00    +0.000 A 
ENDROOT
BRANCH  11  15
ATOM     13  O   UNL     1     113.169 123.870 136.728  0.00  0.00    +0.000 OA
ATOM     14  O   UNL     1     114.732 123.911 137.256  0.00  0.00    +0.000 OA
ATOM     15  C   UNL     1     113.369 125.978 137.261  0.00  0.00    +0.000 A 
ATOM     16  C   UNL     1     113.041 125.269 136.996  0.00  0.00    +0.000 A 
ATOM     17  C   UNL     1     114.151 125.998 137.525  0.00  0.00    +0.000 A 
ATOM     18  C   UNL     1     113.496 124.580 136.994  0.00  0.00    +0.000 A 
ATOM     19  C   UNL     1     114.604 125.309 137.523  0.00  0.00    +0.000 A 
ATOM     20  C   UNL     1     114.278 124.600 137.258  0.00  0.00    +0.000 A 
ENDBRANCH  11  15
BRANCH   6  21
ATOM     21  O   UNL     1     111.795 129.452 135.186  0.00  0.00    +0.000 OA
ATOM     22  C   UNL     1     112.386 129.411 134.612  0.00  0.00    +0.000 C 
ENDBRANCH   6  21
BRANCH   4  23
ATOM     23  O   UNL     1     111.013 129.925 136.559  0.00  0.00    +0.000 OA
BRANCH  23  32
ATOM     24  O   UNL     1     109.860 129.177 136.167  0.00  0.00    +0.000 OA
ATOM     25  O   UNL     1     108.445 131.178 136.510  0.00  0.00    +0.000 OA
ATOM     26  O   UNL     1     107.764 129.763 136.004  0.00  0.00    +0.000 OA
ATOM     27  O   UNL     1     110.069 131.259 136.787  0.00  0.00    +0.000 OA
ATOM     28  C   UNL     1     108.916 130.511 136.396  0.00  0.00    +0.000 C 
ATOM     29  C   UNL     1     108.576 129.804 136.143  0.00  0.00    +0.000 C 
ATOM     30  C   UNL     1     109.729 130.552 136.535  0.00  0.00    +0.000 C 
ATOM     31  C   UNL     1     109.048 129.137 136.029  0.00  0.00    +0.000 C 
ATOM     32  C   UNL     1     110.200 129.885 136.421  0.00  0.00    +0.000 C 
BRANCH  31  34
ATOM     33  O   UNL     1     108.570 127.822 136.318  0.00  0.00    +0.000 OA
ATOM     34  C   UNL     1     108.708 128.429 135.776  0.00  0.00    +0.000 C 
ENDBRANCH  31  34
ENDBRANCH  23  32
ENDBRANCH   4  23
TORSDOF 5
ENDMDL
