MODEL 1
REMARK VINA RESULT:      -9.1      0.000      0.000
REMARK  Name = 
REMARK  4 active torsions:
REMARK  status: ('A' for Active; 'I' for Inactive)
REMARK    1  A    between atoms: C_1  and  C_26
REMARK    2  A    between atoms: C_10  and  C_11
REMARK    3  A    between atoms: C_15  and  O_30
REMARK    4  A    between atoms: C_22  and  C_32
REMARK                            x       y       z     vdW  Elec       q    Type
REMARK                         _______ _______ _______ _____ _____    ______ ____
ROOT
ATOM      1  C   UNL     1     113.260 129.313 138.436  0.00  0.00    +0.000 A 
ATOM      2  C   UNL     1     113.550 130.268 138.502  0.00  0.00    +0.000 A 
ATOM      3  C   UNL     1     113.872 130.750 137.688  0.00  0.00    +0.000 A 
ATOM      4  C   UNL     1     113.904 130.278 136.807  0.00  0.00    +0.000 A 
ATOM      5  C   UNL     1     113.615 129.323 136.741  0.00  0.00    +0.000 A 
ATOM      6  C   UNL     1     113.293 128.841 137.556  0.00  0.00    +0.000 A 
ATOM      7  O   UNL     1     113.003 127.886 137.490  0.00  0.00    +0.000 OA
ATOM      8  C   UNL     1     113.647 128.850 135.860  0.00  0.00    +0.000 A 
ATOM      9  C   UNL     1     113.357 127.896 135.794  0.00  0.00    +0.000 A 
ATOM     10  C   UNL     1     113.036 127.413 136.609  0.00  0.00    +0.000 A 
ATOM     11  O   UNL     1     114.226 130.760 135.992  0.00  0.00    +0.000 OA
ATOM     12  O   UNL     1     113.969 129.333 135.046  0.00  0.00    +0.000 OA
ATOM     13  O   UNL     1     113.517 130.741 139.383  0.00  0.00    +0.000 OA
ENDROOT
BRANCH   1  19
ATOM     14  O   UNL     1     113.577 128.285 139.794  0.00  0.00    +0.000 OA
ATOM     15  C   UNL     1     113.255 127.803 140.609  0.00  0.00    +0.000 C 
ATOM     16  C   UNL     1     112.294 127.866 140.880  0.00  0.00    +0.000 C 
ATOM     17  C   UNL     1     111.656 128.412 140.338  0.00  0.00    +0.000 C 
ATOM     18  C   UNL     1     111.978 128.894 139.523  0.00  0.00    +0.000 C 
ATOM     19  C   UNL     1     112.938 128.831 139.251  0.00  0.00    +0.000 C 
ATOM     20  O   UNL     1     111.340 129.440 138.980  0.00  0.00    +0.000 OA
ATOM     21  O   UNL     1     111.972 127.384 141.695  0.00  0.00    +0.000 OA
ATOM     22  O   UNL     1     110.696 128.475 140.609  0.00  0.00    +0.000 OA
BRANCH  15  23
ATOM     23  C   UNL     1     113.893 127.257 141.151  0.00  0.00    +0.000 C 
ATOM     24  O   UNL     1     114.861 127.227 140.904  0.00  0.00    +0.000 OA
ENDBRANCH  15  23
ENDBRANCH   1  19
BRANCH  10  25
ATOM     25  C   UNL     1     112.746 126.458 136.543  0.00  0.00    +0.000 A 
ATOM     26  C   UNL     1     113.040 124.778 136.842  0.00  0.00    +0.000 A 
ATOM     27  C   UNL     1     113.329 125.733 136.908  0.00  0.00    +0.000 A 
ATOM     28  C   UNL     1     111.873 126.229 136.112  0.00  0.00    +0.000 A 
ATOM     29  C   UNL     1     111.584 125.274 136.046  0.00  0.00    +0.000 A 
ATOM     30  C   UNL     1     112.167 124.549 136.411  0.00  0.00    +0.000 A 
ATOM     31  O   UNL     1     111.877 123.594 136.345  0.00  0.00    +0.000 OA
BRANCH  29  32
ATOM     32  O   UNL     1     110.711 125.045 135.616  0.00  0.00    +0.000 OA
ATOM     33  C   UNL     1     110.196 125.748 135.124  0.00  0.00    +0.000 C 
ENDBRANCH  29  32
ENDBRANCH  10  25
TORSDOF 4
ENDMDL
MODEL 2
REMARK VINA RESULT:      -9.0      1.363      1.878
REMARK  Name = 
REMARK  4 active torsions:
REMARK  status: ('A' for Active; 'I' for Inactive)
REMARK    1  A    between atoms: C_1  and  C_26
REMARK    2  A    between atoms: C_10  and  C_11
REMARK    3  A    between atoms: C_15  and  O_30
REMARK    4  A    between atoms: C_22  and  C_32
REMARK                            x       y       z     vdW  Elec       q    Type
REMARK                         _______ _______ _______ _____ _____    ______ ____
ROOT
ATOM      1  C   UNL     1     112.203 129.865 137.500  0.00  0.00    +0.000 A 
ATOM      2  C   UNL     1     112.497 130.821 137.496  0.00  0.00    +0.000 A 
ATOM      3  C   UNL     1     113.293 131.097 136.957  0.00  0.00    +0.000 A 
ATOM      4  C   UNL     1     113.795 130.418 136.422  0.00  0.00    +0.000 A 
ATOM      5  C   UNL     1     113.501 129.462 136.425  0.00  0.00    +0.000 A 
ATOM      6  C   UNL     1     112.705 129.186 136.964  0.00  0.00    +0.000 A 
ATOM      7  O   UNL     1     112.411 128.230 136.968  0.00  0.00    +0.000 OA
ATOM      8  C   UNL     1     114.003 128.783 135.890  0.00  0.00    +0.000 A 
ATOM      9  C   UNL     1     113.709 127.827 135.894  0.00  0.00    +0.000 A 
ATOM     10  C   UNL     1     112.913 127.551 136.433  0.00  0.00    +0.000 A 
ATOM     11  O   UNL     1     114.591 130.694 135.883  0.00  0.00    +0.000 OA
ATOM     12  O   UNL     1     114.799 129.059 135.351  0.00  0.00    +0.000 OA
ATOM     13  O   UNL     1     111.995 131.500 138.031  0.00  0.00    +0.000 OA
ENDROOT
BRANCH   1  19
ATOM     14  O   UNL     1     111.528 129.264 138.977  0.00  0.00    +0.000 OA
ATOM     15  C   UNL     1     110.732 128.987 139.516  0.00  0.00    +0.000 C 
ATOM     16  C   UNL     1     109.816 129.036 139.116  0.00  0.00    +0.000 C 
ATOM     17  C   UNL     1     109.696 129.361 138.178  0.00  0.00    +0.000 C 
ATOM     18  C   UNL     1     110.492 129.637 137.639  0.00  0.00    +0.000 C 
ATOM     19  C   UNL     1     111.408 129.589 138.039  0.00  0.00    +0.000 C 
ATOM     20  O   UNL     1     110.372 129.962 136.701  0.00  0.00    +0.000 OA
ATOM     21  O   UNL     1     109.021 128.759 139.655  0.00  0.00    +0.000 OA
ATOM     22  O   UNL     1     108.781 129.409 137.779  0.00  0.00    +0.000 OA
BRANCH  15  23
ATOM     23  C   UNL     1     110.852 128.663 140.454  0.00  0.00    +0.000 C 
ATOM     24  O   UNL     1     111.769 128.598 140.847  0.00  0.00    +0.000 OA
ENDBRANCH  15  23
ENDBRANCH   1  19
BRANCH  10  25
ATOM     25  C   UNL     1     112.619 126.595 136.436  0.00  0.00    +0.000 A 
ATOM     26  C   UNL     1     112.877 124.948 136.907  0.00  0.00    +0.000 A 
ATOM     27  C   UNL     1     113.171 125.904 136.904  0.00  0.00    +0.000 A 
ATOM     28  C   UNL     1     111.774 126.330 135.972  0.00  0.00    +0.000 A 
ATOM     29  C   UNL     1     111.480 125.374 135.976  0.00  0.00    +0.000 A 
ATOM     30  C   UNL     1     112.032 124.683 136.443  0.00  0.00    +0.000 A 
ATOM     31  O   UNL     1     111.738 123.727 136.447  0.00  0.00    +0.000 OA
BRANCH  29  32
ATOM     32  O   UNL     1     110.635 125.109 135.512  0.00  0.00    +0.000 OA
ATOM     33  C   UNL     1     110.139 125.777 134.957  0.00  0.00    +0.000 C 
ENDBRANCH  29  32
ENDBRANCH  10  25
TORSDOF 4
ENDMDL
MODEL 3
REMARK VINA RESULT:      -9.0      1.956      4.669
REMARK  Name = 
REMARK  4 active torsions:
REMARK  status: ('A' for Active; 'I' for Inactive)
REMARK    1  A    between atoms: C_1  and  C_26
REMARK    2  A    between atoms: C_10  and  C_11
REMARK    3  A    between atoms: C_15  and  O_30
REMARK    4  A    between atoms: C_22  and  C_32
REMARK                            x       y       z     vdW  Elec       q    Type
REMARK                         _______ _______ _______ _____ _____    ______ ____
ROOT
ATOM      1  C   UNL     1     111.966 125.555 137.687  0.00  0.00    +0.000 A 
ATOM      2  C   UNL     1     112.161 124.584 137.549  0.00  0.00    +0.000 A 
ATOM      3  C   UNL     1     112.969 124.306 137.029  0.00  0.00    +0.000 A 
ATOM      4  C   UNL     1     113.582 124.998 136.648  0.00  0.00    +0.000 A 
ATOM      5  C   UNL     1     113.386 125.969 136.787  0.00  0.00    +0.000 A 
ATOM      6  C   UNL     1     112.578 126.248 137.306  0.00  0.00    +0.000 A 
ATOM      7  O   UNL     1     112.383 127.218 137.444  0.00  0.00    +0.000 OA
ATOM      8  C   UNL     1     113.999 126.662 136.406  0.00  0.00    +0.000 A 
ATOM      9  C   UNL     1     113.803 127.633 136.544  0.00  0.00    +0.000 A 
ATOM     10  C   UNL     1     112.995 127.911 137.063  0.00  0.00    +0.000 A 
ATOM     11  O   UNL     1     114.390 124.720 136.129  0.00  0.00    +0.000 OA
ATOM     12  O   UNL     1     114.807 126.384 135.886  0.00  0.00    +0.000 OA
ATOM     13  O   UNL     1     111.549 123.891 137.930  0.00  0.00    +0.000 OA
ENDROOT
BRANCH   1  19
ATOM     14  O   UNL     1     111.212 125.933 139.200  0.00  0.00    +0.000 OA
ATOM     15  C   UNL     1     110.404 126.211 139.719  0.00  0.00    +0.000 C 
ATOM     16  C   UNL     1     109.542 126.390 139.245  0.00  0.00    +0.000 C 
ATOM     17  C   UNL     1     109.488 126.290 138.251  0.00  0.00    +0.000 C 
ATOM     18  C   UNL     1     110.296 126.012 137.732  0.00  0.00    +0.000 C 
ATOM     19  C   UNL     1     111.158 125.833 138.206  0.00  0.00    +0.000 C 
ATOM     20  O   UNL     1     110.242 125.912 136.739  0.00  0.00    +0.000 OA
ATOM     21  O   UNL     1     108.734 126.668 139.764  0.00  0.00    +0.000 OA
ATOM     22  O   UNL     1     108.626 126.468 137.777  0.00  0.00    +0.000 OA
BRANCH  15  23
ATOM     23  C   UNL     1     110.458 126.311 140.713  0.00  0.00    +0.000 C 
ATOM     24  O   UNL     1     111.218 125.900 141.216  0.00  0.00    +0.000 OA
ENDBRANCH  15  23
ENDBRANCH   1  19
BRANCH  10  25
ATOM     25  C   UNL     1     112.800 128.882 137.202  0.00  0.00    +0.000 A 
ATOM     26  C   UNL     1     111.982 130.331 136.720  0.00  0.00    +0.000 A 
ATOM     27  C   UNL     1     112.177 129.360 136.582  0.00  0.00    +0.000 A 
ATOM     28  C   UNL     1     113.226 129.375 137.960  0.00  0.00    +0.000 A 
ATOM     29  C   UNL     1     113.031 130.346 138.098  0.00  0.00    +0.000 A 
ATOM     30  C   UNL     1     112.408 130.824 137.478  0.00  0.00    +0.000 A 
ATOM     31  O   UNL     1     112.213 131.794 137.617  0.00  0.00    +0.000 OA
BRANCH  29  32
ATOM     32  O   UNL     1     113.457 130.838 138.857  0.00  0.00    +0.000 OA
ATOM     33  C   UNL     1     114.247 130.445 139.327  0.00  0.00    +0.000 C 
ENDBRANCH  29  32
ENDBRANCH  10  25
TORSDOF 4
ENDMDL
MODEL 4
REMARK VINA RESULT:      -9.0      1.010      1.851
REMARK  Name = 
REMARK  4 active torsions:
REMARK  status: ('A' for Active; 'I' for Inactive)
REMARK    1  A    between atoms: C_1  and  C_26
REMARK    2  A    between atoms: C_10  and  C_11
REMARK    3  A    between atoms: C_15  and  O_30
REMARK    4  A    between atoms: C_22  and  C_32
REMARK                            x       y       z     vdW  Elec       q    Type
REMARK                         _______ _______ _______ _____ _____    ______ ____
ROOT
ATOM      1  C   UNL     1     112.842 129.645 137.779  0.00  0.00    +0.000 A 
ATOM      2  C   UNL     1     112.995 130.629 137.689  0.00  0.00    +0.000 A 
ATOM      3  C   UNL     1     113.549 130.982 136.935  0.00  0.00    +0.000 A 
ATOM      4  C   UNL     1     113.949 130.351 136.270  0.00  0.00    +0.000 A 
ATOM      5  C   UNL     1     113.795 129.367 136.360  0.00  0.00    +0.000 A 
ATOM      6  C   UNL     1     113.241 129.014 137.114  0.00  0.00    +0.000 A 
ATOM      7  O   UNL     1     113.088 128.030 137.203  0.00  0.00    +0.000 OA
ATOM      8  C   UNL     1     114.195 128.736 135.695  0.00  0.00    +0.000 A 
ATOM      9  C   UNL     1     114.041 127.752 135.784  0.00  0.00    +0.000 A 
ATOM     10  C   UNL     1     113.488 127.399 136.538  0.00  0.00    +0.000 A 
ATOM     11  O   UNL     1     114.503 130.704 135.516  0.00  0.00    +0.000 OA
ATOM     12  O   UNL     1     114.749 129.089 134.941  0.00  0.00    +0.000 OA
ATOM     13  O   UNL     1     112.596 131.260 138.354  0.00  0.00    +0.000 OA
ENDROOT
BRANCH   1  19
ATOM     14  O   UNL     1     111.302 129.173 138.416  0.00  0.00    +0.000 OA
ATOM     15  C   UNL     1     110.748 128.820 139.170  0.00  0.00    +0.000 C 
ATOM     16  C   UNL     1     111.180 128.585 140.041  0.00  0.00    +0.000 C 
ATOM     17  C   UNL     1     112.166 128.704 140.158  0.00  0.00    +0.000 C 
ATOM     18  C   UNL     1     112.720 129.057 139.403  0.00  0.00    +0.000 C 
ATOM     19  C   UNL     1     112.288 129.292 138.533  0.00  0.00    +0.000 C 
ATOM     20  O   UNL     1     113.706 129.176 139.520  0.00  0.00    +0.000 OA
ATOM     21  O   UNL     1     110.627 128.232 140.795  0.00  0.00    +0.000 OA
ATOM     22  O   UNL     1     112.599 128.470 141.028  0.00  0.00    +0.000 OA
BRANCH  15  23
ATOM     23  C   UNL     1     109.762 128.701 139.054  0.00  0.00    +0.000 C 
ATOM     24  O   UNL     1     109.362 128.711 138.137  0.00  0.00    +0.000 OA
ENDBRANCH  15  23
ENDBRANCH   1  19
BRANCH  10  25
ATOM     25  C   UNL     1     113.334 126.415 136.628  0.00  0.00    +0.000 A 
ATOM     26  C   UNL     1     113.897 124.844 137.093  0.00  0.00    +0.000 A 
ATOM     27  C   UNL     1     114.051 125.828 137.004  0.00  0.00    +0.000 A 
ATOM     28  C   UNL     1     112.462 126.017 136.341  0.00  0.00    +0.000 A 
ATOM     29  C   UNL     1     112.308 125.033 136.431  0.00  0.00    +0.000 A 
ATOM     30  C   UNL     1     113.026 124.447 136.807  0.00  0.00    +0.000 A 
ATOM     31  O   UNL     1     112.872 123.462 136.896  0.00  0.00    +0.000 OA
BRANCH  29  32
ATOM     32  O   UNL     1     111.437 124.635 136.144  0.00  0.00    +0.000 OA
ATOM     33  C   UNL     1     110.764 125.198 135.665  0.00  0.00    +0.000 C 
ENDBRANCH  29  32
ENDBRANCH  10  25
TORSDOF 4
ENDMDL
MODEL 5
REMARK VINA RESULT:      -9.0      2.188      4.147
REMARK  Name = 
REMARK  4 active torsions:
REMARK  status: ('A' for Active; 'I' for Inactive)
REMARK    1  A    between atoms: C_1  and  C_26
REMARK    2  A    between atoms: C_10  and  C_11
REMARK    3  A    between atoms: C_15  and  O_30
REMARK    4  A    between atoms: C_22  and  C_32
REMARK                            x       y       z     vdW  Elec       q    Type
REMARK                         _______ _______ _______ _____ _____    ______ ____
ROOT
ATOM      1  C   UNL     1     110.760 129.311 136.157  0.00  0.00    +0.000 A 
ATOM      2  C   UNL     1     110.125 130.065 135.986  0.00  0.00    +0.000 A 
ATOM      3  C   UNL     1     109.153 129.878 135.846  0.00  0.00    +0.000 A 
ATOM      4  C   UNL     1     108.815 128.937 135.877  0.00  0.00    +0.000 A 
ATOM      5  C   UNL     1     109.450 128.183 136.049  0.00  0.00    +0.000 A 
ATOM      6  C   UNL     1     110.422 128.370 136.189  0.00  0.00    +0.000 A 
ATOM      7  O   UNL     1     111.056 127.617 136.360  0.00  0.00    +0.000 OA
ATOM      8  C   UNL     1     109.112 127.243 136.080  0.00  0.00    +0.000 A 
ATOM      9  C   UNL     1     109.746 126.489 136.251  0.00  0.00    +0.000 A 
ATOM     10  C   UNL     1     110.719 126.676 136.391  0.00  0.00    +0.000 A 
ATOM     11  O   UNL     1     107.843 128.750 135.737  0.00  0.00    +0.000 OA
ATOM     12  O   UNL     1     108.139 127.055 135.940  0.00  0.00    +0.000 OA
ATOM     13  O   UNL     1     110.463 131.005 135.954  0.00  0.00    +0.000 OA
ENDROOT
BRANCH   1  19
ATOM     14  O   UNL     1     112.071 129.728 137.209  0.00  0.00    +0.000 OA
ATOM     15  C   UNL     1     113.043 129.915 137.349  0.00  0.00    +0.000 C 
ATOM     16  C   UNL     1     113.677 129.872 136.577  0.00  0.00    +0.000 C 
ATOM     17  C   UNL     1     113.338 129.642 135.664  0.00  0.00    +0.000 C 
ATOM     18  C   UNL     1     112.366 129.455 135.524  0.00  0.00    +0.000 C 
ATOM     19  C   UNL     1     111.732 129.498 136.297  0.00  0.00    +0.000 C 
ATOM     20  O   UNL     1     112.027 129.225 134.612  0.00  0.00    +0.000 OA
ATOM     21  O   UNL     1     114.649 130.059 136.717  0.00  0.00    +0.000 OA
ATOM     22  O   UNL     1     113.971 129.600 134.892  0.00  0.00    +0.000 OA
BRANCH  15  23
ATOM     23  C   UNL     1     113.382 130.145 138.261  0.00  0.00    +0.000 C 
ATOM     24  O   UNL     1     112.785 130.614 138.913  0.00  0.00    +0.000 OA
ENDBRANCH  15  23
ENDBRANCH   1  19
BRANCH  10  25
ATOM     25  C   UNL     1     111.353 125.922 136.563  0.00  0.00    +0.000 A 
ATOM     26  C   UNL     1     111.854 124.289 136.277  0.00  0.00    +0.000 A 
ATOM     27  C   UNL     1     111.220 125.043 136.106  0.00  0.00    +0.000 A 
ATOM     28  C   UNL     1     112.121 126.048 137.191  0.00  0.00    +0.000 A 
ATOM     29  C   UNL     1     112.756 125.295 137.362  0.00  0.00    +0.000 A 
ATOM     30  C   UNL     1     112.622 124.415 136.905  0.00  0.00    +0.000 A 
ATOM     31  O   UNL     1     113.257 123.662 137.077  0.00  0.00    +0.000 OA
BRANCH  29  32
ATOM     32  O   UNL     1     113.524 125.421 137.990  0.00  0.00    +0.000 OA
ATOM     33  C   UNL     1     113.610 126.270 138.510  0.00  0.00    +0.000 C 
ENDBRANCH  29  32
ENDBRANCH  10  25
TORSDOF 4
ENDMDL
MODEL 6
REMARK VINA RESULT:      -8.8      1.605      3.657
REMARK  Name = 
REMARK  4 active torsions:
REMARK  status: ('A' for Active; 'I' for Inactive)
REMARK    1  A    between atoms: C_1  and  C_26
REMARK    2  A    between atoms: C_10  and  C_11
REMARK    3  A    between atoms: C_15  and  O_30
REMARK    4  A    between atoms: C_22  and  C_32
REMARK                            x       y       z     vdW  Elec       q    Type
REMARK                         _______ _______ _______ _____ _____    ______ ____
ROOT
ATOM      1  C   UNL     1     112.627 129.341 138.558  0.00  0.00    +0.000 A 
ATOM      2  C   UNL     1     112.693 130.162 139.124  0.00  0.00    +0.000 A 
ATOM      3  C   UNL     1     113.149 130.121 140.013  0.00  0.00    +0.000 A 
ATOM      4  C   UNL     1     113.538 129.259 140.336  0.00  0.00    +0.000 A 
ATOM      5  C   UNL     1     113.472 128.437 139.770  0.00  0.00    +0.000 A 
ATOM      6  C   UNL     1     113.017 128.478 138.881  0.00  0.00    +0.000 A 
ATOM      7  O   UNL     1     112.951 127.657 138.314  0.00  0.00    +0.000 OA
ATOM      8  C   UNL     1     113.862 127.575 140.093  0.00  0.00    +0.000 A 
ATOM      9  C   UNL     1     113.796 126.753 139.526  0.00  0.00    +0.000 A 
ATOM     10  C   UNL     1     113.340 126.794 138.637  0.00  0.00    +0.000 A 
ATOM     11  O   UNL     1     113.994 129.218 141.225  0.00  0.00    +0.000 OA
ATOM     12  O   UNL     1     114.317 127.534 140.982  0.00  0.00    +0.000 OA
ATOM     13  O   UNL     1     112.304 131.025 138.801  0.00  0.00    +0.000 OA
ENDROOT
BRANCH   1  19
ATOM     14  O   UNL     1     111.187 129.221 137.603  0.00  0.00    +0.000 OA
ATOM     15  C   UNL     1     110.731 129.262 136.714  0.00  0.00    +0.000 C 
ATOM     16  C   UNL     1     111.261 129.464 135.890  0.00  0.00    +0.000 C 
ATOM     17  C   UNL     1     112.245 129.624 135.955  0.00  0.00    +0.000 C 
ATOM     18  C   UNL     1     112.701 129.583 136.844  0.00  0.00    +0.000 C 
ATOM     19  C   UNL     1     112.172 129.382 137.668  0.00  0.00    +0.000 C 
ATOM     20  O   UNL     1     113.686 129.744 136.909  0.00  0.00    +0.000 OA
ATOM     21  O   UNL     1     110.805 129.505 135.001  0.00  0.00    +0.000 OA
ATOM     22  O   UNL     1     112.775 129.826 135.131  0.00  0.00    +0.000 OA
BRANCH  15  23
ATOM     23  C   UNL     1     109.746 129.102 136.649  0.00  0.00    +0.000 C 
ATOM     24  O   UNL     1     109.249 128.722 137.429  0.00  0.00    +0.000 OA
ENDBRANCH  15  23
ENDBRANCH   1  19
BRANCH  10  25
ATOM     25  C   UNL     1     113.274 125.973 138.071  0.00  0.00    +0.000 A 
ATOM     26  C   UNL     1     114.026 124.607 137.316  0.00  0.00    +0.000 A 
ATOM     27  C   UNL     1     114.092 125.428 137.882  0.00  0.00    +0.000 A 
ATOM     28  C   UNL     1     112.391 125.695 137.693  0.00  0.00    +0.000 A 
ATOM     29  C   UNL     1     112.325 124.874 137.127  0.00  0.00    +0.000 A 
ATOM     30  C   UNL     1     113.142 124.330 136.938  0.00  0.00    +0.000 A 
ATOM     31  O   UNL     1     113.076 123.508 136.372  0.00  0.00    +0.000 OA
BRANCH  29  32
ATOM     32  O   UNL     1     111.441 124.597 136.749  0.00  0.00    +0.000 OA
ATOM     33  C   UNL     1     110.782 125.290 136.458  0.00  0.00    +0.000 C 
ENDBRANCH  29  32
ENDBRANCH  10  25
TORSDOF 4
ENDMDL
MODEL 7
REMARK VINA RESULT:      -8.6      2.230      4.036
REMARK  Name = 
REMARK  4 active torsions:
REMARK  status: ('A' for Active; 'I' for Inactive)
REMARK    1  A    between atoms: C_1  and  C_26
REMARK    2  A    between atoms: C_10  and  C_11
REMARK    3  A    between atoms: C_15  and  O_30
REMARK    4  A    between atoms: C_22  and  C_32
REMARK                            x       y       z     vdW  Elec       q    Type
REMARK                         _______ _______ _______ _____ _____    ______ ____
ROOT
ATOM      1  C   UNL     1     110.775 129.583 136.434  0.00  0.00    +0.000 A 
ATOM      2  C   UNL     1     110.123 130.322 136.267  0.00  0.00    +0.000 A 
ATOM      3  C   UNL     1     109.168 130.109 136.059  0.00  0.00    +0.000 A 
ATOM      4  C   UNL     1     108.866 129.157 136.018  0.00  0.00    +0.000 A 
ATOM      5  C   UNL     1     109.518 128.418 136.186  0.00  0.00    +0.000 A 
ATOM      6  C   UNL     1     110.472 128.631 136.394  0.00  0.00    +0.000 A 
ATOM      7  O   UNL     1     111.125 127.892 136.561  0.00  0.00    +0.000 OA
ATOM      8  C   UNL     1     109.215 127.466 136.145  0.00  0.00    +0.000 A 
ATOM      9  C   UNL     1     109.867 126.726 136.313  0.00  0.00    +0.000 A 
ATOM     10  C   UNL     1     110.822 126.939 136.521  0.00  0.00    +0.000 A 
ATOM     11  O   UNL     1     107.911 128.944 135.810  0.00  0.00    +0.000 OA
ATOM     12  O   UNL     1     108.261 127.253 135.937  0.00  0.00    +0.000 OA
ATOM     13  O   UNL     1     110.425 131.275 136.307  0.00  0.00    +0.000 OA
ENDROOT
BRANCH   1  19
ATOM     14  O   UNL     1     112.410 129.807 135.910  0.00  0.00    +0.000 OA
ATOM     15  C   UNL     1     113.365 130.020 136.118  0.00  0.00    +0.000 C 
ATOM     16  C   UNL     1     113.639 130.222 137.058  0.00  0.00    +0.000 C 
ATOM     17  C   UNL     1     112.958 130.211 137.791  0.00  0.00    +0.000 C 
ATOM     18  C   UNL     1     112.003 129.998 137.583  0.00  0.00    +0.000 C 
ATOM     19  C   UNL     1     111.729 129.796 136.642  0.00  0.00    +0.000 C 
ATOM     20  O   UNL     1     111.322 129.987 138.315  0.00  0.00    +0.000 OA
ATOM     21  O   UNL     1     114.593 130.435 137.267  0.00  0.00    +0.000 OA
ATOM     22  O   UNL     1     113.231 130.413 138.731  0.00  0.00    +0.000 OA
BRANCH  15  23
ATOM     23  C   UNL     1     114.046 130.032 135.386  0.00  0.00    +0.000 C 
ATOM     24  O   UNL     1     113.958 129.404 134.612  0.00  0.00    +0.000 OA
ENDBRANCH  15  23
ENDBRANCH   1  19
BRANCH  10  25
ATOM     25  C   UNL     1     111.474 126.200 136.688  0.00  0.00    +0.000 A 
ATOM     26  C   UNL     1     112.079 124.620 136.316  0.00  0.00    +0.000 A 
ATOM     27  C   UNL     1     111.427 125.359 136.149  0.00  0.00    +0.000 A 
ATOM     28  C   UNL     1     112.174 126.301 137.395  0.00  0.00    +0.000 A 
ATOM     29  C   UNL     1     112.826 125.562 137.563  0.00  0.00    +0.000 A 
ATOM     30  C   UNL     1     112.779 124.722 137.023  0.00  0.00    +0.000 A 
ATOM     31  O   UNL     1     113.431 123.982 137.191  0.00  0.00    +0.000 OA
BRANCH  29  32
ATOM     32  O   UNL     1     113.526 125.664 138.270  0.00  0.00    +0.000 OA
ATOM     33  C   UNL     1     113.506 126.453 138.884  0.00  0.00    +0.000 C 
ENDBRANCH  29  32
ENDBRANCH  10  25
TORSDOF 4
ENDMDL
MODEL 8
REMARK VINA RESULT:      -8.5      2.674      5.107
REMARK  Name = 
REMARK  4 active torsions:
REMARK  status: ('A' for Active; 'I' for Inactive)
REMARK    1  A    between atoms: C_1  and  C_26
REMARK    2  A    between atoms: C_10  and  C_11
REMARK    3  A    between atoms: C_15  and  O_30
REMARK    4  A    between atoms: C_22  and  C_32
REMARK                            x       y       z     vdW  Elec       q    Type
REMARK                         _______ _______ _______ _____ _____    ______ ____
ROOT
ATOM      1  C   UNL     1     112.283 127.404 136.409  0.00  0.00    +0.000 A 
ATOM      2  C   UNL     1     112.706 126.500 136.475  0.00  0.00    +0.000 A 
ATOM      3  C   UNL     1     112.205 125.690 136.170  0.00  0.00    +0.000 A 
ATOM      4  C   UNL     1     111.281 125.784 135.799  0.00  0.00    +0.000 A 
ATOM      5  C   UNL     1     110.859 126.688 135.733  0.00  0.00    +0.000 A 
ATOM      6  C   UNL     1     111.360 127.498 136.038  0.00  0.00    +0.000 A 
ATOM      7  O   UNL     1     110.937 128.402 135.971  0.00  0.00    +0.000 OA
ATOM      8  C   UNL     1     109.935 126.782 135.361  0.00  0.00    +0.000 A 
ATOM      9  C   UNL     1     109.512 127.686 135.295  0.00  0.00    +0.000 A 
ATOM     10  C   UNL     1     110.013 128.496 135.600  0.00  0.00    +0.000 A 
ATOM     11  O   UNL     1     110.780 124.974 135.494  0.00  0.00    +0.000 OA
ATOM     12  O   UNL     1     109.434 125.972 135.056  0.00  0.00    +0.000 OA
ATOM     13  O   UNL     1     113.630 126.406 136.846  0.00  0.00    +0.000 OA
ENDROOT
BRANCH   1  19
ATOM     14  O   UNL     1     113.366 128.713 136.072  0.00  0.00    +0.000 OA
ATOM     15  C   UNL     1     113.867 129.523 136.377  0.00  0.00    +0.000 C 
ATOM     16  C   UNL     1     113.787 129.834 137.324  0.00  0.00    +0.000 C 
ATOM     17  C   UNL     1     113.205 129.334 137.966  0.00  0.00    +0.000 C 
ATOM     18  C   UNL     1     112.704 128.524 137.661  0.00  0.00    +0.000 C 
ATOM     19  C   UNL     1     112.784 128.214 136.714  0.00  0.00    +0.000 C 
ATOM     20  O   UNL     1     112.122 128.025 138.303  0.00  0.00    +0.000 OA
ATOM     21  O   UNL     1     114.288 130.643 137.629  0.00  0.00    +0.000 OA
ATOM     22  O   UNL     1     113.124 129.645 138.913  0.00  0.00    +0.000 OA
BRANCH  15  23
ATOM     23  C   UNL     1     114.449 130.022 135.735  0.00  0.00    +0.000 C 
ATOM     24  O   UNL     1     114.652 129.632 134.837  0.00  0.00    +0.000 OA
ENDBRANCH  15  23
ENDBRANCH   1  19
BRANCH  10  25
ATOM     25  C   UNL     1     109.591 129.400 135.534  0.00  0.00    +0.000 A 
ATOM     26  C   UNL     1     109.221 130.819 134.612  0.00  0.00    +0.000 A 
ATOM     27  C   UNL     1     109.643 129.915 134.678  0.00  0.00    +0.000 A 
ATOM     28  C   UNL     1     109.115 129.788 136.323  0.00  0.00    +0.000 A 
ATOM     29  C   UNL     1     108.693 130.692 136.257  0.00  0.00    +0.000 A 
ATOM     30  C   UNL     1     108.745 131.207 135.401  0.00  0.00    +0.000 A 
ATOM     31  O   UNL     1     108.323 132.111 135.335  0.00  0.00    +0.000 OA
BRANCH  29  32
ATOM     32  O   UNL     1     108.217 131.081 137.046  0.00  0.00    +0.000 OA
ATOM     33  C   UNL     1     108.687 131.154 137.926  0.00  0.00    +0.000 C 
ENDBRANCH  29  32
ENDBRANCH  10  25
TORSDOF 4
ENDMDL
MODEL 9
REMARK VINA RESULT:      -8.5      2.058      4.768
REMARK  Name = 
REMARK  4 active torsions:
REMARK  status: ('A' for Active; 'I' for Inactive)
REMARK    1  A    between atoms: C_1  and  C_26
REMARK    2  A    between atoms: C_10  and  C_11
REMARK    3  A    between atoms: C_15  and  O_30
REMARK    4  A    between atoms: C_22  and  C_32
REMARK                            x       y       z     vdW  Elec       q    Type
REMARK                         _______ _______ _______ _____ _____    ______ ____
ROOT
ATOM      1  C   UNL     1     110.701 128.127 135.965  0.00  0.00    +0.000 A 
ATOM      2  C   UNL     1     110.259 128.063 135.070  0.00  0.00    +0.000 A 
ATOM      3  C   UNL     1     110.142 127.172 134.632  0.00  0.00    +0.000 A 
ATOM      4  C   UNL     1     110.467 126.344 135.089  0.00  0.00    +0.000 A 
ATOM      5  C   UNL     1     110.909 126.408 135.984  0.00  0.00    +0.000 A 
ATOM      6  C   UNL     1     111.026 127.299 136.422  0.00  0.00    +0.000 A 
ATOM      7  O   UNL     1     111.468 127.363 137.316  0.00  0.00    +0.000 OA
ATOM      8  C   UNL     1     111.234 125.580 136.441  0.00  0.00    +0.000 A 
ATOM      9  C   UNL     1     111.676 125.643 137.336  0.00  0.00    +0.000 A 
ATOM     10  C   UNL     1     111.793 126.535 137.773  0.00  0.00    +0.000 A 
ATOM     11  O   UNL     1     110.351 125.452 134.651  0.00  0.00    +0.000 OA
ATOM     12  O   UNL     1     111.118 124.688 136.003  0.00  0.00    +0.000 OA
ATOM     13  O   UNL     1     109.934 128.891 134.613  0.00  0.00    +0.000 OA
ENDROOT
BRANCH   1  19
ATOM     14  O   UNL     1     110.106 129.375 137.008  0.00  0.00    +0.000 OA
ATOM     15  C   UNL     1     110.223 130.266 137.446  0.00  0.00    +0.000 C 
ATOM     16  C   UNL     1     111.051 130.801 137.278  0.00  0.00    +0.000 C 
ATOM     17  C   UNL     1     111.762 130.445 136.672  0.00  0.00    +0.000 C 
ATOM     18  C   UNL     1     111.645 129.553 136.234  0.00  0.00    +0.000 C 
ATOM     19  C   UNL     1     110.817 129.018 136.402  0.00  0.00    +0.000 C 
ATOM     20  O   UNL     1     112.357 129.197 135.629  0.00  0.00    +0.000 OA
ATOM     21  O   UNL     1     111.167 131.693 137.715  0.00  0.00    +0.000 OA
ATOM     22  O   UNL     1     112.590 130.980 136.504  0.00  0.00    +0.000 OA
BRANCH  15  23
ATOM     23  C   UNL     1     109.511 130.623 138.051  0.00  0.00    +0.000 C 
ATOM     24  O   UNL     1     108.589 130.238 138.020  0.00  0.00    +0.000 OA
ENDBRANCH  15  23
ENDBRANCH   1  19
BRANCH  10  25
ATOM     25  C   UNL     1     112.235 126.599 138.668  0.00  0.00    +0.000 A 
ATOM     26  C   UNL     1     113.657 126.848 139.624  0.00  0.00    +0.000 A 
ATOM     27  C   UNL     1     113.215 126.785 138.730  0.00  0.00    +0.000 A 
ATOM     28  C   UNL     1     111.696 126.476 139.502  0.00  0.00    +0.000 A 
ATOM     29  C   UNL     1     112.138 126.540 140.397  0.00  0.00    +0.000 A 
ATOM     30  C   UNL     1     113.118 126.726 140.458  0.00  0.00    +0.000 A 
ATOM     31  O   UNL     1     113.560 126.790 141.353  0.00  0.00    +0.000 OA
BRANCH  29  32
ATOM     32  O   UNL     1     111.599 126.417 141.230  0.00  0.00    +0.000 OA
ATOM     33  C   UNL     1     110.639 126.695 141.250  0.00  0.00    +0.000 C 
ENDBRANCH  29  32
ENDBRANCH  10  25
TORSDOF 4
ENDMDL
