MODEL 1
REMARK VINA RESULT:      -8.3      0.000      0.000
REMARK  Name = 131834090
REMARK  2 active torsions:
REMARK  status: ('A' for Active; 'I' for Inactive)
REMARK    1  A    between atoms: O_5  and  C_18
REMARK    2  A    between atoms: C_7  and  C_11
REMARK                            x       y       z     vdW  Elec       q    Type
REMARK                         _______ _______ _______ _____ _____    ______ ____
ROOT
ATOM      1  O   UNL     1     105.539 124.450 147.841  0.00  0.00    +0.000 OA
ATOM      2  O   UNL     1     105.293 125.263 145.830  0.00  0.00    +0.000 OA
ATOM      3  O   UNL     1     108.045 125.593 146.967  0.00  0.00    +0.000 OA
ATOM      4  O   UNL     1     107.850 124.367 149.611  0.00  0.00    +0.000 OA
ATOM      5  C   UNL     1     105.640 125.051 146.548  0.00  0.00    +0.000 C 
ATOM      6  C   UNL     1     105.193 124.662 147.122  0.00  0.00    +0.000 C 
ATOM      7  C   UNL     1     106.433 125.227 146.692  0.00  0.00    +0.000 C 
ATOM      8  C   UNL     1     106.779 125.015 147.409  0.00  0.00    +0.000 A 
ATOM      9  C   UNL     1     106.332 124.626 147.984  0.00  0.00    +0.000 A 
ATOM     10  C   UNL     1     107.606 125.204 147.547  0.00  0.00    +0.000 A 
ATOM     11  C   UNL     1     106.682 124.400 148.736  0.00  0.00    +0.000 A 
ATOM     12  C   UNL     1     107.972 124.985 148.293  0.00  0.00    +0.000 A 
ATOM     13  C   UNL     1     107.507 124.581 148.891  0.00  0.00    +0.000 A 
ENDROOT
BRANCH   6  14
ATOM     14  C   UNL     1     104.400 124.486 146.979  0.00  0.00    +0.000 A 
ATOM     15  C   UNL     1     104.194 123.771 146.623  0.00  0.00    +0.000 A 
ATOM     16  C   UNL     1     103.813 125.026 147.192  0.00  0.00    +0.000 A 
ATOM     17  C   UNL     1     103.400 123.595 146.481  0.00  0.00    +0.000 A 
ATOM     18  C   UNL     1     103.020 124.849 147.049  0.00  0.00    +0.000 A 
ATOM     19  C   UNL     1     102.813 124.134 146.694  0.00  0.00    +0.000 A 
BRANCH  17  20
ATOM     20  O   UNL     1     103.193 122.880 146.125  0.00  0.00    +0.000 OA
ATOM     21  C   UNL     1     102.571 122.852 145.585  0.00  0.00    +0.000 C 
ENDBRANCH  17  20
ENDBRANCH   6  14
TORSDOF 2
ENDMDL
MODEL 2
REMARK VINA RESULT:      -7.9     12.043     13.514
REMARK  Name = 131834090
REMARK  2 active torsions:
REMARK  status: ('A' for Active; 'I' for Inactive)
REMARK    1  A    between atoms: O_5  and  C_18
REMARK    2  A    between atoms: C_7  and  C_11
REMARK                            x       y       z     vdW  Elec       q    Type
REMARK                         _______ _______ _______ _____ _____    ______ ____
ROOT
ATOM      1  O   UNL     1     112.167 126.360 136.063  0.00  0.00    +0.000 OA
ATOM      2  O   UNL     1     111.990 124.228 136.497  0.00  0.00    +0.000 OA
ATOM      3  O   UNL     1     109.710 125.359 134.919  0.00  0.00    +0.000 OA
ATOM      4  O   UNL     1     110.415 128.177 134.612  0.00  0.00    +0.000 OA
ATOM      5  C   UNL     1     111.818 124.981 136.210  0.00  0.00    +0.000 C 
ATOM      6  C   UNL     1     112.340 125.605 136.350  0.00  0.00    +0.000 C 
ATOM      7  C   UNL     1     111.124 125.112 135.783  0.00  0.00    +0.000 C 
ATOM      8  C   UNL     1     110.952 125.866 135.497  0.00  0.00    +0.000 A 
ATOM      9  C   UNL     1     111.473 126.489 135.636  0.00  0.00    +0.000 A 
ATOM     10  C   UNL     1     110.225 125.989 135.054  0.00  0.00    +0.000 A 
ATOM     11  C   UNL     1     111.305 127.280 135.342  0.00  0.00    +0.000 A 
ATOM     12  C   UNL     1     110.040 126.772 134.752  0.00  0.00    +0.000 A 
ATOM     13  C   UNL     1     110.584 127.421 134.898  0.00  0.00    +0.000 A 
ENDROOT
BRANCH   6  14
ATOM     14  C   UNL     1     113.034 125.475 136.776  0.00  0.00    +0.000 A 
ATOM     15  C   UNL     1     113.075 125.687 137.572  0.00  0.00    +0.000 A 
ATOM     16  C   UNL     1     113.687 125.133 136.405  0.00  0.00    +0.000 A 
ATOM     17  C   UNL     1     113.770 125.557 137.998  0.00  0.00    +0.000 A 
ATOM     18  C   UNL     1     114.381 125.003 136.832  0.00  0.00    +0.000 A 
ATOM     19  C   UNL     1     114.423 125.215 137.628  0.00  0.00    +0.000 A 
BRANCH  17  20
ATOM     20  O   UNL     1     113.812 125.769 138.794  0.00  0.00    +0.000 OA
ATOM     21  C   UNL     1     113.697 126.555 139.018  0.00  0.00    +0.000 C 
ENDBRANCH  17  20
ENDBRANCH   6  14
TORSDOF 2
ENDMDL
MODEL 3
REMARK VINA RESULT:      -7.8      0.921      4.242
REMARK  Name = 131834090
REMARK  2 active torsions:
REMARK  status: ('A' for Active; 'I' for Inactive)
REMARK    1  A    between atoms: O_5  and  C_18
REMARK    2  A    between atoms: C_7  and  C_11
REMARK                            x       y       z     vdW  Elec       q    Type
REMARK                         _______ _______ _______ _____ _____    ______ ____
ROOT
ATOM      1  O   UNL     1     104.981 124.153 146.857  0.00  0.00    +0.000 OA
ATOM      2  O   UNL     1     104.763 125.649 148.431  0.00  0.00    +0.000 OA
ATOM      3  O   UNL     1     102.177 124.755 147.212  0.00  0.00    +0.000 OA
ATOM      4  O   UNL     1     103.002 122.797 145.207  0.00  0.00    +0.000 OA
ATOM      5  C   UNL     1     104.573 125.110 147.837  0.00  0.00    +0.000 C 
ATOM      6  C   UNL     1     105.171 124.692 147.452  0.00  0.00    +0.000 C 
ATOM      7  C   UNL     1     103.784 124.988 147.626  0.00  0.00    +0.000 C 
ATOM      8  C   UNL     1     103.594 124.450 147.032  0.00  0.00    +0.000 A 
ATOM      9  C   UNL     1     104.193 124.032 146.647  0.00  0.00    +0.000 A 
ATOM     10  C   UNL     1     102.769 124.332 146.821  0.00  0.00    +0.000 A 
ATOM     11  C   UNL     1     104.007 123.468 146.026  0.00  0.00    +0.000 A 
ATOM     12  C   UNL     1     102.565 123.772 146.203  0.00  0.00    +0.000 A 
ATOM     13  C   UNL     1     103.188 123.337 145.802  0.00  0.00    +0.000 A 
ENDROOT
BRANCH   6  14
ATOM     14  C   UNL     1     105.960 124.813 147.662  0.00  0.00    +0.000 A 
ATOM     15  C   UNL     1     106.285 124.404 148.301  0.00  0.00    +0.000 A 
ATOM     16  C   UNL     1     106.424 125.344 147.233  0.00  0.00    +0.000 A 
ATOM     17  C   UNL     1     107.074 124.526 148.510  0.00  0.00    +0.000 A 
ATOM     18  C   UNL     1     107.213 125.464 147.443  0.00  0.00    +0.000 A 
ATOM     19  C   UNL     1     107.537 125.055 148.081  0.00  0.00    +0.000 A 
BRANCH  17  20
ATOM     20  O   UNL     1     107.398 124.117 149.149  0.00  0.00    +0.000 OA
ATOM     21  C   UNL     1     107.982 124.470 149.612  0.00  0.00    +0.000 C 
ENDBRANCH  17  20
ENDBRANCH   6  14
TORSDOF 2
ENDMDL
MODEL 4
REMARK VINA RESULT:      -7.7      1.123      4.184
REMARK  Name = 131834090
REMARK  2 active torsions:
REMARK  status: ('A' for Active; 'I' for Inactive)
REMARK    1  A    between atoms: O_5  and  C_18
REMARK    2  A    between atoms: C_7  and  C_11
REMARK                            x       y       z     vdW  Elec       q    Type
REMARK                         _______ _______ _______ _____ _____    ______ ____
ROOT
ATOM      1  O   UNL     1     104.166 124.944 147.761  0.00  0.00    +0.000 OA
ATOM      2  O   UNL     1     105.374 124.039 146.184  0.00  0.00    +0.000 OA
ATOM      3  O   UNL     1     102.421 123.682 145.834  0.00  0.00    +0.000 OA
ATOM      4  O   UNL     1     101.282 125.043 148.154  0.00  0.00    +0.000 OA
ATOM      5  C   UNL     1     104.718 124.276 146.624  0.00  0.00    +0.000 C 
ATOM      6  C   UNL     1     104.822 124.706 147.320  0.00  0.00    +0.000 C 
ATOM      7  C   UNL     1     103.958 124.083 146.368  0.00  0.00    +0.000 C 
ATOM      8  C   UNL     1     103.302 124.320 146.808  0.00  0.00    +0.000 A 
ATOM      9  C   UNL     1     103.406 124.750 147.504  0.00  0.00    +0.000 A 
ATOM     10  C   UNL     1     102.515 124.112 146.531  0.00  0.00    +0.000 A 
ATOM     11  C   UNL     1     102.730 125.003 147.972  0.00  0.00    +0.000 A 
ATOM     12  C   UNL     1     101.828 124.356 146.986  0.00  0.00    +0.000 A 
ATOM     13  C   UNL     1     101.936 124.804 147.710  0.00  0.00    +0.000 A 
ENDROOT
BRANCH   6  14
ATOM     14  C   UNL     1     105.582 124.900 147.576  0.00  0.00    +0.000 A 
ATOM     15  C   UNL     1     105.956 124.437 148.148  0.00  0.00    +0.000 A 
ATOM     16  C   UNL     1     105.969 125.558 147.260  0.00  0.00    +0.000 A 
ATOM     17  C   UNL     1     106.716 124.632 148.403  0.00  0.00    +0.000 A 
ATOM     18  C   UNL     1     106.728 125.751 147.517  0.00  0.00    +0.000 A 
ATOM     19  C   UNL     1     107.102 125.288 148.088  0.00  0.00    +0.000 A 
BRANCH  17  20
ATOM     20  O   UNL     1     107.090 124.168 148.975  0.00  0.00    +0.000 OA
ATOM     21  C   UNL     1     107.779 124.438 149.338  0.00  0.00    +0.000 C 
ENDBRANCH  17  20
ENDBRANCH   6  14
TORSDOF 2
ENDMDL
MODEL 5
REMARK VINA RESULT:      -7.7     12.485     13.823
REMARK  Name = 131834090
REMARK  2 active torsions:
REMARK  status: ('A' for Active; 'I' for Inactive)
REMARK    1  A    between atoms: O_5  and  C_18
REMARK    2  A    between atoms: C_7  and  C_11
REMARK                            x       y       z     vdW  Elec       q    Type
REMARK                         _______ _______ _______ _____ _____    ______ ____
ROOT
ATOM      1  O   UNL     1     113.864 127.161 136.222  0.00  0.00    +0.000 OA
ATOM      2  O   UNL     1     112.900 126.768 138.141  0.00  0.00    +0.000 OA
ATOM      3  O   UNL     1     112.957 129.658 137.358  0.00  0.00    +0.000 OA
ATOM      4  O   UNL     1     114.321 129.647 134.775  0.00  0.00    +0.000 OA
ATOM      5  C   UNL     1     113.196 127.172 137.486  0.00  0.00    +0.000 C 
ATOM      6  C   UNL     1     113.568 126.757 136.878  0.00  0.00    +0.000 C 
ATOM      7  C   UNL     1     113.120 127.993 137.438  0.00  0.00    +0.000 C 
ATOM      8  C   UNL     1     113.416 128.397 136.783  0.00  0.00    +0.000 A 
ATOM      9  C   UNL     1     113.788 127.981 136.175  0.00  0.00    +0.000 A 
ATOM     10  C   UNL     1     113.330 129.251 136.745  0.00  0.00    +0.000 A 
ATOM     11  C   UNL     1     114.100 128.391 135.487  0.00  0.00    +0.000 A 
ATOM     12  C   UNL     1     113.636 129.678 136.065  0.00  0.00    +0.000 A 
ATOM     13  C   UNL     1     114.024 129.245 135.432  0.00  0.00    +0.000 A 
ENDROOT
BRANCH   6  14
ATOM     14  C   UNL     1     113.645 125.937 136.925  0.00  0.00    +0.000 A 
ATOM     15  C   UNL     1     113.049 125.449 136.630  0.00  0.00    +0.000 A 
ATOM     16  C   UNL     1     114.318 125.605 137.268  0.00  0.00    +0.000 A 
ATOM     17  C   UNL     1     113.126 124.628 136.677  0.00  0.00    +0.000 A 
ATOM     18  C   UNL     1     114.395 124.785 137.315  0.00  0.00    +0.000 A 
ATOM     19  C   UNL     1     113.799 124.297 137.020  0.00  0.00    +0.000 A 
BRANCH  17  20
ATOM     20  O   UNL     1     112.530 124.140 136.382  0.00  0.00    +0.000 OA
ATOM     21  C   UNL     1     112.172 123.582 136.873  0.00  0.00    +0.000 C 
ENDBRANCH  17  20
ENDBRANCH   6  14
TORSDOF 2
ENDMDL
MODEL 6
REMARK VINA RESULT:      -7.6      8.586      9.912
REMARK  Name = 131834090
REMARK  2 active torsions:
REMARK  status: ('A' for Active; 'I' for Inactive)
REMARK    1  A    between atoms: O_5  and  C_18
REMARK    2  A    between atoms: C_7  and  C_11
REMARK                            x       y       z     vdW  Elec       q    Type
REMARK                         _______ _______ _______ _____ _____    ______ ____
ROOT
ATOM      1  O   UNL     1     102.052 130.930 140.986  0.00  0.00    +0.000 OA
ATOM      2  O   UNL     1     102.795 131.316 143.002  0.00  0.00    +0.000 OA
ATOM      3  O   UNL     1     103.834 128.793 141.766  0.00  0.00    +0.000 OA
ATOM      4  O   UNL     1     102.568 128.742 139.135  0.00  0.00    +0.000 OA
ATOM      5  C   UNL     1     102.674 130.950 142.273  0.00  0.00    +0.000 C 
ATOM      6  C   UNL     1     102.173 131.296 141.717  0.00  0.00    +0.000 C 
ATOM      7  C   UNL     1     103.054 130.238 142.100  0.00  0.00    +0.000 C 
ATOM      8  C   UNL     1     102.933 129.872 141.371  0.00  0.00    +0.000 A 
ATOM      9  C   UNL     1     102.432 130.218 140.815  0.00  0.00    +0.000 A 
ATOM     10  C   UNL     1     103.335 129.131 141.203  0.00  0.00    +0.000 A 
ATOM     11  C   UNL     1     102.298 129.846 140.051  0.00  0.00    +0.000 A 
ATOM     12  C   UNL     1     103.213 128.745 140.446  0.00  0.00    +0.000 A 
ATOM     13  C   UNL     1     102.691 129.105 139.866  0.00  0.00    +0.000 A 
ENDROOT
BRANCH   6  14
ATOM     14  C   UNL     1     101.793 132.007 141.888  0.00  0.00    +0.000 A 
ATOM     15  C   UNL     1     102.114 132.721 141.628  0.00  0.00    +0.000 A 
ATOM     16  C   UNL     1     101.090 132.005 142.322  0.00  0.00    +0.000 A 
ATOM     17  C   UNL     1     101.733 133.432 141.800  0.00  0.00    +0.000 A 
ATOM     18  C   UNL     1     100.710 132.716 142.494  0.00  0.00    +0.000 A 
ATOM     19  C   UNL     1     101.031 133.430 142.233  0.00  0.00    +0.000 A 
BRANCH  17  20
ATOM     20  O   UNL     1     102.054 134.146 141.539  0.00  0.00    +0.000 OA
ATOM     21  C   UNL     1     101.974 134.827 141.997  0.00  0.00    +0.000 C 
ENDBRANCH  17  20
ENDBRANCH   6  14
TORSDOF 2
ENDMDL
MODEL 7
REMARK VINA RESULT:      -7.5      6.510      7.659
REMARK  Name = 131834090
REMARK  2 active torsions:
REMARK  status: ('A' for Active; 'I' for Inactive)
REMARK    1  A    between atoms: O_5  and  C_18
REMARK    2  A    between atoms: C_7  and  C_11
REMARK                            x       y       z     vdW  Elec       q    Type
REMARK                         _______ _______ _______ _____ _____    ______ ____
ROOT
ATOM      1  O   UNL     1     104.956 124.865 140.014  0.00  0.00    +0.000 OA
ATOM      2  O   UNL     1     105.391 122.739 139.773  0.00  0.00    +0.000 OA
ATOM      3  O   UNL     1     107.160 124.145 141.740  0.00  0.00    +0.000 OA
ATOM      4  O   UNL     1     106.189 126.899 141.694  0.00  0.00    +0.000 OA
ATOM      5  C   UNL     1     105.435 123.518 140.040  0.00  0.00    +0.000 C 
ATOM      6  C   UNL     1     104.912 124.085 139.747  0.00  0.00    +0.000 C 
ATOM      7  C   UNL     1     106.002 123.731 140.601  0.00  0.00    +0.000 C 
ATOM      8  C   UNL     1     106.046 124.509 140.868  0.00  0.00    +0.000 A 
ATOM      9  C   UNL     1     105.523 125.076 140.575  0.00  0.00    +0.000 A 
ATOM     10  C   UNL     1     106.641 124.719 141.452  0.00  0.00    +0.000 A 
ATOM     11  C   UNL     1     105.560 125.892 140.845  0.00  0.00    +0.000 A 
ATOM     12  C   UNL     1     106.692 125.528 141.734  0.00  0.00    +0.000 A 
ATOM     13  C   UNL     1     106.148 126.119 141.429  0.00  0.00    +0.000 A 
ENDROOT
BRANCH   6  14
ATOM     14  C   UNL     1     104.345 123.873 139.186  0.00  0.00    +0.000 A 
ATOM     15  C   UNL     1     104.551 123.823 138.389  0.00  0.00    +0.000 A 
ATOM     16  C   UNL     1     103.571 123.712 139.424  0.00  0.00    +0.000 A 
ATOM     17  C   UNL     1     103.983 123.611 137.829  0.00  0.00    +0.000 A 
ATOM     18  C   UNL     1     103.004 123.500 138.863  0.00  0.00    +0.000 A 
ATOM     19  C   UNL     1     103.210 123.450 138.066  0.00  0.00    +0.000 A 
BRANCH  17  20
ATOM     20  O   UNL     1     104.189 123.561 137.032  0.00  0.00    +0.000 OA
ATOM     21  C   UNL     1     103.810 123.017 136.541  0.00  0.00    +0.000 C 
ENDBRANCH  17  20
ENDBRANCH   6  14
TORSDOF 2
ENDMDL
MODEL 8
REMARK VINA RESULT:      -7.4     13.056     13.942
REMARK  Name = 131834090
REMARK  2 active torsions:
REMARK  status: ('A' for Active; 'I' for Inactive)
REMARK    1  A    between atoms: O_5  and  C_18
REMARK    2  A    between atoms: C_7  and  C_11
REMARK                            x       y       z     vdW  Elec       q    Type
REMARK                         _______ _______ _______ _____ _____    ______ ____
ROOT
ATOM      1  O   UNL     1     113.896 126.928 136.732  0.00  0.00    +0.000 OA
ATOM      2  O   UNL     1     112.011 127.684 135.932  0.00  0.00    +0.000 OA
ATOM      3  O   UNL     1     112.051 124.727 136.409  0.00  0.00    +0.000 OA
ATOM      4  O   UNL     1     114.733 124.234 137.456  0.00  0.00    +0.000 OA
ATOM      5  C   UNL     1     112.582 127.164 136.220  0.00  0.00    +0.000 C 
ATOM      6  C   UNL     1     113.323 127.448 136.443  0.00  0.00    +0.000 C 
ATOM      7  C   UNL     1     112.413 126.359 136.285  0.00  0.00    +0.000 C 
ATOM      8  C   UNL     1     112.984 125.839 136.573  0.00  0.00    +0.000 A 
ATOM      9  C   UNL     1     113.725 126.123 136.796  0.00  0.00    +0.000 A 
ATOM     10  C   UNL     1     112.795 125.002 136.635  0.00  0.00    +0.000 A 
ATOM     11  C   UNL     1     114.329 125.591 137.098  0.00  0.00    +0.000 A 
ATOM     12  C   UNL     1     113.386 124.456 136.935  0.00  0.00    +0.000 A 
ATOM     13  C   UNL     1     114.158 124.752 137.167  0.00  0.00    +0.000 A 
ENDROOT
BRANCH   6  14
ATOM     14  C   UNL     1     113.494 128.253 136.379  0.00  0.00    +0.000 A 
ATOM     15  C   UNL     1     113.355 128.757 137.017  0.00  0.00    +0.000 A 
ATOM     16  C   UNL     1     113.803 128.553 135.675  0.00  0.00    +0.000 A 
ATOM     17  C   UNL     1     113.526 129.561 136.951  0.00  0.00    +0.000 A 
ATOM     18  C   UNL     1     113.973 129.358 135.610  0.00  0.00    +0.000 A 
ATOM     19  C   UNL     1     113.835 129.862 136.248  0.00  0.00    +0.000 A 
BRANCH  17  20
ATOM     20  O   UNL     1     113.387 130.065 137.589  0.00  0.00    +0.000 OA
ATOM     21  C   UNL     1     113.958 130.619 137.810  0.00  0.00    +0.000 C 
ENDBRANCH  17  20
ENDBRANCH   6  14
TORSDOF 2
ENDMDL
MODEL 9
REMARK VINA RESULT:      -7.3      1.605      2.920
REMARK  Name = 131834090
REMARK  2 active torsions:
REMARK  status: ('A' for Active; 'I' for Inactive)
REMARK    1  A    between atoms: O_5  and  C_18
REMARK    2  A    between atoms: C_7  and  C_11
REMARK                            x       y       z     vdW  Elec       q    Type
REMARK                         _______ _______ _______ _____ _____    ______ ____
ROOT
ATOM      1  O   UNL     1     103.379 124.042 146.883  0.00  0.00    +0.000 OA
ATOM      2  O   UNL     1     101.684 125.070 147.795  0.00  0.00    +0.000 OA
ATOM      3  O   UNL     1     104.342 126.326 148.367  0.00  0.00    +0.000 OA
ATOM      4  O   UNL     1     106.234 124.609 146.951  0.00  0.00    +0.000 OA
ATOM      5  C   UNL     1     102.457 124.885 147.577  0.00  0.00    +0.000 C 
ATOM      6  C   UNL     1     102.604 124.227 147.101  0.00  0.00    +0.000 C 
ATOM      7  C   UNL     1     103.083 125.356 147.835  0.00  0.00    +0.000 C 
ATOM      8  C   UNL     1     103.856 125.171 147.616  0.00  0.00    +0.000 A 
ATOM      9  C   UNL     1     104.004 124.514 147.140  0.00  0.00    +0.000 A 
ATOM     10  C   UNL     1     104.500 125.670 147.891  0.00  0.00    +0.000 A 
ATOM     11  C   UNL     1     104.806 124.310 146.906  0.00  0.00    +0.000 A 
ATOM     12  C   UNL     1     105.307 125.482 147.667  0.00  0.00    +0.000 A 
ATOM     13  C   UNL     1     105.461 124.798 147.171  0.00  0.00    +0.000 A 
ENDROOT
BRANCH   6  14
ATOM     14  C   UNL     1     101.979 123.755 146.843  0.00  0.00    +0.000 A 
ATOM     15  C   UNL     1     101.699 123.826 146.071  0.00  0.00    +0.000 A 
ATOM     16  C   UNL     1     101.634 123.211 147.359  0.00  0.00    +0.000 A 
ATOM     17  C   UNL     1     101.074 123.353 145.814  0.00  0.00    +0.000 A 
ATOM     18  C   UNL     1     101.008 122.739 147.102  0.00  0.00    +0.000 A 
ATOM     19  C   UNL     1     100.728 122.810 146.329  0.00  0.00    +0.000 A 
BRANCH  17  20
ATOM     20  O   UNL     1     100.794 123.425 145.041  0.00  0.00    +0.000 OA
ATOM     21  C   UNL     1     100.749 122.760 144.555  0.00  0.00    +0.000 C 
ENDBRANCH  17  20
ENDBRANCH   6  14
TORSDOF 2
ENDMDL
MODEL 10
REMARK VINA RESULT:      -7.3     12.807     13.872
REMARK  Name = 131834090
REMARK  2 active torsions:
REMARK  status: ('A' for Active; 'I' for Inactive)
REMARK    1  A    between atoms: O_5  and  C_18
REMARK    2  A    between atoms: C_7  and  C_11
REMARK                            x       y       z     vdW  Elec       q    Type
REMARK                         _______ _______ _______ _____ _____    ______ ____
ROOT
ATOM      1  O   UNL     1     111.885 127.362 135.758  0.00  0.00    +0.000 OA
ATOM      2  O   UNL     1     113.487 126.778 137.121  0.00  0.00    +0.000 OA
ATOM      3  O   UNL     1     111.598 124.563 136.418  0.00  0.00    +0.000 OA
ATOM      4  O   UNL     1     109.686 125.835 134.613  0.00  0.00    +0.000 OA
ATOM      5  C   UNL     1     112.818 126.735 136.641  0.00  0.00    +0.000 C 
ATOM      6  C   UNL     1     112.555 127.405 136.239  0.00  0.00    +0.000 C 
ATOM      7  C   UNL     1     112.411 126.021 136.563  0.00  0.00    +0.000 C 
ATOM      8  C   UNL     1     111.742 125.977 136.084  0.00  0.00    +0.000 A 
ATOM      9  C   UNL     1     111.479 126.648 135.681  0.00  0.00    +0.000 A 
ATOM     10  C   UNL     1     111.327 125.228 136.011  0.00  0.00    +0.000 A 
ATOM     11  C   UNL     1     110.783 126.615 135.178  0.00  0.00    +0.000 A 
ATOM     12  C   UNL     1     110.629 125.177 135.513  0.00  0.00    +0.000 A 
ATOM     13  C   UNL     1     110.355 125.875 135.094  0.00  0.00    +0.000 A 
ENDROOT
BRANCH   6  14
ATOM     14  C   UNL     1     112.961 128.119 136.316  0.00  0.00    +0.000 A 
ATOM     15  C   UNL     1     112.741 128.658 136.900  0.00  0.00    +0.000 A 
ATOM     16  C   UNL     1     113.588 128.293 135.807  0.00  0.00    +0.000 A 
ATOM     17  C   UNL     1     113.148 129.372 136.976  0.00  0.00    +0.000 A 
ATOM     18  C   UNL     1     113.994 129.007 135.884  0.00  0.00    +0.000 A 
ATOM     19  C   UNL     1     113.774 129.547 136.469  0.00  0.00    +0.000 A 
BRANCH  17  20
ATOM     20  O   UNL     1     112.928 129.911 137.560  0.00  0.00    +0.000 OA
ATOM     21  C   UNL     1     113.500 130.378 137.928  0.00  0.00    +0.000 C 
ENDBRANCH  17  20
ENDBRANCH   6  14
TORSDOF 2
ENDMDL
