MODEL 1
REMARK VINA RESULT:     -10.3      0.000      0.000
REMARK  Name = 133562525
REMARK  7 active torsions:
REMARK  status: ('A' for Active; 'I' for Inactive)
REMARK    1  A    between atoms: O_2  and  C_22
REMARK    2  A    between atoms: O_2  and  C_26
REMARK    3  A    between atoms: O_6  and  C_25
REMARK    4  A    between atoms: O_6  and  C_29
REMARK    5  A    between atoms: O_15  and  C_41
REMARK    6  A    between atoms: C_17  and  C_26
REMARK    7  A    between atoms: C_30  and  C_33
REMARK                            x       y       z     vdW  Elec       q    Type
REMARK                         _______ _______ _______ _____ _____    ______ ____
ROOT
ATOM      1  O   UNL     1     111.654 127.217 135.912  0.00  0.00    +0.000 OA
ENDROOT
BRANCH   1   6
ATOM      2  O   UNL     1     113.604 126.825 136.813  0.00  0.00    +0.000 OA
ATOM      3  O   UNL     1     111.631 125.569 136.001  0.00  0.00    +0.000 OA
ATOM      4  O   UNL     1     112.248 124.314 136.354  0.00  0.00    +0.000 OA
ATOM      5  O   UNL     1     114.912 124.330 137.552  0.00  0.00    +0.000 OA
ATOM      6  C   UNL     1     112.300 126.812 136.227  0.00  0.00    +0.000 A 
ATOM      7  C   UNL     1     112.957 127.230 136.497  0.00  0.00    +0.000 A 
ATOM      8  C   UNL     1     112.289 125.988 136.272  0.00  0.00    +0.000 A 
ATOM      9  C   UNL     1     112.934 125.583 136.586  0.00  0.00    +0.000 A 
ATOM     10  C   UNL     1     113.591 126.001 136.857  0.00  0.00    +0.000 A 
ATOM     11  C   UNL     1     112.910 124.724 136.627  0.00  0.00    +0.000 A 
ATOM     12  C   UNL     1     114.270 125.590 137.187  0.00  0.00    +0.000 A 
ATOM     13  C   UNL     1     113.579 124.297 136.954  0.00  0.00    +0.000 A 
ATOM     14  C   UNL     1     114.265 124.733 137.236  0.00  0.00    +0.000 A 
BRANCH   7  16
ATOM     15  O   UNL     1     113.007 130.525 136.318  0.00  0.00    +0.000 OA
ATOM     16  C   UNL     1     112.969 128.054 136.453  0.00  0.00    +0.000 A 
ATOM     17  C   UNL     1     112.879 128.506 137.138  0.00  0.00    +0.000 A 
ATOM     18  C   UNL     1     113.072 128.426 135.723  0.00  0.00    +0.000 A 
ATOM     19  C   UNL     1     112.892 129.329 137.092  0.00  0.00    +0.000 A 
ATOM     20  C   UNL     1     113.084 129.249 135.679  0.00  0.00    +0.000 A 
ATOM     21  C   UNL     1     112.994 129.701 136.363  0.00  0.00    +0.000 A 
BRANCH  19  22
ATOM     22  O   UNL     1     112.802 129.781 137.776  0.00  0.00    +0.000 OA
ATOM     23  C   UNL     1     113.008 129.465 138.511  0.00  0.00    +0.000 C 
ENDBRANCH  19  22
ENDBRANCH   7  16
ENDBRANCH   1   6
BRANCH   1  32
ATOM     24  O   UNL     1     110.810 127.122 137.061  0.00  0.00    +0.000 OA
ATOM     25  O   UNL     1     108.655 126.821 137.231  0.00  0.00    +0.000 OA
ATOM     26  O   UNL     1     108.843 126.814 135.592  0.00  0.00    +0.000 OA
ATOM     27  O   UNL     1     110.343 127.012 134.932  0.00  0.00    +0.000 OA
ATOM     28  C   UNL     1     110.060 127.023 137.391  0.00  0.00    +0.000 C 
ATOM     29  C   UNL     1     109.405 126.920 136.901  0.00  0.00    +0.000 C 
ATOM     30  C   UNL     1     109.498 126.916 136.081  0.00  0.00    +0.000 C 
ATOM     31  C   UNL     1     110.248 127.015 135.752  0.00  0.00    +0.000 C 
ATOM     32  C   UNL     1     110.905 127.118 136.242  0.00  0.00    +0.000 C 
BRANCH  28  33
ATOM     33  C   UNL     1     109.967 127.026 138.211  0.00  0.00    +0.000 C 
BRANCH  33  34
ATOM     34  O   UNL     1     110.590 126.790 138.697  0.00  0.00    +0.000 OA
BRANCH  34  40
ATOM     35  O   UNL     1     110.043 127.483 139.821  0.00  0.00    +0.000 OA
ATOM     36  O   UNL     1     111.494 125.856 139.714  0.00  0.00    +0.000 OA
ATOM     37  O   UNL     1     111.399 126.083 141.346  0.00  0.00    +0.000 OA
ATOM     38  O   UNL     1     110.400 127.244 141.961  0.00  0.00    +0.000 OA
ATOM     39  C   UNL     1     110.995 126.436 140.022  0.00  0.00    +0.000 C 
ATOM     40  C   UNL     1     110.543 126.903 139.513  0.00  0.00    +0.000 C 
ATOM     41  C   UNL     1     110.947 126.550 140.837  0.00  0.00    +0.000 C 
ATOM     42  C   UNL     1     110.448 127.130 141.145  0.00  0.00    +0.000 C 
ATOM     43  C   UNL     1     109.996 127.596 140.636  0.00  0.00    +0.000 C 
ATOM     44  C   UNL     1     109.496 128.177 140.944  0.00  0.00    +0.000 C 
ENDBRANCH  34  40
ENDBRANCH  33  34
ENDBRANCH  28  33
ENDBRANCH   1  32
TORSDOF 7
ENDMDL
MODEL 2
REMARK VINA RESULT:     -10.2      1.386      4.203
REMARK  Name = 133562525
REMARK  7 active torsions:
REMARK  status: ('A' for Active; 'I' for Inactive)
REMARK    1  A    between atoms: O_2  and  C_22
REMARK    2  A    between atoms: O_2  and  C_26
REMARK    3  A    between atoms: O_6  and  C_25
REMARK    4  A    between atoms: O_6  and  C_29
REMARK    5  A    between atoms: O_15  and  C_41
REMARK    6  A    between atoms: C_17  and  C_26
REMARK    7  A    between atoms: C_30  and  C_33
REMARK                            x       y       z     vdW  Elec       q    Type
REMARK                         _______ _______ _______ _____ _____    ______ ____
ROOT
ATOM      1  O   UNL     1     112.790 126.335 137.552  0.00  0.00    +0.000 OA
ENDROOT
BRANCH   1   6
ATOM      2  O   UNL     1     112.962 128.431 138.136  0.00  0.00    +0.000 OA
ATOM      3  O   UNL     1     113.469 126.982 136.195  0.00  0.00    +0.000 OA
ATOM      4  O   UNL     1     113.990 128.105 135.455  0.00  0.00    +0.000 OA
ATOM      5  O   UNL     1     113.997 130.746 136.703  0.00  0.00    +0.000 OA
ATOM      6  C   UNL     1     112.961 127.141 137.520  0.00  0.00    +0.000 A 
ATOM      7  C   UNL     1     112.792 127.624 138.167  0.00  0.00    +0.000 A 
ATOM      8  C   UNL     1     113.300 127.465 136.842  0.00  0.00    +0.000 A 
ATOM      9  C   UNL     1     113.471 128.271 136.810  0.00  0.00    +0.000 A 
ATOM     10  C   UNL     1     113.302 128.754 137.457  0.00  0.00    +0.000 A 
ATOM     11  C   UNL     1     113.824 128.596 136.097  0.00  0.00    +0.000 A 
ATOM     12  C   UNL     1     113.475 129.596 137.436  0.00  0.00    +0.000 A 
ATOM     13  C   UNL     1     114.004 129.435 136.058  0.00  0.00    +0.000 A 
ATOM     14  C   UNL     1     113.828 129.939 136.733  0.00  0.00    +0.000 A 
BRANCH   7  16
ATOM     15  O   UNL     1     111.437 126.331 140.885  0.00  0.00    +0.000 OA
ATOM     16  C   UNL     1     112.453 127.301 138.846  0.00  0.00    +0.000 A 
ATOM     17  C   UNL     1     111.651 127.418 139.003  0.00  0.00    +0.000 A 
ATOM     18  C   UNL     1     112.916 126.861 139.369  0.00  0.00    +0.000 A 
ATOM     19  C   UNL     1     111.313 127.094 139.683  0.00  0.00    +0.000 A 
ATOM     20  C   UNL     1     112.576 126.538 140.048  0.00  0.00    +0.000 A 
ATOM     21  C   UNL     1     111.775 126.655 140.205  0.00  0.00    +0.000 A 
BRANCH  19  22
ATOM     22  O   UNL     1     110.511 127.211 139.840  0.00  0.00    +0.000 OA
ATOM     23  C   UNL     1     110.154 127.931 139.648  0.00  0.00    +0.000 C 
ENDBRANCH  19  22
ENDBRANCH   7  16
ENDBRANCH   1   6
BRANCH   1  32
ATOM     24  O   UNL     1     111.693 126.475 136.648  0.00  0.00    +0.000 OA
ATOM     25  O   UNL     1     110.682 125.008 135.389  0.00  0.00    +0.000 OA
ATOM     26  O   UNL     1     111.823 124.063 136.115  0.00  0.00    +0.000 OA
ATOM     27  O   UNL     1     112.877 124.726 137.196  0.00  0.00    +0.000 OA
ATOM     28  C   UNL     1     111.165 126.143 136.107  0.00  0.00    +0.000 C 
ATOM     29  C   UNL     1     111.209 125.340 135.929  0.00  0.00    +0.000 C 
ATOM     30  C   UNL     1     111.779 124.866 136.292  0.00  0.00    +0.000 C 
ATOM     31  C   UNL     1     112.306 125.198 136.833  0.00  0.00    +0.000 C 
ATOM     32  C   UNL     1     112.263 126.003 137.011  0.00  0.00    +0.000 C 
BRANCH  28  33
ATOM     33  C   UNL     1     110.595 126.617 135.744  0.00  0.00    +0.000 C 
BRANCH  33  34
ATOM     34  O   UNL     1     110.088 127.077 136.205  0.00  0.00    +0.000 OA
BRANCH  34  40
ATOM     35  O   UNL     1     110.272 128.287 135.467  0.00  0.00    +0.000 OA
ATOM     36  O   UNL     1     108.514 127.486 136.484  0.00  0.00    +0.000 OA
ATOM     37  O   UNL     1     107.911 128.900 135.886  0.00  0.00    +0.000 OA
ATOM     38  O   UNL     1     108.882 129.906 135.009  0.00  0.00    +0.000 OA
ATOM     39  C   UNL     1     108.999 127.988 136.046  0.00  0.00    +0.000 C 
ATOM     40  C   UNL     1     109.786 127.784 135.906  0.00  0.00    +0.000 C 
ATOM     41  C   UNL     1     108.698 128.696 135.746  0.00  0.00    +0.000 C 
ATOM     42  C   UNL     1     109.183 129.198 135.308  0.00  0.00    +0.000 C 
ATOM     43  C   UNL     1     109.970 128.994 135.169  0.00  0.00    +0.000 C 
ATOM     44  C   UNL     1     110.455 129.497 134.730  0.00  0.00    +0.000 C 
ENDBRANCH  34  40
ENDBRANCH  33  34
ENDBRANCH  28  33
ENDBRANCH   1  32
TORSDOF 7
ENDMDL
MODEL 3
REMARK VINA RESULT:     -10.2      1.368      4.312
REMARK  Name = 133562525
REMARK  7 active torsions:
REMARK  status: ('A' for Active; 'I' for Inactive)
REMARK    1  A    between atoms: O_2  and  C_22
REMARK    2  A    between atoms: O_2  and  C_26
REMARK    3  A    between atoms: O_6  and  C_25
REMARK    4  A    between atoms: O_6  and  C_29
REMARK    5  A    between atoms: O_15  and  C_41
REMARK    6  A    between atoms: C_17  and  C_26
REMARK    7  A    between atoms: C_30  and  C_33
REMARK                            x       y       z     vdW  Elec       q    Type
REMARK                         _______ _______ _______ _____ _____    ______ ____
ROOT
ATOM      1  O   UNL     1     112.918 126.810 138.218  0.00  0.00    +0.000 OA
ENDROOT
BRANCH   1   6
ATOM      2  O   UNL     1     113.444 127.244 136.145  0.00  0.00    +0.000 OA
ATOM      3  O   UNL     1     113.216 128.431 138.305  0.00  0.00    +0.000 OA
ATOM      4  O   UNL     1     113.591 129.681 137.692  0.00  0.00    +0.000 OA
ATOM      5  O   UNL     1     114.209 129.731 134.837  0.00  0.00    +0.000 OA
ATOM      6  C   UNL     1     113.143 127.225 137.542  0.00  0.00    +0.000 A 
ATOM      7  C   UNL     1     113.219 126.829 136.822  0.00  0.00    +0.000 A 
ATOM      8  C   UNL     1     113.292 128.035 137.585  0.00  0.00    +0.000 A 
ATOM      9  C   UNL     1     113.517 128.450 136.909  0.00  0.00    +0.000 A 
ATOM     10  C   UNL     1     113.593 128.055 136.189  0.00  0.00    +0.000 A 
ATOM     11  C   UNL     1     113.670 129.294 136.967  0.00  0.00    +0.000 A 
ATOM     12  C   UNL     1     113.828 128.476 135.477  0.00  0.00    +0.000 A 
ATOM     13  C   UNL     1     113.905 129.731 136.266  0.00  0.00    +0.000 A 
ATOM     14  C   UNL     1     113.984 129.319 135.515  0.00  0.00    +0.000 A 
BRANCH   7  16
ATOM     15  O   UNL     1     112.625 123.588 136.647  0.00  0.00    +0.000 OA
ATOM     16  C   UNL     1     113.070 126.019 136.778  0.00  0.00    +0.000 A 
ATOM     17  C   UNL     1     112.357 125.747 136.464  0.00  0.00    +0.000 A 
ATOM     18  C   UNL     1     113.634 125.481 137.049  0.00  0.00    +0.000 A 
ATOM     19  C   UNL     1     112.209 124.936 136.421  0.00  0.00    +0.000 A 
ATOM     20  C   UNL     1     113.485 124.671 137.005  0.00  0.00    +0.000 A 
ATOM     21  C   UNL     1     112.773 124.399 136.691  0.00  0.00    +0.000 A 
BRANCH  19  22
ATOM     22  O   UNL     1     111.497 124.664 136.106  0.00  0.00    +0.000 OA
ATOM     23  C   UNL     1     111.094 125.115 135.545  0.00  0.00    +0.000 C 
ENDBRANCH  19  22
ENDBRANCH   7  16
ENDBRANCH   1   6
BRANCH   1  32
ATOM     24  O   UNL     1     111.621 127.411 138.234  0.00  0.00    +0.000 OA
ATOM     25  O   UNL     1     110.194 127.689 139.862  0.00  0.00    +0.000 OA
ATOM     26  O   UNL     1     111.425 126.927 140.653  0.00  0.00    +0.000 OA
ATOM     27  O   UNL     1     112.787 126.488 139.831  0.00  0.00    +0.000 OA
ATOM     28  C   UNL     1     110.940 127.631 138.645  0.00  0.00    +0.000 C 
ATOM     29  C   UNL     1     110.875 127.469 139.451  0.00  0.00    +0.000 C 
ATOM     30  C   UNL     1     111.490 127.088 139.847  0.00  0.00    +0.000 C 
ATOM     31  C   UNL     1     112.171 126.869 139.436  0.00  0.00    +0.000 C 
ATOM     32  C   UNL     1     112.237 127.030 138.629  0.00  0.00    +0.000 C 
BRANCH  28  33
ATOM     33  C   UNL     1     110.325 128.012 138.249  0.00  0.00    +0.000 C 
BRANCH  33  34
ATOM     34  O   UNL     1     110.078 127.738 137.511  0.00  0.00    +0.000 OA
BRANCH  34  40
ATOM     35  O   UNL     1     110.078 128.992 136.825  0.00  0.00    +0.000 OA
ATOM     36  O   UNL     1     108.688 127.311 136.731  0.00  0.00    +0.000 OA
ATOM     37  O   UNL     1     107.993 128.352 135.655  0.00  0.00    +0.000 OA
ATOM     38  O   UNL     1     108.688 129.819 135.359  0.00  0.00    +0.000 OA
ATOM     39  C   UNL     1     109.035 128.044 136.583  0.00  0.00    +0.000 C 
ATOM     40  C   UNL     1     109.730 128.258 136.973  0.00  0.00    +0.000 C 
ATOM     41  C   UNL     1     108.688 128.565 136.045  0.00  0.00    +0.000 C 
ATOM     42  C   UNL     1     109.035 129.298 135.897  0.00  0.00    +0.000 C 
ATOM     43  C   UNL     1     109.730 129.511 136.287  0.00  0.00    +0.000 C 
ATOM     44  C   UNL     1     110.078 130.246 136.139  0.00  0.00    +0.000 C 
ENDBRANCH  34  40
ENDBRANCH  33  34
ENDBRANCH  28  33
ENDBRANCH   1  32
TORSDOF 7
ENDMDL
MODEL 4
REMARK VINA RESULT:     -10.1      1.537      4.044
REMARK  Name = 133562525
REMARK  7 active torsions:
REMARK  status: ('A' for Active; 'I' for Inactive)
REMARK    1  A    between atoms: O_2  and  C_22
REMARK    2  A    between atoms: O_2  and  C_26
REMARK    3  A    between atoms: O_6  and  C_25
REMARK    4  A    between atoms: O_6  and  C_29
REMARK    5  A    between atoms: O_15  and  C_41
REMARK    6  A    between atoms: C_17  and  C_26
REMARK    7  A    between atoms: C_30  and  C_33
REMARK                            x       y       z     vdW  Elec       q    Type
REMARK                         _______ _______ _______ _____ _____    ______ ____
ROOT
ATOM      1  O   UNL     1     111.499 126.795 138.780  0.00  0.00    +0.000 OA
ENDROOT
BRANCH   1   6
ATOM      2  O   UNL     1     113.599 126.213 138.911  0.00  0.00    +0.000 OA
ATOM      3  O   UNL     1     111.688 125.986 137.354  0.00  0.00    +0.000 OA
ATOM      4  O   UNL     1     112.499 125.244 136.421  0.00  0.00    +0.000 OA
ATOM      5  O   UNL     1     115.298 124.721 137.076  0.00  0.00    +0.000 OA
ATOM      6  C   UNL     1     112.230 126.467 138.586  0.00  0.00    +0.000 A 
ATOM      7  C   UNL     1     112.867 126.542 139.105  0.00  0.00    +0.000 A 
ATOM      8  C   UNL     1     112.325 126.062 137.873  0.00  0.00    +0.000 A 
ATOM      9  C   UNL     1     113.056 125.733 137.679  0.00  0.00    +0.000 A 
ATOM     10  C   UNL     1     113.693 125.809 138.198  0.00  0.00    +0.000 A 
ATOM     11  C   UNL     1     113.142 125.314 136.934  0.00  0.00    +0.000 A 
ATOM     12  C   UNL     1     114.460 125.471 138.007  0.00  0.00    +0.000 A 
ATOM     13  C   UNL     1     113.901 124.970 136.726  0.00  0.00    +0.000 A 
ATOM     14  C   UNL     1     114.565 125.049 137.267  0.00  0.00    +0.000 A 
BRANCH   7  16
ATOM     15  O   UNL     1     112.490 128.158 141.958  0.00  0.00    +0.000 OA
ATOM     16  C   UNL     1     112.773 126.947 139.818  0.00  0.00    +0.000 A 
ATOM     17  C   UNL     1     113.091 127.702 139.909  0.00  0.00    +0.000 A 
ATOM     18  C   UNL     1     112.361 126.594 140.440  0.00  0.00    +0.000 A 
ATOM     19  C   UNL     1     112.997 128.106 140.623  0.00  0.00    +0.000 A 
ATOM     20  C   UNL     1     112.267 126.998 141.153  0.00  0.00    +0.000 A 
ATOM     21  C   UNL     1     112.585 127.754 141.244  0.00  0.00    +0.000 A 
BRANCH  19  22
ATOM     22  O   UNL     1     113.315 128.861 140.714  0.00  0.00    +0.000 OA
ATOM     23  C   UNL     1     114.049 129.043 140.383  0.00  0.00    +0.000 C 
ENDBRANCH  19  22
ENDBRANCH   7  16
ENDBRANCH   1   6
BRANCH   1  32
ATOM     24  O   UNL     1     111.627 127.865 137.842  0.00  0.00    +0.000 OA
ATOM     25  O   UNL     1     110.113 129.029 136.785  0.00  0.00    +0.000 OA
ATOM     26  O   UNL     1     109.163 128.005 137.664  0.00  0.00    +0.000 OA
ATOM     27  O   UNL     1     109.856 126.888 138.662  0.00  0.00    +0.000 OA
ATOM     28  C   UNL     1     111.281 128.424 137.343  0.00  0.00    +0.000 C 
ATOM     29  C   UNL     1     110.460 128.470 137.284  0.00  0.00    +0.000 C 
ATOM     30  C   UNL     1     109.984 127.959 137.723  0.00  0.00    +0.000 C 
ATOM     31  C   UNL     1     110.331 127.400 138.222  0.00  0.00    +0.000 C 
ATOM     32  C   UNL     1     111.153 127.353 138.281  0.00  0.00    +0.000 C 
BRANCH  28  33
ATOM     33  C   UNL     1     111.757 128.936 136.904  0.00  0.00    +0.000 C 
BRANCH  33  34
ATOM     34  O   UNL     1     112.351 129.369 137.278  0.00  0.00    +0.000 OA
BRANCH  34  40
ATOM     35  O   UNL     1     113.396 129.119 136.337  0.00  0.00    +0.000 OA
ATOM     36  O   UNL     1     112.865 130.928 137.436  0.00  0.00    +0.000 OA
ATOM     37  O   UNL     1     114.168 131.459 136.573  0.00  0.00    +0.000 OA
ATOM     38  O   UNL     1     114.956 130.429 135.553  0.00  0.00    +0.000 OA
ATOM     39  C   UNL     1     113.259 130.414 136.926  0.00  0.00    +0.000 C 
ATOM     40  C   UNL     1     113.002 129.634 136.847  0.00  0.00    +0.000 C 
ATOM     41  C   UNL     1     113.911 130.679 136.495  0.00  0.00    +0.000 C 
ATOM     42  C   UNL     1     114.305 130.165 135.985  0.00  0.00    +0.000 C 
ATOM     43  C   UNL     1     114.047 129.385 135.906  0.00  0.00    +0.000 C 
ATOM     44  C   UNL     1     114.442 128.869 135.395  0.00  0.00    +0.000 C 
ENDBRANCH  34  40
ENDBRANCH  33  34
ENDBRANCH  28  33
ENDBRANCH   1  32
TORSDOF 7
ENDMDL
MODEL 5
REMARK VINA RESULT:     -10.0      1.737      3.657
REMARK  Name = 133562525
REMARK  7 active torsions:
REMARK  status: ('A' for Active; 'I' for Inactive)
REMARK    1  A    between atoms: O_2  and  C_22
REMARK    2  A    between atoms: O_2  and  C_26
REMARK    3  A    between atoms: O_6  and  C_25
REMARK    4  A    between atoms: O_6  and  C_29
REMARK    5  A    between atoms: O_15  and  C_41
REMARK    6  A    between atoms: C_17  and  C_26
REMARK    7  A    between atoms: C_30  and  C_33
REMARK                            x       y       z     vdW  Elec       q    Type
REMARK                         _______ _______ _______ _____ _____    ______ ____
ROOT
ATOM      1  O   UNL     1     111.989 126.148 139.369  0.00  0.00    +0.000 OA
ENDROOT
BRANCH   1   6
ATOM      2  O   UNL     1     113.872 126.376 138.289  0.00  0.00    +0.000 OA
ATOM      3  O   UNL     1     111.824 124.988 138.207  0.00  0.00    +0.000 OA
ATOM      4  O   UNL     1     112.323 124.268 137.061  0.00  0.00    +0.000 OA
ATOM      5  O   UNL     1     114.944 124.965 135.978  0.00  0.00    +0.000 OA
ATOM      6  C   UNL     1     112.589 126.031 138.815  0.00  0.00    +0.000 A 
ATOM      7  C   UNL     1     113.271 126.493 138.843  0.00  0.00    +0.000 A 
ATOM      8  C   UNL     1     112.507 125.451 138.234  0.00  0.00    +0.000 A 
ATOM      9  C   UNL     1     113.107 125.333 137.681  0.00  0.00    +0.000 A 
ATOM     10  C   UNL     1     113.789 125.795 137.708  0.00  0.00    +0.000 A 
ATOM     11  C   UNL     1     113.009 124.726 137.080  0.00  0.00    +0.000 A 
ATOM     12  C   UNL     1     114.422 125.682 137.137  0.00  0.00    +0.000 A 
ATOM     13  C   UNL     1     113.631 124.599 136.501  0.00  0.00    +0.000 A 
ATOM     14  C   UNL     1     114.342 125.081 136.530  0.00  0.00    +0.000 A 
BRANCH   7  16
ATOM     15  O   UNL     1     113.604 128.812 141.167  0.00  0.00    +0.000 OA
ATOM     16  C   UNL     1     113.354 127.073 139.423  0.00  0.00    +0.000 A 
ATOM     17  C   UNL     1     113.245 127.868 139.232  0.00  0.00    +0.000 A 
ATOM     18  C   UNL     1     113.547 126.858 140.197  0.00  0.00    +0.000 A 
ATOM     19  C   UNL     1     113.328 128.447 139.813  0.00  0.00    +0.000 A 
ATOM     20  C   UNL     1     113.630 127.438 140.777  0.00  0.00    +0.000 A 
ATOM     21  C   UNL     1     113.520 128.233 140.585  0.00  0.00    +0.000 A 
BRANCH  19  22
ATOM     22  O   UNL     1     113.218 129.242 139.622  0.00  0.00    +0.000 OA
ATOM     23  C   UNL     1     113.558 129.553 138.936  0.00  0.00    +0.000 C 
ENDBRANCH  19  22
ENDBRANCH   7  16
ENDBRANCH   1   6
BRANCH   1  32
ATOM     24  O   UNL     1     111.107 126.793 138.448  0.00  0.00    +0.000 OA
ATOM     25  O   UNL     1     108.927 126.852 138.358  0.00  0.00    +0.000 OA
ATOM     26  O   UNL     1     109.159 125.913 139.695  0.00  0.00    +0.000 OA
ATOM     27  O   UNL     1     110.690 125.561 140.200  0.00  0.00    +0.000 OA
ATOM     28  C   UNL     1     110.341 126.969 138.195  0.00  0.00    +0.000 C 
ATOM     29  C   UNL     1     109.693 126.676 138.610  0.00  0.00    +0.000 C 
ATOM     30  C   UNL     1     109.808 126.206 139.279  0.00  0.00    +0.000 C 
ATOM     31  C   UNL     1     110.573 126.030 139.532  0.00  0.00    +0.000 C 
ATOM     32  C   UNL     1     111.223 126.324 139.116  0.00  0.00    +0.000 C 
BRANCH  28  33
ATOM     33  C   UNL     1     110.226 127.439 137.526  0.00  0.00    +0.000 C 
BRANCH  33  34
ATOM     34  O   UNL     1     110.574 128.185 137.482  0.00  0.00    +0.000 OA
BRANCH  34  40
ATOM     35  O   UNL     1     110.684 128.179 136.057  0.00  0.00    +0.000 OA
ATOM     36  O   UNL     1     110.411 129.827 137.462  0.00  0.00    +0.000 OA
ATOM     37  O   UNL     1     110.438 130.641 136.027  0.00  0.00    +0.000 OA
ATOM     38  O   UNL     1     110.629 129.813 134.612  0.00  0.00    +0.000 OA
ATOM     39  C   UNL     1     110.506 129.414 136.755  0.00  0.00    +0.000 C 
ATOM     40  C   UNL     1     110.588 128.593 136.765  0.00  0.00    +0.000 C 
ATOM     41  C   UNL     1     110.520 129.820 136.037  0.00  0.00    +0.000 C 
ATOM     42  C   UNL     1     110.616 129.407 135.330  0.00  0.00    +0.000 C 
ATOM     43  C   UNL     1     110.697 128.586 135.340  0.00  0.00    +0.000 C 
ATOM     44  C   UNL     1     110.793 128.172 134.632  0.00  0.00    +0.000 C 
ENDBRANCH  34  40
ENDBRANCH  33  34
ENDBRANCH  28  33
ENDBRANCH   1  32
TORSDOF 7
ENDMDL
MODEL 6
REMARK VINA RESULT:     -10.0      1.787      3.480
REMARK  Name = 133562525
REMARK  7 active torsions:
REMARK  status: ('A' for Active; 'I' for Inactive)
REMARK    1  A    between atoms: O_2  and  C_22
REMARK    2  A    between atoms: O_2  and  C_26
REMARK    3  A    between atoms: O_6  and  C_25
REMARK    4  A    between atoms: O_6  and  C_29
REMARK    5  A    between atoms: O_15  and  C_41
REMARK    6  A    between atoms: C_17  and  C_26
REMARK    7  A    between atoms: C_30  and  C_33
REMARK                            x       y       z     vdW  Elec       q    Type
REMARK                         _______ _______ _______ _____ _____    ______ ____
ROOT
ATOM      1  O   UNL     1     111.200 126.931 136.517  0.00  0.00    +0.000 OA
ENDROOT
BRANCH   1   6
ATOM      2  O   UNL     1     111.778 128.816 135.581  0.00  0.00    +0.000 OA
ATOM      3  O   UNL     1     112.845 126.797 136.536  0.00  0.00    +0.000 OA
ATOM      4  O   UNL     1     114.158 127.318 136.245  0.00  0.00    +0.000 OA
ATOM      5  O   UNL     1     114.396 129.932 134.963  0.00  0.00    +0.000 OA
ATOM      6  C   UNL     1     111.667 127.536 136.209  0.00  0.00    +0.000 A 
ATOM      7  C   UNL     1     111.311 128.209 135.890  0.00  0.00    +0.000 A 
ATOM      8  C   UNL     1     112.489 127.470 136.218  0.00  0.00    +0.000 A 
ATOM      9  C   UNL     1     112.956 128.076 135.909  0.00  0.00    +0.000 A 
ATOM     10  C   UNL     1     112.600 128.749 135.591  0.00  0.00    +0.000 A 
ATOM     11  C   UNL     1     113.812 127.995 135.925  0.00  0.00    +0.000 A 
ATOM     12  C   UNL     1     113.076 129.387 135.266  0.00  0.00    +0.000 A 
ATOM     13  C   UNL     1     114.303 128.622 135.605  0.00  0.00    +0.000 A 
ATOM     14  C   UNL     1     113.932 129.324 135.273  0.00  0.00    +0.000 A 
BRANCH   7  16
ATOM     15  O   UNL     1     108.022 128.477 135.849  0.00  0.00    +0.000 OA
ATOM     16  C   UNL     1     110.489 128.277 135.880  0.00  0.00    +0.000 A 
ATOM     17  C   UNL     1     110.109 128.775 136.417  0.00  0.00    +0.000 A 
ATOM     18  C   UNL     1     110.047 127.845 135.333  0.00  0.00    +0.000 A 
ATOM     19  C   UNL     1     109.287 128.841 136.406  0.00  0.00    +0.000 A 
ATOM     20  C   UNL     1     109.225 127.912 135.323  0.00  0.00    +0.000 A 
ATOM     21  C   UNL     1     108.845 128.410 135.860  0.00  0.00    +0.000 A 
BRANCH  19  22
ATOM     22  O   UNL     1     108.907 129.339 136.943  0.00  0.00    +0.000 OA
ATOM     23  C   UNL     1     109.259 130.051 137.167  0.00  0.00    +0.000 C 
ENDBRANCH  19  22
ENDBRANCH   7  16
ENDBRANCH   1   6
BRANCH   1  32
ATOM     24  O   UNL     1     111.541 127.248 137.868  0.00  0.00    +0.000 OA
ATOM     25  O   UNL     1     111.563 126.010 139.665  0.00  0.00    +0.000 OA
ATOM     26  O   UNL     1     111.064 124.914 138.537  0.00  0.00    +0.000 OA
ATOM     27  O   UNL     1     110.883 125.374 136.963  0.00  0.00    +0.000 OA
ATOM     28  C   UNL     1     111.632 127.018 138.655  0.00  0.00    +0.000 C 
ATOM     29  C   UNL     1     111.473 126.240 138.878  0.00  0.00    +0.000 C 
ATOM     30  C   UNL     1     111.223 125.692 138.315  0.00  0.00    +0.000 C 
ATOM     31  C   UNL     1     111.132 125.922 137.528  0.00  0.00    +0.000 C 
ATOM     32  C   UNL     1     111.291 126.701 137.304  0.00  0.00    +0.000 C 
BRANCH  28  33
ATOM     33  C   UNL     1     111.881 127.566 139.219  0.00  0.00    +0.000 C 
BRANCH  33  34
ATOM     34  O   UNL     1     111.511 128.302 139.270  0.00  0.00    +0.000 OA
BRANCH  34  40
ATOM     35  O   UNL     1     112.711 129.075 139.331  0.00  0.00    +0.000 OA
ATOM     36  O   UNL     1     110.775 129.363 140.296  0.00  0.00    +0.000 OA
ATOM     37  O   UNL     1     111.607 130.667 140.871  0.00  0.00    +0.000 OA
ATOM     38  O   UNL     1     113.175 130.910 140.419  0.00  0.00    +0.000 OA
ATOM     39  C   UNL     1     111.558 129.485 140.071  0.00  0.00    +0.000 C 
ATOM     40  C   UNL     1     111.927 128.954 139.557  0.00  0.00    +0.000 C 
ATOM     41  C   UNL     1     111.975 130.137 140.358  0.00  0.00    +0.000 C 
ATOM     42  C   UNL     1     112.759 130.258 140.132  0.00  0.00    +0.000 C 
ATOM     43  C   UNL     1     113.127 129.728 139.619  0.00  0.00    +0.000 C 
ATOM     44  C   UNL     1     113.912 129.849 139.393  0.00  0.00    +0.000 C 
ENDBRANCH  34  40
ENDBRANCH  33  34
ENDBRANCH  28  33
ENDBRANCH   1  32
TORSDOF 7
ENDMDL
MODEL 7
REMARK VINA RESULT:      -9.9      1.645      4.749
REMARK  Name = 133562525
REMARK  7 active torsions:
REMARK  status: ('A' for Active; 'I' for Inactive)
REMARK    1  A    between atoms: O_2  and  C_22
REMARK    2  A    between atoms: O_2  and  C_26
REMARK    3  A    between atoms: O_6  and  C_25
REMARK    4  A    between atoms: O_6  and  C_29
REMARK    5  A    between atoms: O_15  and  C_41
REMARK    6  A    between atoms: C_17  and  C_26
REMARK    7  A    between atoms: C_30  and  C_33
REMARK                            x       y       z     vdW  Elec       q    Type
REMARK                         _______ _______ _______ _____ _____    ______ ____
ROOT
ATOM      1  O   UNL     1     112.383 129.938 136.984  0.00  0.00    +0.000 OA
ENDROOT
BRANCH   1   6
ATOM      2  O   UNL     1     110.352 129.326 137.499  0.00  0.00    +0.000 OA
ATOM      3  O   UNL     1     111.681 129.896 135.491  0.00  0.00    +0.000 OA
ATOM      4  O   UNL     1     110.542 129.669 134.636  0.00  0.00    +0.000 OA
ATOM      5  O   UNL     1     108.008 128.849 135.838  0.00  0.00    +0.000 OA
ATOM      6  C   UNL     1     111.590 129.727 136.907  0.00  0.00    +0.000 A 
ATOM      7  C   UNL     1     111.147 129.537 137.576  0.00  0.00    +0.000 A 
ATOM      8  C   UNL     1     111.238 129.706 136.160  0.00  0.00    +0.000 A 
ATOM      9  C   UNL     1     110.445 129.495 136.083  0.00  0.00    +0.000 A 
ATOM     10  C   UNL     1     110.002 129.305 136.753  0.00  0.00    +0.000 A 
ATOM     11  C   UNL     1     110.090 129.477 135.300  0.00  0.00    +0.000 A 
ATOM     12  C   UNL     1     109.174 129.084 136.685  0.00  0.00    +0.000 A 
ATOM     13  C   UNL     1     109.264 129.258 135.214  0.00  0.00    +0.000 A 
ATOM     14  C   UNL     1     108.802 129.060 135.912  0.00  0.00    +0.000 A 
BRANCH   7  16
ATOM     15  O   UNL     1     112.547 129.622 140.563  0.00  0.00    +0.000 OA
ATOM     16  C   UNL     1     111.497 129.558 138.323  0.00  0.00    +0.000 A 
ATOM     17  C   UNL     1     111.700 128.854 138.703  0.00  0.00    +0.000 A 
ATOM     18  C   UNL     1     111.644 130.283 138.689  0.00  0.00    +0.000 A 
ATOM     19  C   UNL     1     112.050 128.876 139.450  0.00  0.00    +0.000 A 
ATOM     20  C   UNL     1     111.994 130.303 139.435  0.00  0.00    +0.000 A 
ATOM     21  C   UNL     1     112.197 129.600 139.816  0.00  0.00    +0.000 A 
BRANCH  19  22
ATOM     22  O   UNL     1     112.253 128.173 139.831  0.00  0.00    +0.000 OA
ATOM     23  C   UNL     1     111.752 127.518 139.783  0.00  0.00    +0.000 C 
ENDBRANCH  19  22
ENDBRANCH   7  16
ENDBRANCH   1   6
BRANCH   1  32
ATOM     24  O   UNL     1     112.869 128.694 136.474  0.00  0.00    +0.000 OA
ATOM     25  O   UNL     1     114.709 128.208 135.407  0.00  0.00    +0.000 OA
ATOM     26  O   UNL     1     114.901 129.831 135.636  0.00  0.00    +0.000 OA
ATOM     27  O   UNL     1     113.738 130.695 136.425  0.00  0.00    +0.000 OA
ATOM     28  C   UNL     1     113.451 128.261 136.080  0.00  0.00    +0.000 C 
ATOM     29  C   UNL     1     114.128 128.640 135.801  0.00  0.00    +0.000 C 
ATOM     30  C   UNL     1     114.224 129.452 135.915  0.00  0.00    +0.000 C 
ATOM     31  C   UNL     1     113.643 129.884 136.310  0.00  0.00    +0.000 C 
ATOM     32  C   UNL     1     112.964 129.505 136.589  0.00  0.00    +0.000 C 
BRANCH  28  33
ATOM     33  C   UNL     1     113.354 127.450 135.965  0.00  0.00    +0.000 C 
BRANCH  33  34
ATOM     34  O   UNL     1     113.218 126.956 136.612  0.00  0.00    +0.000 OA
BRANCH  34  40
ATOM     35  O   UNL     1     112.079 126.255 136.109  0.00  0.00    +0.000 OA
ATOM     36  O   UNL     1     113.818 125.545 137.222  0.00  0.00    +0.000 OA
ATOM     37  O   UNL     1     112.979 124.138 137.024  0.00  0.00    +0.000 OA
ATOM     38  O   UNL     1     111.540 124.142 136.216  0.00  0.00    +0.000 OA
ATOM     39  C   UNL     1     113.099 125.547 136.819  0.00  0.00    +0.000 C 
ATOM     40  C   UNL     1     112.799 126.252 136.514  0.00  0.00    +0.000 C 
ATOM     41  C   UNL     1     112.679 124.844 136.719  0.00  0.00    +0.000 C 
ATOM     42  C   UNL     1     111.960 124.846 136.316  0.00  0.00    +0.000 C 
ATOM     43  C   UNL     1     111.660 125.551 136.011  0.00  0.00    +0.000 C 
ATOM     44  C   UNL     1     110.941 125.553 135.606  0.00  0.00    +0.000 C 
ENDBRANCH  34  40
ENDBRANCH  33  34
ENDBRANCH  28  33
ENDBRANCH   1  32
TORSDOF 7
ENDMDL
MODEL 8
REMARK VINA RESULT:      -9.9      1.722      3.473
REMARK  Name = 133562525
REMARK  7 active torsions:
REMARK  status: ('A' for Active; 'I' for Inactive)
REMARK    1  A    between atoms: O_2  and  C_22
REMARK    2  A    between atoms: O_2  and  C_26
REMARK    3  A    between atoms: O_6  and  C_25
REMARK    4  A    between atoms: O_6  and  C_29
REMARK    5  A    between atoms: O_15  and  C_41
REMARK    6  A    between atoms: C_17  and  C_26
REMARK    7  A    between atoms: C_30  and  C_33
REMARK                            x       y       z     vdW  Elec       q    Type
REMARK                         _______ _______ _______ _____ _____    ______ ____
ROOT
ATOM      1  O   UNL     1     110.583 128.745 136.032  0.00  0.00    +0.000 OA
ENDROOT
BRANCH   1   6
ATOM      2  O   UNL     1     112.576 128.070 135.454  0.00  0.00    +0.000 OA
ATOM      3  O   UNL     1     111.473 130.099 136.344  0.00  0.00    +0.000 OA
ATOM      4  O   UNL     1     112.730 130.806 136.370  0.00  0.00    +0.000 OA
ATOM      5  O   UNL     1     115.149 129.434 135.478  0.00  0.00    +0.000 OA
ATOM      6  C   UNL     1     111.395 128.746 135.891  0.00  0.00    +0.000 A 
ATOM      7  C   UNL     1     111.763 128.069 135.595  0.00  0.00    +0.000 A 
ATOM      8  C   UNL     1     111.841 129.423 136.047  0.00  0.00    +0.000 A 
ATOM      9  C   UNL     1     112.653 129.423 135.907  0.00  0.00    +0.000 A 
ATOM     10  C   UNL     1     113.021 128.747 135.610  0.00  0.00    +0.000 A 
ATOM     11  C   UNL     1     113.106 130.135 136.073  0.00  0.00    +0.000 A 
ATOM     12  C   UNL     1     113.867 128.735 135.460  0.00  0.00    +0.000 A 
ATOM     13  C   UNL     1     113.953 130.141 135.929  0.00  0.00    +0.000 A 
ATOM     14  C   UNL     1     114.336 129.436 135.620  0.00  0.00    +0.000 A 
BRANCH   7  16
ATOM     15  O   UNL     1     109.983 125.362 134.968  0.00  0.00    +0.000 OA
ATOM     16  C   UNL     1     111.318 127.392 135.439  0.00  0.00    +0.000 A 
ATOM     17  C   UNL     1     111.354 126.747 135.952  0.00  0.00    +0.000 A 
ATOM     18  C   UNL     1     110.837 127.361 134.768  0.00  0.00    +0.000 A 
ATOM     19  C   UNL     1     110.908 126.071 135.795  0.00  0.00    +0.000 A 
ATOM     20  C   UNL     1     110.393 126.684 134.612  0.00  0.00    +0.000 A 
ATOM     21  C   UNL     1     110.428 126.039 135.125  0.00  0.00    +0.000 A 
BRANCH  19  22
ATOM     22  O   UNL     1     110.944 125.426 136.308  0.00  0.00    +0.000 OA
ATOM     23  C   UNL     1     111.662 125.215 136.657  0.00  0.00    +0.000 C 
ENDBRANCH  19  22
ENDBRANCH   7  16
ENDBRANCH   1   6
BRANCH   1  32
ATOM     24  O   UNL     1     110.713 128.689 137.454  0.00  0.00    +0.000 OA
ATOM     25  O   UNL     1     109.428 129.464 139.039  0.00  0.00    +0.000 OA
ATOM     26  O   UNL     1     108.589 129.936 137.698  0.00  0.00    +0.000 OA
ATOM     27  O   UNL     1     109.167 129.576 136.195  0.00  0.00    +0.000 OA
ATOM     28  C   UNL     1     110.424 128.869 138.206  0.00  0.00    +0.000 C 
ATOM     29  C   UNL     1     109.717 129.284 138.287  0.00  0.00    +0.000 C 
ATOM     30  C   UNL     1     109.297 129.521 137.617  0.00  0.00    +0.000 C 
ATOM     31  C   UNL     1     109.585 129.341 136.865  0.00  0.00    +0.000 C 
ATOM     32  C   UNL     1     110.294 128.925 136.784  0.00  0.00    +0.000 C 
BRANCH  28  33
ATOM     33  C   UNL     1     110.844 128.633 138.876  0.00  0.00    +0.000 C 
BRANCH  33  34
ATOM     34  O   UNL     1     111.062 127.842 138.968  0.00  0.00    +0.000 OA
BRANCH  34  40
ATOM     35  O   UNL     1     112.322 128.081 139.597  0.00  0.00    +0.000 OA
ATOM     36  O   UNL     1     110.824 126.531 139.941  0.00  0.00    +0.000 OA
ATOM     37  O   UNL     1     111.966 126.114 141.057  0.00  0.00    +0.000 OA
ATOM     38  O   UNL     1     113.345 127.008 141.200  0.00  0.00    +0.000 OA
ATOM     39  C   UNL     1     111.513 126.978 140.013  0.00  0.00    +0.000 C 
ATOM     40  C   UNL     1     111.632 127.633 139.526  0.00  0.00    +0.000 C 
ATOM     41  C   UNL     1     112.085 126.770 140.570  0.00  0.00    +0.000 C 
ATOM     42  C   UNL     1     112.774 127.216 140.642  0.00  0.00    +0.000 C 
ATOM     43  C   UNL     1     112.892 127.872 140.155  0.00  0.00    +0.000 C 
ATOM     44  C   UNL     1     113.583 128.320 140.227  0.00  0.00    +0.000 C 
ENDBRANCH  34  40
ENDBRANCH  33  34
ENDBRANCH  28  33
ENDBRANCH   1  32
TORSDOF 7
ENDMDL
MODEL 9
REMARK VINA RESULT:      -9.9      2.055      3.406
REMARK  Name = 133562525
REMARK  7 active torsions:
REMARK  status: ('A' for Active; 'I' for Inactive)
REMARK    1  A    between atoms: O_2  and  C_22
REMARK    2  A    between atoms: O_2  and  C_26
REMARK    3  A    between atoms: O_6  and  C_25
REMARK    4  A    between atoms: O_6  and  C_29
REMARK    5  A    between atoms: O_15  and  C_41
REMARK    6  A    between atoms: C_17  and  C_26
REMARK    7  A    between atoms: C_30  and  C_33
REMARK                            x       y       z     vdW  Elec       q    Type
REMARK                         _______ _______ _______ _____ _____    ______ ____
ROOT
ATOM      1  O   UNL     1     110.387 130.260 136.165  0.00  0.00    +0.000 OA
ENDROOT
BRANCH   1   6
ATOM      2  O   UNL     1     112.459 130.696 136.695  0.00  0.00    +0.000 OA
ATOM      3  O   UNL     1     111.191 129.246 135.141  0.00  0.00    +0.000 OA
ATOM      4  O   UNL     1     112.413 128.693 134.612  0.00  0.00    +0.000 OA
ATOM      5  O   UNL     1     114.969 129.626 135.676  0.00  0.00    +0.000 OA
ATOM      6  C   UNL     1     111.211 130.236 136.171  0.00  0.00    +0.000 A 
ATOM      7  C   UNL     1     111.634 130.719 136.689  0.00  0.00    +0.000 A 
ATOM      8  C   UNL     1     111.613 129.729 135.659  0.00  0.00    +0.000 A 
ATOM      9  C   UNL     1     112.437 129.705 135.665  0.00  0.00    +0.000 A 
ATOM     10  C   UNL     1     112.860 130.188 136.183  0.00  0.00    +0.000 A 
ATOM     11  C   UNL     1     112.845 129.173 135.127  0.00  0.00    +0.000 A 
ATOM     12  C   UNL     1     113.720 130.173 136.198  0.00  0.00    +0.000 A 
ATOM     13  C   UNL     1     113.703 129.144 135.128  0.00  0.00    +0.000 A 
ATOM     14  C   UNL     1     114.144 129.648 135.668  0.00  0.00    +0.000 A 
BRANCH   7  16
ATOM     15  O   UNL     1     110.028 132.750 138.736  0.00  0.00    +0.000 OA
ATOM     16  C   UNL     1     111.233 131.226 137.201  0.00  0.00    +0.000 A 
ATOM     17  C   UNL     1     111.173 131.041 138.003  0.00  0.00    +0.000 A 
ATOM     18  C   UNL     1     110.891 131.919 136.910  0.00  0.00    +0.000 A 
ATOM     19  C   UNL     1     110.771 131.549 138.514  0.00  0.00    +0.000 A 
ATOM     20  C   UNL     1     110.490 132.427 137.423  0.00  0.00    +0.000 A 
ATOM     21  C   UNL     1     110.430 132.241 138.224  0.00  0.00    +0.000 A 
BRANCH  19  22
ATOM     22  O   UNL     1     110.711 131.364 139.316  0.00  0.00    +0.000 OA
ATOM     23  C   UNL     1     111.206 130.791 139.645  0.00  0.00    +0.000 C 
ENDBRANCH  19  22
ENDBRANCH   7  16
ENDBRANCH   1   6
BRANCH   1  32
ATOM     24  O   UNL     1     110.264 128.969 136.768  0.00  0.00    +0.000 OA
ATOM     25  O   UNL     1     108.654 127.500 136.684  0.00  0.00    +0.000 OA
ATOM     26  O   UNL     1     108.031 128.699 135.738  0.00  0.00    +0.000 OA
ATOM     27  O   UNL     1     108.897 130.079 135.478  0.00  0.00    +0.000 OA
ATOM     28  C   UNL     1     109.831 128.279 136.897  0.00  0.00    +0.000 C 
ATOM     29  C   UNL     1     109.087 128.190 136.554  0.00  0.00    +0.000 C 
ATOM     30  C   UNL     1     108.775 128.789 136.081  0.00  0.00    +0.000 C 
ATOM     31  C   UNL     1     109.208 129.479 135.951  0.00  0.00    +0.000 C 
ATOM     32  C   UNL     1     109.954 129.570 136.295  0.00  0.00    +0.000 C 
BRANCH  28  33
ATOM     33  C   UNL     1     110.143 127.680 137.371  0.00  0.00    +0.000 C 
BRANCH  33  34
ATOM     34  O   UNL     1     110.389 127.848 138.140  0.00  0.00    +0.000 OA
BRANCH  34  40
ATOM     35  O   UNL     1     111.703 127.289 138.093  0.00  0.00    +0.000 OA
ATOM     36  O   UNL     1     110.157 127.178 139.630  0.00  0.00    +0.000 OA
ATOM     37  O   UNL     1     111.355 126.283 140.328  0.00  0.00    +0.000 OA
ATOM     38  O   UNL     1     112.786 126.060 139.536  0.00  0.00    +0.000 OA
ATOM     39  C   UNL     1     110.872 127.066 139.234  0.00  0.00    +0.000 C 
ATOM     40  C   UNL     1     110.988 127.401 138.489  0.00  0.00    +0.000 C 
ATOM     41  C   UNL     1     111.471 126.619 139.583  0.00  0.00    +0.000 C 
ATOM     42  C   UNL     1     112.186 126.507 139.187  0.00  0.00    +0.000 C 
ATOM     43  C   UNL     1     112.302 126.842 138.443  0.00  0.00    +0.000 C 
ATOM     44  C   UNL     1     113.018 126.730 138.046  0.00  0.00    +0.000 C 
ENDBRANCH  34  40
ENDBRANCH  33  34
ENDBRANCH  28  33
ENDBRANCH   1  32
TORSDOF 7
ENDMDL
MODEL 10
REMARK VINA RESULT:      -9.8      2.366      4.753
REMARK  Name = 133562525
REMARK  7 active torsions:
REMARK  status: ('A' for Active; 'I' for Inactive)
REMARK    1  A    between atoms: O_2  and  C_22
REMARK    2  A    between atoms: O_2  and  C_26
REMARK    3  A    between atoms: O_6  and  C_25
REMARK    4  A    between atoms: O_6  and  C_29
REMARK    5  A    between atoms: O_15  and  C_41
REMARK    6  A    between atoms: C_17  and  C_26
REMARK    7  A    between atoms: C_30  and  C_33
REMARK                            x       y       z     vdW  Elec       q    Type
REMARK                         _______ _______ _______ _____ _____    ______ ____
ROOT
ATOM      1  O   UNL     1     111.093 127.509 137.305  0.00  0.00    +0.000 OA
ENDROOT
BRANCH   1   6
ATOM      2  O   UNL     1     112.300 127.987 135.550  0.00  0.00    +0.000 OA
ATOM      3  O   UNL     1     112.179 128.569 137.953  0.00  0.00    +0.000 OA
ATOM      4  O   UNL     1     113.315 129.450 137.826  0.00  0.00    +0.000 OA
ATOM      5  O   UNL     1     114.597 129.747 135.219  0.00  0.00    +0.000 OA
ATOM      6  C   UNL     1     111.676 127.845 136.829  0.00  0.00    +0.000 A 
ATOM      7  C   UNL     1     111.717 127.651 136.028  0.00  0.00    +0.000 A 
ATOM      8  C   UNL     1     112.220 128.375 137.152  0.00  0.00    +0.000 A 
ATOM      9  C   UNL     1     112.803 128.711 136.675  0.00  0.00    +0.000 A 
ATOM     10  C   UNL     1     112.843 128.517 135.875  0.00  0.00    +0.000 A 
ATOM     11  C   UNL     1     113.363 129.262 137.024  0.00  0.00    +0.000 A 
ATOM     12  C   UNL     1     113.446 128.860 135.367  0.00  0.00    +0.000 A 
ATOM     13  C   UNL     1     113.972 129.615 136.533  0.00  0.00    +0.000 A 
ATOM     14  C   UNL     1     114.014 129.413 135.698  0.00  0.00    +0.000 A 
BRANCH   7  16
ATOM     15  O   UNL     1     109.544 125.533 134.729  0.00  0.00    +0.000 OA
ATOM     16  C   UNL     1     111.174 127.121 135.703  0.00  0.00    +0.000 A 
ATOM     17  C   UNL     1     111.235 126.315 135.868  0.00  0.00    +0.000 A 
ATOM     18  C   UNL     1     110.570 127.398 135.214  0.00  0.00    +0.000 A 
ATOM     19  C   UNL     1     110.692 125.786 135.543  0.00  0.00    +0.000 A 
ATOM     20  C   UNL     1     110.027 126.868 134.889  0.00  0.00    +0.000 A 
ATOM     21  C   UNL     1     110.088 126.062 135.054  0.00  0.00    +0.000 A 
BRANCH  19  22
ATOM     22  O   UNL     1     110.752 124.980 135.707  0.00  0.00    +0.000 OA
ATOM     23  C   UNL     1     111.490 124.645 135.866  0.00  0.00    +0.000 C 
ENDBRANCH  19  22
ENDBRANCH   7  16
ENDBRANCH   1   6
BRANCH   1  32
ATOM     24  O   UNL     1     110.322 128.709 137.393  0.00  0.00    +0.000 OA
ATOM     25  O   UNL     1     109.002 129.448 138.966  0.00  0.00    +0.000 OA
ATOM     26  O   UNL     1     109.498 128.017 139.621  0.00  0.00    +0.000 OA
ATOM     27  O   UNL     1     110.544 127.048 138.791  0.00  0.00    +0.000 OA
ATOM     28  C   UNL     1     109.799 129.194 137.808  0.00  0.00    +0.000 C 
ATOM     29  C   UNL     1     109.525 128.963 138.551  0.00  0.00    +0.000 C 
ATOM     30  C   UNL     1     109.773 128.248 138.879  0.00  0.00    +0.000 C 
ATOM     31  C   UNL     1     110.295 127.763 138.464  0.00  0.00    +0.000 C 
ATOM     32  C   UNL     1     110.571 127.994 137.720  0.00  0.00    +0.000 C 
BRANCH  28  33
ATOM     33  C   UNL     1     109.552 129.909 137.480  0.00  0.00    +0.000 C 
BRANCH  33  34
ATOM     34  O   UNL     1     109.220 129.923 136.725  0.00  0.00    +0.000 OA
BRANCH  34  40
ATOM     35  O   UNL     1     109.621 131.279 136.517  0.00  0.00    +0.000 OA
ATOM     36  O   UNL     1     108.088 130.076 135.534  0.00  0.00    +0.000 OA
ATOM     37  O   UNL     1     107.923 131.508 134.731  0.00  0.00    +0.000 OA
ATOM     38  O   UNL     1     108.890 132.787 135.119  0.00  0.00    +0.000 OA
ATOM     39  C   UNL     1     108.571 130.715 135.728  0.00  0.00    +0.000 C 
ATOM     40  C   UNL     1     109.137 130.639 136.323  0.00  0.00    +0.000 C 
ATOM     41  C   UNL     1     108.489 131.431 135.327  0.00  0.00    +0.000 C 
ATOM     42  C   UNL     1     108.972 132.071 135.520  0.00  0.00    +0.000 C 
ATOM     43  C   UNL     1     109.538 131.994 136.116  0.00  0.00    +0.000 C 
ATOM     44  C   UNL     1     110.022 132.635 136.310  0.00  0.00    +0.000 C 
ENDBRANCH  34  40
ENDBRANCH  33  34
ENDBRANCH  28  33
ENDBRANCH   1  32
TORSDOF 7
ENDMDL
