MODEL 1
REMARK VINA RESULT:     -10.0      0.000      0.000
REMARK  Name = 131833061
REMARK  3 active torsions:
REMARK  status: ('A' for Active; 'I' for Inactive)
REMARK    1  A    between atoms: C_11  and  C_16
REMARK    2  A    between atoms: C_15  and  C_21
REMARK    3  A    between atoms: C_22  and  C_26
REMARK                            x       y       z     vdW  Elec       q    Type
REMARK                         _______ _______ _______ _____ _____    ______ ____
ROOT
ATOM      1  O   UNL     1     104.330 124.935 139.372  0.00  0.00    +0.000 OA
ATOM      2  O   UNL     1     106.164 124.437 141.554  0.00  0.00    +0.000 OA
ATOM      3  O   UNL     1     104.899 122.769 139.376  0.00  0.00    +0.000 OA
ATOM      4  O   UNL     1     105.143 127.072 141.126  0.00  0.00    +0.000 OA
ATOM      5  C   UNL     1     105.654 125.755 141.340  0.00  0.00    +0.000 A 
ATOM      6  C   UNL     1     105.259 124.686 140.478  0.00  0.00    +0.000 A 
ATOM      7  C   UNL     1     105.692 124.959 141.124  0.00  0.00    +0.000 A 
ATOM      8  C   UNL     1     105.307 123.855 140.262  0.00  0.00    +0.000 C 
ATOM      9  C   UNL     1     104.858 123.565 139.590  0.00  0.00    +0.000 C 
ATOM     10  C   UNL     1     104.367 124.109 139.142  0.00  0.00    +0.000 C 
ATOM     11  C   UNL     1     104.787 125.208 140.047  0.00  0.00    +0.000 A 
ATOM     12  C   UNL     1     105.182 126.277 140.910  0.00  0.00    +0.000 A 
ATOM     13  C   UNL     1     104.748 126.003 140.263  0.00  0.00    +0.000 A 
ENDROOT
BRANCH   5  18
ATOM     14  O   UNL     1     105.759 126.007 142.743  0.00  0.00    +0.000 OA
ATOM     15  O   UNL     1     107.180 126.344 141.121  0.00  0.00    +0.000 OA
ATOM     16  O   UNL     1     108.047 126.891 142.413  0.00  0.00    +0.000 OA
ATOM     17  O   UNL     1     107.389 126.848 143.925  0.00  0.00    +0.000 OA
ATOM     18  C   UNL     1     106.087 126.028 141.986  0.00  0.00    +0.000 C 
ATOM     19  C   UNL     1     106.850 126.322 141.876  0.00  0.00    +0.000 C 
ATOM     20  C   UNL     1     107.284 126.596 142.523  0.00  0.00    +0.000 C 
ATOM     21  C   UNL     1     106.955 126.575 143.279  0.00  0.00    +0.000 C 
ATOM     22  C   UNL     1     106.192 126.280 143.389  0.00  0.00    +0.000 C 
BRANCH  22  24
ATOM     23  O   UNL     1     105.127 125.906 144.266  0.00  0.00    +0.000 OA
ATOM     24  C   UNL     1     105.863 126.259 144.145  0.00  0.00    +0.000 C 
ENDBRANCH  22  24
ENDBRANCH   5  18
BRANCH  10  26
ATOM     25  O   UNL     1     101.854 123.453 137.946  0.00  0.00    +0.000 OA
ATOM     26  C   UNL     1     103.931 123.839 138.495  0.00  0.00    +0.000 A 
ATOM     27  C   UNL     1     103.110 123.781 138.544  0.00  0.00    +0.000 A 
ATOM     28  C   UNL     1     104.319 123.627 137.797  0.00  0.00    +0.000 A 
ATOM     29  C   UNL     1     102.676 123.511 137.897  0.00  0.00    +0.000 A 
ATOM     30  C   UNL     1     103.884 123.357 137.150  0.00  0.00    +0.000 A 
ATOM     31  C   UNL     1     103.063 123.299 137.200  0.00  0.00    +0.000 A 
ENDBRANCH  10  26
TORSDOF 3
ENDMDL
MODEL 2
REMARK VINA RESULT:      -9.7      7.853      8.913
REMARK  Name = 131833061
REMARK  3 active torsions:
REMARK  status: ('A' for Active; 'I' for Inactive)
REMARK    1  A    between atoms: C_11  and  C_16
REMARK    2  A    between atoms: C_15  and  C_21
REMARK    3  A    between atoms: C_22  and  C_26
REMARK                            x       y       z     vdW  Elec       q    Type
REMARK                         _______ _______ _______ _____ _____    ______ ____
ROOT
ATOM      1  O   UNL     1     113.470 126.109 138.727  0.00  0.00    +0.000 OA
ATOM      2  O   UNL     1     112.977 128.955 138.912  0.00  0.00    +0.000 OA
ATOM      3  O   UNL     1     112.518 126.817 136.827  0.00  0.00    +0.000 OA
ATOM      4  O   UNL     1     114.187 127.574 141.102  0.00  0.00    +0.000 OA
ATOM      5  C   UNL     1     113.582 128.265 140.007  0.00  0.00    +0.000 A 
ATOM      6  C   UNL     1     113.221 127.550 138.824  0.00  0.00    +0.000 A 
ATOM      7  C   UNL     1     113.260 128.256 139.248  0.00  0.00    +0.000 A 
ATOM      8  C   UNL     1     112.883 127.555 138.033  0.00  0.00    +0.000 C 
ATOM      9  C   UNL     1     112.841 126.822 137.586  0.00  0.00    +0.000 C 
ATOM     10  C   UNL     1     113.135 126.095 137.935  0.00  0.00    +0.000 C 
ATOM     11  C   UNL     1     113.504 126.852 139.159  0.00  0.00    +0.000 A 
ATOM     12  C   UNL     1     113.865 127.566 140.343  0.00  0.00    +0.000 A 
ATOM     13  C   UNL     1     113.826 126.859 139.918  0.00  0.00    +0.000 A 
ENDROOT
BRANCH   5  18
ATOM     14  O   UNL     1     114.256 129.485 140.321  0.00  0.00    +0.000 OA
ATOM     15  O   UNL     1     112.387 128.650 141.078  0.00  0.00    +0.000 OA
ATOM     16  O   UNL     1     112.464 130.063 141.927  0.00  0.00    +0.000 OA
ATOM     17  O   UNL     1     113.735 131.089 141.705  0.00  0.00    +0.000 OA
ATOM     18  C   UNL     1     113.620 128.971 140.432  0.00  0.00    +0.000 C 
ATOM     19  C   UNL     1     113.023 129.163 140.967  0.00  0.00    +0.000 C 
ATOM     20  C   UNL     1     113.061 129.870 141.392  0.00  0.00    +0.000 C 
ATOM     21  C   UNL     1     113.698 130.383 141.281  0.00  0.00    +0.000 C 
ATOM     22  C   UNL     1     114.295 130.191 140.745  0.00  0.00    +0.000 C 
BRANCH  22  24
ATOM     23  O   UNL     1     115.698 130.406 140.576  0.00  0.00    +0.000 OA
ATOM     24  C   UNL     1     114.930 130.704 140.635  0.00  0.00    +0.000 C 
ENDBRANCH  22  24
ENDBRANCH   5  18
BRANCH  10  26
ATOM     25  O   UNL     1     111.726 123.717 137.208  0.00  0.00    +0.000 OA
ATOM     26  C   UNL     1     113.098 125.386 137.514  0.00  0.00    +0.000 A 
ATOM     27  C   UNL     1     112.430 124.906 137.572  0.00  0.00    +0.000 A 
ATOM     28  C   UNL     1     113.730 125.159 137.034  0.00  0.00    +0.000 A 
ATOM     29  C   UNL     1     112.394 124.197 137.150  0.00  0.00    +0.000 A 
ATOM     30  C   UNL     1     113.694 124.451 136.613  0.00  0.00    +0.000 A 
ATOM     31  C   UNL     1     113.026 123.970 136.670  0.00  0.00    +0.000 A 
ENDBRANCH  10  26
TORSDOF 3
ENDMDL
MODEL 3
REMARK VINA RESULT:      -9.3      3.456      5.298
REMARK  Name = 131833061
REMARK  3 active torsions:
REMARK  status: ('A' for Active; 'I' for Inactive)
REMARK    1  A    between atoms: C_11  and  C_16
REMARK    2  A    between atoms: C_15  and  C_21
REMARK    3  A    between atoms: C_22  and  C_26
REMARK                            x       y       z     vdW  Elec       q    Type
REMARK                         _______ _______ _______ _____ _____    ______ ____
ROOT
ATOM      1  O   UNL     1     103.746 129.837 142.284  0.00  0.00    +0.000 OA
ATOM      2  O   UNL     1     104.728 127.420 141.033  0.00  0.00    +0.000 OA
ATOM      3  O   UNL     1     102.722 129.561 140.311  0.00  0.00    +0.000 OA
ATOM      4  O   UNL     1     105.737 128.213 143.587  0.00  0.00    +0.000 OA
ATOM      5  C   UNL     1     105.233 127.816 142.310  0.00  0.00    +0.000 A 
ATOM      6  C   UNL     1     104.245 128.613 141.653  0.00  0.00    +0.000 A 
ATOM      7  C   UNL     1     104.735 127.950 141.665  0.00  0.00    +0.000 A 
ATOM      8  C   UNL     1     103.731 128.741 140.976  0.00  0.00    +0.000 C 
ATOM      9  C   UNL     1     103.218 129.430 140.957  0.00  0.00    +0.000 C 
ATOM     10  C   UNL     1     103.226 129.982 141.616  0.00  0.00    +0.000 C 
ATOM     11  C   UNL     1     104.252 129.143 142.285  0.00  0.00    +0.000 A 
ATOM     12  C   UNL     1     105.240 128.346 142.942  0.00  0.00    +0.000 A 
ATOM     13  C   UNL     1     104.749 129.010 142.930  0.00  0.00    +0.000 A 
ENDROOT
BRANCH   5  18
ATOM     14  O   UNL     1     105.450 126.443 142.643  0.00  0.00    +0.000 OA
ATOM     15  O   UNL     1     106.761 127.908 141.693  0.00  0.00    +0.000 OA
ATOM     16  O   UNL     1     107.742 126.582 141.718  0.00  0.00    +0.000 OA
ATOM     17  O   UNL     1     107.195 125.164 142.359  0.00  0.00    +0.000 OA
ATOM     18  C   UNL     1     105.723 127.153 142.322  0.00  0.00    +0.000 C 
ATOM     19  C   UNL     1     106.487 127.199 142.014  0.00  0.00    +0.000 C 
ATOM     20  C   UNL     1     106.978 126.536 142.026  0.00  0.00    +0.000 C 
ATOM     21  C   UNL     1     106.704 125.827 142.347  0.00  0.00    +0.000 C 
ATOM     22  C   UNL     1     105.940 125.781 142.655  0.00  0.00    +0.000 C 
BRANCH  22  24
ATOM     23  O   UNL     1     105.287 125.068 143.708  0.00  0.00    +0.000 OA
ATOM     24  C   UNL     1     105.667 125.072 142.975  0.00  0.00    +0.000 C 
ENDBRANCH  22  24
ENDBRANCH   5  18
BRANCH  10  26
ATOM     25  O   UNL     1     102.838 132.765 141.091  0.00  0.00    +0.000 OA
ATOM     26  C   UNL     1     102.736 130.646 141.607  0.00  0.00    +0.000 A 
ATOM     27  C   UNL     1     103.032 131.374 141.353  0.00  0.00    +0.000 A 
ATOM     28  C   UNL     1     101.951 130.583 141.852  0.00  0.00    +0.000 A 
ATOM     29  C   UNL     1     102.542 132.038 141.345  0.00  0.00    +0.000 A 
ATOM     30  C   UNL     1     101.461 131.247 141.843  0.00  0.00    +0.000 A 
ATOM     31  C   UNL     1     101.757 131.974 141.590  0.00  0.00    +0.000 A 
ENDBRANCH  10  26
TORSDOF 3
ENDMDL
MODEL 4
REMARK VINA RESULT:      -9.2      3.594      6.924
REMARK  Name = 131833061
REMARK  3 active torsions:
REMARK  status: ('A' for Active; 'I' for Inactive)
REMARK    1  A    between atoms: C_11  and  C_16
REMARK    2  A    between atoms: C_15  and  C_21
REMARK    3  A    between atoms: C_22  and  C_26
REMARK                            x       y       z     vdW  Elec       q    Type
REMARK                         _______ _______ _______ _____ _____    ______ ____
ROOT
ATOM      1  O   UNL     1     106.615 126.006 146.871  0.00  0.00    +0.000 OA
ATOM      2  O   UNL     1     105.689 125.268 144.231  0.00  0.00    +0.000 OA
ATOM      3  O   UNL     1     105.604 124.010 146.977  0.00  0.00    +0.000 OA
ATOM      4  O   UNL     1     107.054 127.749 144.620  0.00  0.00    +0.000 OA
ATOM      5  C   UNL     1     106.371 126.508 144.425  0.00  0.00    +0.000 A 
ATOM      6  C   UNL     1     106.147 125.635 145.533  0.00  0.00    +0.000 A 
ATOM      7  C   UNL     1     106.069 125.804 144.730  0.00  0.00    +0.000 A 
ATOM      8  C   UNL     1     105.828 124.897 145.839  0.00  0.00    +0.000 C 
ATOM      9  C   UNL     1     105.907 124.716 146.675  0.00  0.00    +0.000 C 
ATOM     10  C   UNL     1     106.303 125.274 147.194  0.00  0.00    +0.000 C 
ATOM     11  C   UNL     1     106.528 126.170 146.032  0.00  0.00    +0.000 A 
ATOM     12  C   UNL     1     106.752 127.044 144.924  0.00  0.00    +0.000 A 
ATOM     13  C   UNL     1     106.830 126.875 145.728  0.00  0.00    +0.000 A 
ENDROOT
BRANCH   5  18
ATOM     14  O   UNL     1     106.874 126.433 143.089  0.00  0.00    +0.000 OA
ATOM     15  O   UNL     1     105.052 127.337 143.881  0.00  0.00    +0.000 OA
ATOM     16  O   UNL     1     104.896 127.676 142.274  0.00  0.00    +0.000 OA
ATOM     17  O   UNL     1     106.058 127.186 141.211  0.00  0.00    +0.000 OA
ATOM     18  C   UNL     1     106.293 126.678 143.622  0.00  0.00    +0.000 C 
ATOM     19  C   UNL     1     105.634 127.092 143.350  0.00  0.00    +0.000 C 
ATOM     20  C   UNL     1     105.555 127.261 142.545  0.00  0.00    +0.000 C 
ATOM     21  C   UNL     1     106.137 127.016 142.014  0.00  0.00    +0.000 C 
ATOM     22  C   UNL     1     106.796 126.602 142.286  0.00  0.00    +0.000 C 
BRANCH  22  24
ATOM     23  O   UNL     1     108.134 126.172 142.026  0.00  0.00    +0.000 OA
ATOM     24  C   UNL     1     107.377 126.357 141.755  0.00  0.00    +0.000 C 
ENDBRANCH  22  24
ENDBRANCH   5  18
BRANCH  10  26
ATOM     25  O   UNL     1     107.882 124.336 149.385  0.00  0.00    +0.000 OA
ATOM     26  C   UNL     1     106.383 125.108 147.999  0.00  0.00    +0.000 A 
ATOM     27  C   UNL     1     107.093 124.805 148.290  0.00  0.00    +0.000 A 
ATOM     28  C   UNL     1     105.752 125.245 148.513  0.00  0.00    +0.000 A 
ATOM     29  C   UNL     1     107.172 124.639 149.094  0.00  0.00    +0.000 A 
ATOM     30  C   UNL     1     105.831 125.080 149.317  0.00  0.00    +0.000 A 
ATOM     31  C   UNL     1     106.541 124.777 149.608  0.00  0.00    +0.000 A 
ENDBRANCH  10  26
TORSDOF 3
ENDMDL
MODEL 5
REMARK VINA RESULT:      -9.2      7.912      9.172
REMARK  Name = 131833061
REMARK  3 active torsions:
REMARK  status: ('A' for Active; 'I' for Inactive)
REMARK    1  A    between atoms: C_11  and  C_16
REMARK    2  A    between atoms: C_15  and  C_21
REMARK    3  A    between atoms: C_22  and  C_26
REMARK                            x       y       z     vdW  Elec       q    Type
REMARK                         _______ _______ _______ _____ _____    ______ ____
ROOT
ATOM      1  O   UNL     1     112.871 127.004 136.396  0.00  0.00    +0.000 OA
ATOM      2  O   UNL     1     110.884 128.747 137.574  0.00  0.00    +0.000 OA
ATOM      3  O   UNL     1     112.277 126.196 138.398  0.00  0.00    +0.000 OA
ATOM      4  O   UNL     1     111.965 129.355 134.999  0.00  0.00    +0.000 OA
ATOM      5  C   UNL     1     111.424 129.052 136.287  0.00  0.00    +0.000 A 
ATOM      6  C   UNL     1     111.865 127.888 136.990  0.00  0.00    +0.000 A 
ATOM      7  C   UNL     1     111.391 128.562 136.950  0.00  0.00    +0.000 A 
ATOM      8  C   UNL     1     111.821 127.386 137.687  0.00  0.00    +0.000 C 
ATOM      9  C   UNL     1     112.312 126.683 137.734  0.00  0.00    +0.000 C 
ATOM     10  C   UNL     1     112.841 126.491 137.084  0.00  0.00    +0.000 C 
ATOM     11  C   UNL     1     112.372 127.703 136.366  0.00  0.00    +0.000 A 
ATOM     12  C   UNL     1     111.931 128.867 135.663  0.00  0.00    +0.000 A 
ATOM     13  C   UNL     1     112.406 128.192 135.702  0.00  0.00    +0.000 A 
ENDROOT
BRANCH   5  18
ATOM     14  O   UNL     1     110.192 129.679 135.924  0.00  0.00    +0.000 OA
ATOM     15  O   UNL     1     111.992 130.494 136.852  0.00  0.00    +0.000 OA
ATOM     16  O   UNL     1     111.045 131.842 136.772  0.00  0.00    +0.000 OA
ATOM     17  O   UNL     1     109.530 131.748 136.127  0.00  0.00    +0.000 OA
ATOM     18  C   UNL     1     110.951 129.725 136.247  0.00  0.00    +0.000 C 
ATOM     19  C   UNL     1     111.235 130.446 136.529  0.00  0.00    +0.000 C 
ATOM     20  C   UNL     1     110.761 131.121 136.489  0.00  0.00    +0.000 C 
ATOM     21  C   UNL     1     110.003 131.074 136.167  0.00  0.00    +0.000 C 
ATOM     22  C   UNL     1     109.719 130.353 135.884  0.00  0.00    +0.000 C 
BRANCH  22  24
ATOM     23  O   UNL     1     108.563 129.584 135.546  0.00  0.00    +0.000 OA
ATOM     24  C   UNL     1     108.961 130.306 135.562  0.00  0.00    +0.000 C 
ENDBRANCH  22  24
ENDBRANCH   5  18
BRANCH  10  26
ATOM     25  O   UNL     1     113.261 123.722 136.511  0.00  0.00    +0.000 OA
ATOM     26  C   UNL     1     113.316 125.817 137.121  0.00  0.00    +0.000 A 
ATOM     27  C   UNL     1     113.051 125.106 136.797  0.00  0.00    +0.000 A 
ATOM     28  C   UNL     1     114.058 125.855 137.480  0.00  0.00    +0.000 A 
ATOM     29  C   UNL     1     113.527 124.433 136.834  0.00  0.00    +0.000 A 
ATOM     30  C   UNL     1     114.534 125.183 137.517  0.00  0.00    +0.000 A 
ATOM     31  C   UNL     1     114.268 124.471 137.194  0.00  0.00    +0.000 A 
ENDBRANCH  10  26
TORSDOF 3
ENDMDL
