MODEL 1
REMARK VINA RESULT:      -8.5      0.000      0.000
REMARK  Name = 471719
REMARK  2 active torsions:
REMARK  status: ('A' for Active; 'I' for Inactive)
REMARK    1  A    between atoms: O_2  and  C_13
REMARK    2  A    between atoms: C_8  and  C_15
REMARK                            x       y       z     vdW  Elec       q    Type
REMARK                         _______ _______ _______ _____ _____    ______ ____
ROOT
ATOM      1  O   UNL     1     105.496 124.312 147.197  0.00  0.00    +0.000 OA
ATOM      2  O   UNL     1     102.760 125.145 147.639  0.00  0.00    +0.000 OA
ATOM      3  O   UNL     1     102.281 124.288 146.313  0.00  0.00    +0.000 OA
ATOM      4  O   UNL     1     103.784 125.600 148.547  0.00  0.00    +0.000 OA
ATOM      5  C   UNL     1     104.110 124.732 147.418  0.00  0.00    +0.000 A 
ATOM      6  C   UNL     1     104.665 124.312 146.977  0.00  0.00    +0.000 A 
ATOM      7  C   UNL     1     105.751 124.757 147.887  0.00  0.00    +0.000 A 
ATOM      8  C   UNL     1     103.315 124.725 147.197  0.00  0.00    +0.000 A 
ATOM      9  C   UNL     1     104.347 125.183 148.111  0.00  0.00    +0.000 A 
ATOM     10  C   UNL     1     104.426 123.883 146.314  0.00  0.00    +0.000 A 
ATOM     11  C   UNL     1     105.173 125.195 148.347  0.00  0.00    +0.000 A 
ATOM     12  C   UNL     1     103.632 123.875 146.093  0.00  0.00    +0.000 A 
ATOM     13  C   UNL     1     103.077 124.296 146.535  0.00  0.00    +0.000 A 
ENDROOT
BRANCH   7  14
ATOM     14  C   UNL     1     106.547 124.763 148.106  0.00  0.00    +0.000 A 
ATOM     15  C   UNL     1     107.102 125.146 147.631  0.00  0.00    +0.000 A 
ATOM     16  C   UNL     1     106.786 124.387 148.800  0.00  0.00    +0.000 A 
ATOM     17  C   UNL     1     107.898 125.152 147.850  0.00  0.00    +0.000 A 
ATOM     18  C   UNL     1     107.582 124.394 149.019  0.00  0.00    +0.000 A 
ATOM     19  C   UNL     1     108.138 124.776 148.543  0.00  0.00    +0.000 A 
ENDBRANCH   7  14
BRANCH  12  20
ATOM     20  O   UNL     1     103.392 123.446 145.430  0.00  0.00    +0.000 OA
ATOM     21  C   UNL     1     103.771 122.739 145.237  0.00  0.00    +0.000 C 
ENDBRANCH  12  20
TORSDOF 2
ENDMDL
MODEL 2
REMARK VINA RESULT:      -8.5      1.365      4.191
REMARK  Name = 471719
REMARK  2 active torsions:
REMARK  status: ('A' for Active; 'I' for Inactive)
REMARK    1  A    between atoms: O_2  and  C_13
REMARK    2  A    between atoms: C_8  and  C_15
REMARK                            x       y       z     vdW  Elec       q    Type
REMARK                         _______ _______ _______ _____ _____    ______ ____
ROOT
ATOM      1  O   UNL     1     105.151 124.391 147.452  0.00  0.00    +0.000 OA
ATOM      2  O   UNL     1     107.503 125.572 146.246  0.00  0.00    +0.000 OA
ATOM      3  O   UNL     1     108.317 125.415 147.673  0.00  0.00    +0.000 OA
ATOM      4  O   UNL     1     106.314 125.407 145.446  0.00  0.00    +0.000 OA
ATOM      5  C   UNL     1     106.343 124.989 146.845  0.00  0.00    +0.000 A 
ATOM      6  C   UNL     1     105.967 124.658 147.500  0.00  0.00    +0.000 A 
ATOM      7  C   UNL     1     104.722 124.470 146.712  0.00  0.00    +0.000 A 
ATOM      8  C   UNL     1     107.126 125.241 146.902  0.00  0.00    +0.000 A 
ATOM      9  C   UNL     1     105.930 125.075 146.096  0.00  0.00    +0.000 A 
ATOM     10  C   UNL     1     106.374 124.580 148.213  0.00  0.00    +0.000 A 
ATOM     11  C   UNL     1     105.114 124.814 146.030  0.00  0.00    +0.000 A 
ATOM     12  C   UNL     1     107.156 124.832 148.271  0.00  0.00    +0.000 A 
ATOM     13  C   UNL     1     107.533 125.163 147.615  0.00  0.00    +0.000 A 
ENDROOT
BRANCH   7  14
ATOM     14  C   UNL     1     103.939 124.217 146.657  0.00  0.00    +0.000 A 
ATOM     15  C   UNL     1     103.759 123.514 146.265  0.00  0.00    +0.000 A 
ATOM     16  C   UNL     1     103.335 124.667 146.995  0.00  0.00    +0.000 A 
ATOM     17  C   UNL     1     102.976 123.260 146.210  0.00  0.00    +0.000 A 
ATOM     18  C   UNL     1     102.552 124.413 146.939  0.00  0.00    +0.000 A 
ATOM     19  C   UNL     1     102.372 123.710 146.547  0.00  0.00    +0.000 A 
ENDBRANCH   7  14
BRANCH  12  20
ATOM     20  O   UNL     1     107.564 124.754 148.984  0.00  0.00    +0.000 OA
ATOM     21  C   UNL     1     107.259 124.275 149.582  0.00  0.00    +0.000 C 
ENDBRANCH  12  20
TORSDOF 2
ENDMDL
MODEL 3
REMARK VINA RESULT:      -8.4      7.775      8.963
REMARK  Name = 471719
REMARK  2 active torsions:
REMARK  status: ('A' for Active; 'I' for Inactive)
REMARK    1  A    between atoms: O_2  and  C_13
REMARK    2  A    between atoms: C_8  and  C_15
REMARK                            x       y       z     vdW  Elec       q    Type
REMARK                         _______ _______ _______ _____ _____    ______ ____
ROOT
ATOM      1  O   UNL     1     102.932 130.412 142.063  0.00  0.00    +0.000 OA
ATOM      2  O   UNL     1     103.619 128.271 140.240  0.00  0.00    +0.000 OA
ATOM      3  O   UNL     1     104.690 127.671 141.343  0.00  0.00    +0.000 OA
ATOM      4  O   UNL     1     102.635 129.245 139.836  0.00  0.00    +0.000 OA
ATOM      5  C   UNL     1     103.282 129.327 141.142  0.00  0.00    +0.000 A 
ATOM      6  C   UNL     1     103.381 129.705 141.869  0.00  0.00    +0.000 A 
ATOM      7  C   UNL     1     102.373 130.729 141.492  0.00  0.00    +0.000 A 
ATOM      8  C   UNL     1     103.718 128.649 140.967  0.00  0.00    +0.000 A 
ATOM      9  C   UNL     1     102.727 129.630 140.559  0.00  0.00    +0.000 A 
ATOM     10  C   UNL     1     103.916 129.405 142.420  0.00  0.00    +0.000 A 
ATOM     11  C   UNL     1     102.270 130.335 140.736  0.00  0.00    +0.000 A 
ATOM     12  C   UNL     1     104.352 128.728 142.245  0.00  0.00    +0.000 A 
ATOM     13  C   UNL     1     104.253 128.350 141.519  0.00  0.00    +0.000 A 
ENDROOT
BRANCH   7  14
ATOM     14  C   UNL     1     101.939 131.407 141.670  0.00  0.00    +0.000 A 
ATOM     15  C   UNL     1     102.262 132.153 141.531  0.00  0.00    +0.000 A 
ATOM     16  C   UNL     1     101.180 131.339 141.987  0.00  0.00    +0.000 A 
ATOM     17  C   UNL     1     101.827 132.831 141.708  0.00  0.00    +0.000 A 
ATOM     18  C   UNL     1     100.745 132.018 142.165  0.00  0.00    +0.000 A 
ATOM     19  C   UNL     1     101.069 132.764 142.025  0.00  0.00    +0.000 A 
ENDBRANCH   7  14
BRANCH  12  20
ATOM     20  O   UNL     1     104.888 128.428 142.796  0.00  0.00    +0.000 OA
ATOM     21  C   UNL     1     104.941 128.767 143.546  0.00  0.00    +0.000 C 
ENDBRANCH  12  20
TORSDOF 2
ENDMDL
MODEL 4
REMARK VINA RESULT:      -8.2      2.074      2.701
REMARK  Name = 471719
REMARK  2 active torsions:
REMARK  status: ('A' for Active; 'I' for Inactive)
REMARK    1  A    between atoms: O_2  and  C_13
REMARK    2  A    between atoms: C_8  and  C_15
REMARK                            x       y       z     vdW  Elec       q    Type
REMARK                         _______ _______ _______ _____ _____    ______ ____
ROOT
ATOM      1  O   UNL     1     106.473 124.799 146.858  0.00  0.00    +0.000 OA
ATOM      2  O   UNL     1     106.477 126.981 144.956  0.00  0.00    +0.000 OA
ATOM      3  O   UNL     1     105.605 126.064 143.897  0.00  0.00    +0.000 OA
ATOM      4  O   UNL     1     107.142 127.157 146.223  0.00  0.00    +0.000 OA
ATOM      5  C   UNL     1     106.473 125.902 145.893  0.00  0.00    +0.000 A 
ATOM      6  C   UNL     1     106.254 125.133 146.097  0.00  0.00    +0.000 A 
ATOM      7  C   UNL     1     106.927 125.271 147.413  0.00  0.00    +0.000 A 
ATOM      8  C   UNL     1     106.257 126.212 145.160  0.00  0.00    +0.000 A 
ATOM      9  C   UNL     1     106.927 126.389 146.436  0.00  0.00    +0.000 A 
ATOM     10  C   UNL     1     105.818 124.675 145.567  0.00  0.00    +0.000 A 
ATOM     11  C   UNL     1     107.155 126.072 147.201  0.00  0.00    +0.000 A 
ATOM     12  C   UNL     1     105.602 124.984 144.835  0.00  0.00    +0.000 A 
ATOM     13  C   UNL     1     105.821 125.753 144.631  0.00  0.00    +0.000 A 
ENDROOT
BRANCH   7  14
ATOM     14  C   UNL     1     107.142 124.959 148.146  0.00  0.00    +0.000 A 
ATOM     15  C   UNL     1     106.563 124.792 148.709  0.00  0.00    +0.000 A 
ATOM     16  C   UNL     1     107.936 124.813 148.315  0.00  0.00    +0.000 A 
ATOM     17  C   UNL     1     106.778 124.480 149.442  0.00  0.00    +0.000 A 
ATOM     18  C   UNL     1     108.150 124.500 149.048  0.00  0.00    +0.000 A 
ATOM     19  C   UNL     1     107.571 124.333 149.611  0.00  0.00    +0.000 A 
ENDBRANCH   7  14
BRANCH  12  20
ATOM     20  O   UNL     1     105.166 124.526 144.305  0.00  0.00    +0.000 OA
ATOM     21  C   UNL     1     104.803 123.831 144.562  0.00  0.00    +0.000 C 
ENDBRANCH  12  20
TORSDOF 2
ENDMDL
MODEL 5
REMARK VINA RESULT:      -8.1     11.794     12.727
REMARK  Name = 471719
REMARK  2 active torsions:
REMARK  status: ('A' for Active; 'I' for Inactive)
REMARK    1  A    between atoms: O_2  and  C_13
REMARK    2  A    between atoms: C_8  and  C_15
REMARK                            x       y       z     vdW  Elec       q    Type
REMARK                         _______ _______ _______ _____ _____    ______ ____
ROOT
ATOM      1  O   UNL     1     111.055 125.948 136.827  0.00  0.00    +0.000 OA
ATOM      2  O   UNL     1     108.872 126.640 135.056  0.00  0.00    +0.000 OA
ATOM      3  O   UNL     1     108.418 127.848 136.083  0.00  0.00    +0.000 OA
ATOM      4  O   UNL     1     109.745 125.549 134.697  0.00  0.00    +0.000 OA
ATOM      5  C   UNL     1     109.949 126.301 135.933  0.00  0.00    +0.000 A 
ATOM      6  C   UNL     1     110.373 126.433 136.627  0.00  0.00    +0.000 A 
ATOM      7  C   UNL     1     111.296 125.317 136.296  0.00  0.00    +0.000 A 
ATOM      8  C   UNL     1     109.297 126.772 135.751  0.00  0.00    +0.000 A 
ATOM      9  C   UNL     1     110.176 125.674 135.390  0.00  0.00    +0.000 A 
ATOM     10  C   UNL     1     110.146 127.037 137.140  0.00  0.00    +0.000 A 
ATOM     11  C   UNL     1     110.854 125.179 135.573  0.00  0.00    +0.000 A 
ATOM     12  C   UNL     1     109.495 127.509 136.960  0.00  0.00    +0.000 A 
ATOM     13  C   UNL     1     109.070 127.376 136.265  0.00  0.00    +0.000 A 
ENDROOT
BRANCH   7  14
ATOM     14  C   UNL     1     111.948 124.847 136.480  0.00  0.00    +0.000 A 
ATOM     15  C   UNL     1     111.837 124.093 136.797  0.00  0.00    +0.000 A 
ATOM     16  C   UNL     1     112.712 125.130 136.347  0.00  0.00    +0.000 A 
ATOM     17  C   UNL     1     112.489 123.623 136.981  0.00  0.00    +0.000 A 
ATOM     18  C   UNL     1     113.364 124.658 136.531  0.00  0.00    +0.000 A 
ATOM     19  C   UNL     1     113.253 123.905 136.848  0.00  0.00    +0.000 A 
ENDBRANCH   7  14
BRANCH  12  20
ATOM     20  O   UNL     1     109.267 128.113 137.473  0.00  0.00    +0.000 OA
ATOM     21  C   UNL     1     109.805 128.412 138.022  0.00  0.00    +0.000 C 
ENDBRANCH  12  20
TORSDOF 2
ENDMDL
MODEL 6
REMARK VINA RESULT:      -8.1     13.046     13.640
REMARK  Name = 471719
REMARK  2 active torsions:
REMARK  status: ('A' for Active; 'I' for Inactive)
REMARK    1  A    between atoms: O_2  and  C_13
REMARK    2  A    between atoms: C_8  and  C_15
REMARK                            x       y       z     vdW  Elec       q    Type
REMARK                         _______ _______ _______ _____ _____    ______ ____
ROOT
ATOM      1  O   UNL     1     112.507 126.491 136.213  0.00  0.00    +0.000 OA
ATOM      2  O   UNL     1     109.956 125.734 135.074  0.00  0.00    +0.000 OA
ATOM      3  O   UNL     1     109.690 127.298 134.622  0.00  0.00    +0.000 OA
ATOM      4  O   UNL     1     110.774 124.720 135.694  0.00  0.00    +0.000 OA
ATOM      5  C   UNL     1     111.215 126.111 135.636  0.00  0.00    +0.000 A 
ATOM      6  C   UNL     1     111.778 126.690 135.804  0.00  0.00    +0.000 A 
ATOM      7  C   UNL     1     112.651 125.678 136.451  0.00  0.00    +0.000 A 
ATOM      8  C   UNL     1     110.519 126.313 135.242  0.00  0.00    +0.000 A 
ATOM      9  C   UNL     1     111.343 125.292 135.866  0.00  0.00    +0.000 A 
ATOM     10  C   UNL     1     111.645 127.472 135.578  0.00  0.00    +0.000 A 
ATOM     11  C   UNL     1     112.065 125.075 136.277  0.00  0.00    +0.000 A 
ATOM     12  C   UNL     1     110.950 127.675 135.184  0.00  0.00    +0.000 A 
ATOM     13  C   UNL     1     110.387 127.095 135.016  0.00  0.00    +0.000 A 
ENDROOT
BRANCH   7  14
ATOM     14  C   UNL     1     113.348 125.478 136.845  0.00  0.00    +0.000 A 
ATOM     15  C   UNL     1     113.959 125.103 136.437  0.00  0.00    +0.000 A 
ATOM     16  C   UNL     1     113.434 125.653 137.647  0.00  0.00    +0.000 A 
ATOM     17  C   UNL     1     114.656 124.903 136.831  0.00  0.00    +0.000 A 
ATOM     18  C   UNL     1     114.132 125.453 138.040  0.00  0.00    +0.000 A 
ATOM     19  C   UNL     1     114.743 125.077 137.632  0.00  0.00    +0.000 A 
ENDBRANCH   7  14
BRANCH  12  20
ATOM     20  O   UNL     1     110.816 128.457 134.958  0.00  0.00    +0.000 OA
ATOM     21  C   UNL     1     111.445 128.990 134.928  0.00  0.00    +0.000 C 
ENDBRANCH  12  20
TORSDOF 2
ENDMDL
MODEL 7
REMARK VINA RESULT:      -7.9      1.627      3.948
REMARK  Name = 471719
REMARK  2 active torsions:
REMARK  status: ('A' for Active; 'I' for Inactive)
REMARK    1  A    between atoms: O_2  and  C_13
REMARK    2  A    between atoms: C_8  and  C_15
REMARK                            x       y       z     vdW  Elec       q    Type
REMARK                         _______ _______ _______ _____ _____    ______ ____
ROOT
ATOM      1  O   UNL     1     103.950 124.300 145.865  0.00  0.00    +0.000 OA
ATOM      2  O   UNL     1     106.245 125.040 147.466  0.00  0.00    +0.000 OA
ATOM      3  O   UNL     1     107.087 125.407 146.095  0.00  0.00    +0.000 OA
ATOM      4  O   UNL     1     105.049 124.581 148.128  0.00  0.00    +0.000 OA
ATOM      5  C   UNL     1     105.114 124.675 146.673  0.00  0.00    +0.000 A 
ATOM      6  C   UNL     1     104.758 124.585 145.934  0.00  0.00    +0.000 A 
ATOM      7  C   UNL     1     103.507 124.107 146.575  0.00  0.00    +0.000 A 
ATOM      8  C   UNL     1     105.890 124.950 146.727  0.00  0.00    +0.000 A 
ATOM      9  C   UNL     1     104.685 124.487 147.394  0.00  0.00    +0.000 A 
ATOM     10  C   UNL     1     105.179 124.768 145.249  0.00  0.00    +0.000 A 
ATOM     11  C   UNL     1     103.877 124.202 147.344  0.00  0.00    +0.000 A 
ATOM     12  C   UNL     1     105.955 125.042 145.302  0.00  0.00    +0.000 A 
ATOM     13  C   UNL     1     106.310 125.133 146.041  0.00  0.00    +0.000 A 
ENDROOT
BRANCH   7  14
ATOM     14  C   UNL     1     102.731 123.833 146.518  0.00  0.00    +0.000 A 
ATOM     15  C   UNL     1     102.102 124.340 146.685  0.00  0.00    +0.000 A 
ATOM     16  C   UNL     1     102.584 123.052 146.295  0.00  0.00    +0.000 A 
ATOM     17  C   UNL     1     101.325 124.065 146.629  0.00  0.00    +0.000 A 
ATOM     18  C   UNL     1     101.807 122.779 146.239  0.00  0.00    +0.000 A 
ATOM     19  C   UNL     1     101.178 123.285 146.406  0.00  0.00    +0.000 A 
ENDBRANCH   7  14
BRANCH  12  20
ATOM     20  O   UNL     1     106.376 125.226 144.617  0.00  0.00    +0.000 OA
ATOM     21  C   UNL     1     105.982 125.287 143.895  0.00  0.00    +0.000 C 
ENDBRANCH  12  20
TORSDOF 2
ENDMDL
MODEL 8
REMARK VINA RESULT:      -7.9     12.608     13.857
REMARK  Name = 471719
REMARK  2 active torsions:
REMARK  status: ('A' for Active; 'I' for Inactive)
REMARK    1  A    between atoms: O_2  and  C_13
REMARK    2  A    between atoms: C_8  and  C_15
REMARK                            x       y       z     vdW  Elec       q    Type
REMARK                         _______ _______ _______ _____ _____    ______ ____
ROOT
ATOM      1  O   UNL     1     112.025 125.746 136.006  0.00  0.00    +0.000 OA
ATOM      2  O   UNL     1     113.317 123.554 137.385  0.00  0.00    +0.000 OA
ATOM      3  O   UNL     1     114.764 124.339 137.285  0.00  0.00    +0.000 OA
ATOM      4  O   UNL     1     111.899 123.481 137.130  0.00  0.00    +0.000 OA
ATOM      5  C   UNL     1     112.682 124.638 136.704  0.00  0.00    +0.000 A 
ATOM      6  C   UNL     1     112.726 125.376 136.338  0.00  0.00    +0.000 A 
ATOM      7  C   UNL     1     111.269 125.342 136.055  0.00  0.00    +0.000 A 
ATOM      8  C   UNL     1     113.361 124.292 137.020  0.00  0.00    +0.000 A 
ATOM      9  C   UNL     1     111.933 124.219 136.763  0.00  0.00    +0.000 A 
ATOM     10  C   UNL     1     113.450 125.768 136.288  0.00  0.00    +0.000 A 
ATOM     11  C   UNL     1     111.223 124.573 136.436  0.00  0.00    +0.000 A 
ATOM     12  C   UNL     1     114.129 125.423 136.603  0.00  0.00    +0.000 A 
ATOM     13  C   UNL     1     114.084 124.685 136.969  0.00  0.00    +0.000 A 
ENDROOT
BRANCH   7  14
ATOM     14  C   UNL     1     110.591 125.690 135.739  0.00  0.00    +0.000 A 
ATOM     15  C   UNL     1     110.439 125.637 134.930  0.00  0.00    +0.000 A 
ATOM     16  C   UNL     1     110.065 126.091 136.232  0.00  0.00    +0.000 A 
ATOM     17  C   UNL     1     109.761 125.984 134.614  0.00  0.00    +0.000 A 
ATOM     18  C   UNL     1     109.386 126.439 135.915  0.00  0.00    +0.000 A 
ATOM     19  C   UNL     1     109.235 126.385 135.106  0.00  0.00    +0.000 A 
ENDBRANCH   7  14
BRANCH  12  20
ATOM     20  O   UNL     1     114.853 125.815 136.553  0.00  0.00    +0.000 OA
ATOM     21  C   UNL     1     114.919 126.503 136.102  0.00  0.00    +0.000 C 
ENDBRANCH  12  20
TORSDOF 2
ENDMDL
MODEL 9
REMARK VINA RESULT:      -7.8     13.215     13.793
REMARK  Name = 471719
REMARK  2 active torsions:
REMARK  status: ('A' for Active; 'I' for Inactive)
REMARK    1  A    between atoms: O_2  and  C_13
REMARK    2  A    between atoms: C_8  and  C_15
REMARK                            x       y       z     vdW  Elec       q    Type
REMARK                         _______ _______ _______ _____ _____    ______ ____
ROOT
ATOM      1  O   UNL     1     112.335 126.220 136.148  0.00  0.00    +0.000 OA
ATOM      2  O   UNL     1     111.542 128.867 135.286  0.00  0.00    +0.000 OA
ATOM      3  O   UNL     1     110.160 128.244 134.636  0.00  0.00    +0.000 OA
ATOM      4  O   UNL     1     112.790 128.706 135.991  0.00  0.00    +0.000 OA
ATOM      5  C   UNL     1     111.931 127.559 135.711  0.00  0.00    +0.000 A 
ATOM      6  C   UNL     1     111.780 126.749 135.760  0.00  0.00    +0.000 A 
ATOM      7  C   UNL     1     113.057 126.538 136.489  0.00  0.00    +0.000 A 
ATOM      8  C   UNL     1     111.391 128.057 135.336  0.00  0.00    +0.000 A 
ATOM      9  C   UNL     1     112.648 127.895 136.046  0.00  0.00    +0.000 A 
ATOM     10  C   UNL     1     111.089 126.438 135.435  0.00  0.00    +0.000 A 
ATOM     11  C   UNL     1     113.214 127.381 136.437  0.00  0.00    +0.000 A 
ATOM     12  C   UNL     1     110.549 126.936 135.060  0.00  0.00    +0.000 A 
ATOM     13  C   UNL     1     110.700 127.746 135.011  0.00  0.00    +0.000 A 
ENDROOT
BRANCH   7  14
ATOM     14  C   UNL     1     113.595 126.038 136.863  0.00  0.00    +0.000 A 
ATOM     15  C   UNL     1     114.129 125.597 136.415  0.00  0.00    +0.000 A 
ATOM     16  C   UNL     1     113.600 125.979 137.686  0.00  0.00    +0.000 A 
ATOM     17  C   UNL     1     114.667 125.096 136.789  0.00  0.00    +0.000 A 
ATOM     18  C   UNL     1     114.139 125.478 138.060  0.00  0.00    +0.000 A 
ATOM     19  C   UNL     1     114.673 125.037 137.611  0.00  0.00    +0.000 A 
ENDBRANCH   7  14
BRANCH  12  20
ATOM     20  O   UNL     1     109.858 126.625 134.735  0.00  0.00    +0.000 OA
ATOM     21  C   UNL     1     109.708 125.815 134.783  0.00  0.00    +0.000 C 
ENDBRANCH  12  20
TORSDOF 2
ENDMDL
MODEL 10
REMARK VINA RESULT:      -7.8     13.203     13.888
REMARK  Name = 471719
REMARK  2 active torsions:
REMARK  status: ('A' for Active; 'I' for Inactive)
REMARK    1  A    between atoms: O_2  and  C_13
REMARK    2  A    between atoms: C_8  and  C_15
REMARK                            x       y       z     vdW  Elec       q    Type
REMARK                         _______ _______ _______ _____ _____    ______ ____
ROOT
ATOM      1  O   UNL     1     112.467 127.175 136.073  0.00  0.00    +0.000 OA
ATOM      2  O   UNL     1     112.950 124.421 136.821  0.00  0.00    +0.000 OA
ATOM      3  O   UNL     1     111.469 123.997 136.230  0.00  0.00    +0.000 OA
ATOM      4  O   UNL     1     113.966 125.408 137.092  0.00  0.00    +0.000 OA
ATOM      5  C   UNL     1     112.709 125.780 136.450  0.00  0.00    +0.000 A 
ATOM      6  C   UNL     1     112.218 126.353 136.118  0.00  0.00    +0.000 A 
ATOM      7  C   UNL     1     113.237 127.402 136.379  0.00  0.00    +0.000 A 
ATOM      8  C   UNL     1     112.459 124.994 136.488  0.00  0.00    +0.000 A 
ATOM      9  C   UNL     1     113.482 125.988 136.761  0.00  0.00    +0.000 A 
ATOM     10  C   UNL     1     111.478 126.141 135.823  0.00  0.00    +0.000 A 
ATOM     11  C   UNL     1     113.748 126.804 136.725  0.00  0.00    +0.000 A 
ATOM     12  C   UNL     1     111.228 125.357 135.860  0.00  0.00    +0.000 A 
ATOM     13  C   UNL     1     111.719 124.783 136.193  0.00  0.00    +0.000 A 
ENDROOT
BRANCH   7  14
ATOM     14  C   UNL     1     113.484 128.188 136.340  0.00  0.00    +0.000 A 
ATOM     15  C   UNL     1     113.940 128.446 135.703  0.00  0.00    +0.000 A 
ATOM     16  C   UNL     1     113.274 128.716 136.938  0.00  0.00    +0.000 A 
ATOM     17  C   UNL     1     114.187 129.232 135.665  0.00  0.00    +0.000 A 
ATOM     18  C   UNL     1     113.522 129.502 136.899  0.00  0.00    +0.000 A 
ATOM     19  C   UNL     1     113.978 129.760 136.262  0.00  0.00    +0.000 A 
ENDBRANCH   7  14
BRANCH  12  20
ATOM     20  O   UNL     1     110.487 125.144 135.565  0.00  0.00    +0.000 OA
ATOM     21  C   UNL     1     110.055 125.680 135.111  0.00  0.00    +0.000 C 
ENDBRANCH  12  20
TORSDOF 2
ENDMDL
