MODEL 1
REMARK VINA RESULT:     -10.8      0.000      0.000
REMARK  Name = 131751171
REMARK  16 active torsions:
REMARK  status: ('A' for Active; 'I' for Inactive)
REMARK    1  A    between atoms: O_1  and  C_25
REMARK    2  A    between atoms: O_1  and  C_30
REMARK    3  A    between atoms: O_4  and  C_34
REMARK    4  A    between atoms: O_4  and  C_35
REMARK    5  A    between atoms: O_6  and  C_32
REMARK    6  A    between atoms: O_6  and  C_42
REMARK    7  A    between atoms: O_11  and  C_36
REMARK    8  A    between atoms: O_11  and  C_45
REMARK    9  A    between atoms: O_20  and  C_54
REMARK   10  A    between atoms: O_22  and  C_57
REMARK   11  A    between atoms: C_28  and  C_34
REMARK   12  A    between atoms: C_29  and  C_38
REMARK   13  A    between atoms: C_40  and  C_41
REMARK   14  A    between atoms: C_43  and  C_47
REMARK   15  A    between atoms: C_45  and  C_49
REMARK   16  A    between atoms: C_56  and  C_60
REMARK                            x       y       z     vdW  Elec       q    Type
REMARK                         _______ _______ _______ _____ _____    ______ ____
ROOT
ATOM      1  O   UNL     1     110.756 130.408 137.791  0.00  0.00    +0.000 OA
ATOM      2  O   UNL     1     109.740 132.665 137.783  0.00  0.00    +0.000 OA
ATOM      3  O   UNL     1     110.301 132.017 139.194  0.00  0.00    +0.000 OA
ATOM      4  C   UNL     1     110.137 131.483 137.084  0.00  0.00    +0.000 C 
ATOM      5  C   UNL     1     110.079 131.912 137.786  0.00  0.00    +0.000 C 
ATOM      6  C   UNL     1     110.359 131.588 138.492  0.00  0.00    +0.000 C 
ATOM      7  C   UNL     1     110.698 130.836 138.494  0.00  0.00    +0.000 C 
ATOM      8  C   UNL     1     110.476 130.731 137.086  0.00  0.00    +0.000 C 
ENDROOT
BRANCH   8   9
ATOM      9  O   UNL     1     110.534 130.303 136.383  0.00  0.00    +0.000 OA
BRANCH   9  14
ATOM     10  O   UNL     1     111.876 128.668 135.843  0.00  0.00    +0.000 OA
ATOM     11  O   UNL     1     111.995 131.070 136.429  0.00  0.00    +0.000 OA
ATOM     12  O   UNL     1     113.430 131.063 136.284  0.00  0.00    +0.000 OA
ATOM     13  O   UNL     1     114.770 128.579 135.534  0.00  0.00    +0.000 OA
ATOM     14  C   UNL     1     111.225 129.886 136.211  0.00  0.00    +0.000 A 
ATOM     15  C   UNL     1     111.185 129.085 136.016  0.00  0.00    +0.000 A 
ATOM     16  C   UNL     1     111.955 130.269 136.233  0.00  0.00    +0.000 A 
ATOM     17  C   UNL     1     112.646 129.852 136.061  0.00  0.00    +0.000 A 
ATOM     18  C   UNL     1     112.605 129.051 135.866  0.00  0.00    +0.000 A 
ATOM     19  C   UNL     1     113.400 130.262 136.088  0.00  0.00    +0.000 A 
ATOM     20  C   UNL     1     113.317 128.606 135.685  0.00  0.00    +0.000 A 
ATOM     21  C   UNL     1     114.123 129.833 135.910  0.00  0.00    +0.000 A 
ATOM     22  C   UNL     1     114.082 128.999 135.706  0.00  0.00    +0.000 A 
BRANCH  15  24
ATOM     23  O   UNL     1     108.264 127.553 135.925  0.00  0.00    +0.000 OA
ATOM     24  C   UNL     1     110.454 128.702 135.993  0.00  0.00    +0.000 A 
ATOM     25  C   UNL     1     110.185 128.291 136.655  0.00  0.00    +0.000 A 
ATOM     26  C   UNL     1     109.995 128.730 135.308  0.00  0.00    +0.000 A 
ATOM     27  C   UNL     1     109.454 127.907 136.632  0.00  0.00    +0.000 A 
ATOM     28  C   UNL     1     109.265 128.348 135.286  0.00  0.00    +0.000 A 
ATOM     29  C   UNL     1     108.994 127.936 135.948  0.00  0.00    +0.000 A 
BRANCH  27  30
ATOM     30  O   UNL     1     109.184 127.496 137.294  0.00  0.00    +0.000 OA
ATOM     31  C   UNL     1     109.526 126.774 137.500  0.00  0.00    +0.000 C 
ENDBRANCH  27  30
ENDBRANCH  15  24
BRANCH  21  32
ATOM     32  O   UNL     1     114.852 130.219 135.933  0.00  0.00    +0.000 OA
ATOM     33  C   UNL     1     115.201 130.484 135.234  0.00  0.00    +0.000 C 
ENDBRANCH  21  32
ENDBRANCH   9  14
ENDBRANCH   8   9
BRANCH   7  34
ATOM     34  C   UNL     1     110.978 130.512 139.199  0.00  0.00    +0.000 C 
BRANCH  34  35
ATOM     35  O   UNL     1     111.639 130.018 139.193  0.00  0.00    +0.000 OA
BRANCH  35  39
ATOM     36  O   UNL     1     111.967 130.420 140.523  0.00  0.00    +0.000 OA
ATOM     37  O   UNL     1     113.696 128.653 140.631  0.00  0.00    +0.000 OA
ATOM     38  O   UNL     1     113.448 129.644 141.926  0.00  0.00    +0.000 OA
ATOM     39  C   UNL     1     112.091 129.924 139.875  0.00  0.00    +0.000 C 
ATOM     40  C   UNL     1     112.668 129.335 139.912  0.00  0.00    +0.000 C 
ATOM     41  C   UNL     1     113.120 129.242 140.595  0.00  0.00    +0.000 C 
ATOM     42  C   UNL     1     112.996 129.737 141.243  0.00  0.00    +0.000 C 
ATOM     43  C   UNL     1     112.420 130.327 141.207  0.00  0.00    +0.000 C 
BRANCH  43  45
ATOM     44  O   UNL     1     111.530 130.953 142.133  0.00  0.00    +0.000 OA
ATOM     45  C   UNL     1     112.296 130.822 141.855  0.00  0.00    +0.000 C 
ENDBRANCH  43  45
BRANCH  40  46
ATOM     46  O   UNL     1     112.792 128.839 139.264  0.00  0.00    +0.000 OA
BRANCH  46  48
ATOM     47  O   UNL     1     111.990 127.782 139.793  0.00  0.00    +0.000 OA
ATOM     48  C   UNL     1     112.618 128.035 139.321  0.00  0.00    +0.000 C 
BRANCH  48  49
ATOM     49  C   UNL     1     113.071 127.484 138.906  0.00  0.00    +0.000 C 
ATOM     50  C   UNL     1     112.752 126.749 138.715  0.00  0.00    +0.000 C 
BRANCH  50  52
ATOM     51  O   UNL     1     114.565 124.546 137.055  0.00  0.00    +0.000 OA
ATOM     52  C   UNL     1     113.205 126.198 138.300  0.00  0.00    +0.000 A 
ATOM     53  C   UNL     1     112.867 125.765 137.684  0.00  0.00    +0.000 A 
ATOM     54  C   UNL     1     113.997 126.080 138.500  0.00  0.00    +0.000 A 
ATOM     55  C   UNL     1     113.320 125.214 137.269  0.00  0.00    +0.000 A 
ATOM     56  C   UNL     1     114.450 125.529 138.085  0.00  0.00    +0.000 A 
ATOM     57  C   UNL     1     114.111 125.097 137.470  0.00  0.00    +0.000 A 
ENDBRANCH  50  52
ENDBRANCH  48  49
ENDBRANCH  46  48
ENDBRANCH  40  46
ENDBRANCH  35  39
ENDBRANCH  34  35
ENDBRANCH   7  34
BRANCH   4  58
ATOM     58  O   UNL     1     109.857 131.808 136.378  0.00  0.00    +0.000 OA
BRANCH  58  63
ATOM     59  O   UNL     1     108.457 131.488 136.695  0.00  0.00    +0.000 OA
ATOM     60  O   UNL     1     107.785 132.181 134.791  0.00  0.00    +0.000 OA
ATOM     61  O   UNL     1     109.093 132.337 134.842  0.00  0.00    +0.000 OA
ATOM     62  C   UNL     1     107.890 131.881 135.553  0.00  0.00    +0.000 C 
ATOM     63  C   UNL     1     109.052 131.772 136.199  0.00  0.00    +0.000 C 
ATOM     64  C   UNL     1     108.701 132.015 135.494  0.00  0.00    +0.000 C 
ATOM     65  C   UNL     1     107.739 131.555 136.296  0.00  0.00    +0.000 C 
BRANCH  62  67
ATOM     66  O   UNL     1     106.799 132.202 134.686  0.00  0.00    +0.000 OA
ATOM     67  C   UNL     1     107.085 131.846 135.374  0.00  0.00    +0.000 C 
ENDBRANCH  62  67
ENDBRANCH  58  63
ENDBRANCH   4  58
TORSDOF 16
ENDMDL
MODEL 2
REMARK VINA RESULT:     -10.4      1.518      4.886
REMARK  Name = 131751171
REMARK  16 active torsions:
REMARK  status: ('A' for Active; 'I' for Inactive)
REMARK    1  A    between atoms: O_1  and  C_25
REMARK    2  A    between atoms: O_1  and  C_30
REMARK    3  A    between atoms: O_4  and  C_34
REMARK    4  A    between atoms: O_4  and  C_35
REMARK    5  A    between atoms: O_6  and  C_32
REMARK    6  A    between atoms: O_6  and  C_42
REMARK    7  A    between atoms: O_11  and  C_36
REMARK    8  A    between atoms: O_11  and  C_45
REMARK    9  A    between atoms: O_20  and  C_54
REMARK   10  A    between atoms: O_22  and  C_57
REMARK   11  A    between atoms: C_28  and  C_34
REMARK   12  A    between atoms: C_29  and  C_38
REMARK   13  A    between atoms: C_40  and  C_41
REMARK   14  A    between atoms: C_43  and  C_47
REMARK   15  A    between atoms: C_45  and  C_49
REMARK   16  A    between atoms: C_56  and  C_60
REMARK                            x       y       z     vdW  Elec       q    Type
REMARK                         _______ _______ _______ _____ _____    ______ ____
ROOT
ATOM      1  O   UNL     1     110.831 129.922 139.344  0.00  0.00    +0.000 OA
ATOM      2  O   UNL     1     110.360 131.672 141.029  0.00  0.00    +0.000 OA
ATOM      3  O   UNL     1     109.238 131.318 139.873  0.00  0.00    +0.000 OA
ATOM      4  C   UNL     1     111.235 130.682 140.484  0.00  0.00    +0.000 C 
ATOM      5  C   UNL     1     110.517 131.089 140.468  0.00  0.00    +0.000 C 
ATOM      6  C   UNL     1     109.956 130.911 139.889  0.00  0.00    +0.000 C 
ATOM      7  C   UNL     1     110.112 130.328 139.327  0.00  0.00    +0.000 C 
ATOM      8  C   UNL     1     111.391 130.099 139.922  0.00  0.00    +0.000 C 
ENDROOT
BRANCH   8   9
ATOM      9  O   UNL     1     112.110 129.693 139.939  0.00  0.00    +0.000 OA
BRANCH   9  14
ATOM     10  O   UNL     1     113.120 128.583 138.354  0.00  0.00    +0.000 OA
ATOM     11  O   UNL     1     112.462 130.910 138.882  0.00  0.00    +0.000 OA
ATOM     12  O   UNL     1     113.032 131.382 137.644  0.00  0.00    +0.000 OA
ATOM     13  O   UNL     1     114.291 129.464 135.837  0.00  0.00    +0.000 OA
ATOM     14  C   UNL     1     112.505 129.525 139.235  0.00  0.00    +0.000 A 
ATOM     15  C   UNL     1     112.725 128.750 139.058  0.00  0.00    +0.000 A 
ATOM     16  C   UNL     1     112.682 130.134 138.706  0.00  0.00    +0.000 A 
ATOM     17  C   UNL     1     113.077 129.967 138.001  0.00  0.00    +0.000 A 
ATOM     18  C   UNL     1     113.296 129.191 137.826  0.00  0.00    +0.000 A 
ATOM     19  C   UNL     1     113.255 130.609 137.460  0.00  0.00    +0.000 A 
ATOM     20  C   UNL     1     113.709 129.005 137.096  0.00  0.00    +0.000 A 
ATOM     21  C   UNL     1     113.667 130.442 136.724  0.00  0.00    +0.000 A 
ATOM     22  C   UNL     1     113.896 129.634 136.541  0.00  0.00    +0.000 A 
BRANCH  15  24
ATOM     23  O   UNL     1     112.018 126.316 141.172  0.00  0.00    +0.000 OA
ATOM     24  C   UNL     1     112.548 128.141 139.587  0.00  0.00    +0.000 A 
ATOM     25  C   UNL     1     111.916 127.634 139.435  0.00  0.00    +0.000 A 
ATOM     26  C   UNL     1     113.003 128.041 140.268  0.00  0.00    +0.000 A 
ATOM     27  C   UNL     1     111.739 127.025 139.964  0.00  0.00    +0.000 A 
ATOM     28  C   UNL     1     112.827 127.433 140.796  0.00  0.00    +0.000 A 
ATOM     29  C   UNL     1     112.195 126.924 140.644  0.00  0.00    +0.000 A 
BRANCH  27  30
ATOM     30  O   UNL     1     111.107 126.517 139.811  0.00  0.00    +0.000 OA
ATOM     31  C   UNL     1     110.332 126.777 139.923  0.00  0.00    +0.000 C 
ENDBRANCH  27  30
ENDBRANCH  15  24
BRANCH  21  32
ATOM     32  O   UNL     1     113.842 131.052 136.198  0.00  0.00    +0.000 OA
ATOM     33  C   UNL     1     114.626 131.277 136.073  0.00  0.00    +0.000 C 
ENDBRANCH  21  32
ENDBRANCH   9  14
ENDBRANCH   8   9
BRANCH   7  34
ATOM     34  C   UNL     1     109.552 130.151 138.749  0.00  0.00    +0.000 C 
BRANCH  34  35
ATOM     35  O   UNL     1     109.794 129.912 137.997  0.00  0.00    +0.000 OA
BRANCH  35  39
ATOM     36  O   UNL     1     108.976 130.786 137.218  0.00  0.00    +0.000 OA
ATOM     37  O   UNL     1     108.497 128.936 135.647  0.00  0.00    +0.000 OA
ATOM     38  O   UNL     1     107.838 130.427 135.391  0.00  0.00    +0.000 OA
ATOM     39  C   UNL     1     109.305 130.040 137.346  0.00  0.00    +0.000 C 
ATOM     40  C   UNL     1     109.145 129.424 136.822  0.00  0.00    +0.000 C 
ATOM     41  C   UNL     1     108.657 129.552 136.170  0.00  0.00    +0.000 C 
ATOM     42  C   UNL     1     108.327 130.297 136.042  0.00  0.00    +0.000 C 
ATOM     43  C   UNL     1     108.487 130.915 136.566  0.00  0.00    +0.000 C 
BRANCH  43  45
ATOM     44  O   UNL     1     107.654 131.991 137.002  0.00  0.00    +0.000 OA
ATOM     45  C   UNL     1     108.158 131.660 136.438  0.00  0.00    +0.000 C 
ENDBRANCH  43  45
BRANCH  40  46
ATOM     46  O   UNL     1     109.474 128.678 136.950  0.00  0.00    +0.000 OA
BRANCH  46  48
ATOM     47  O   UNL     1     110.471 128.904 135.952  0.00  0.00    +0.000 OA
ATOM     48  C   UNL     1     110.047 128.385 136.433  0.00  0.00    +0.000 C 
BRANCH  48  49
ATOM     49  C   UNL     1     110.197 127.575 136.398  0.00  0.00    +0.000 C 
ATOM     50  C   UNL     1     110.865 127.295 136.004  0.00  0.00    +0.000 C 
BRANCH  50  52
ATOM     51  O   UNL     1     111.461 124.053 135.864  0.00  0.00    +0.000 OA
ATOM     52  C   UNL     1     111.014 126.485 135.969  0.00  0.00    +0.000 A 
ATOM     53  C   UNL     1     110.500 125.988 135.556  0.00  0.00    +0.000 A 
ATOM     54  C   UNL     1     111.676 126.170 136.347  0.00  0.00    +0.000 A 
ATOM     55  C   UNL     1     110.649 125.177 135.521  0.00  0.00    +0.000 A 
ATOM     56  C   UNL     1     111.825 125.359 136.312  0.00  0.00    +0.000 A 
ATOM     57  C   UNL     1     111.312 124.863 135.899  0.00  0.00    +0.000 A 
ENDBRANCH  50  52
ENDBRANCH  48  49
ENDBRANCH  46  48
ENDBRANCH  40  46
ENDBRANCH  35  39
ENDBRANCH  34  35
ENDBRANCH   7  34
BRANCH   4  58
ATOM     58  O   UNL     1     111.796 130.860 141.063  0.00  0.00    +0.000 OA
BRANCH  58  63
ATOM     59  O   UNL     1     111.108 130.069 142.094  0.00  0.00    +0.000 OA
ATOM     60  O   UNL     1     112.398 130.803 143.629  0.00  0.00    +0.000 OA
ATOM     61  O   UNL     1     112.767 131.354 142.489  0.00  0.00    +0.000 OA
ATOM     62  C   UNL     1     111.831 130.436 143.154  0.00  0.00    +0.000 C 
ATOM     63  C   UNL     1     111.685 130.601 141.838  0.00  0.00    +0.000 C 
ATOM     64  C   UNL     1     112.131 130.828 142.493  0.00  0.00    +0.000 C 
ATOM     65  C   UNL     1     111.199 129.967 142.907  0.00  0.00    +0.000 C 
BRANCH  62  67
ATOM     66  O   UNL     1     111.704 130.723 144.549  0.00  0.00    +0.000 OA
ATOM     67  C   UNL     1     111.720 130.177 143.929  0.00  0.00    +0.000 C 
ENDBRANCH  62  67
ENDBRANCH  58  63
ENDBRANCH   4  58
TORSDOF 16
ENDMDL
MODEL 3
REMARK VINA RESULT:     -10.3      2.339      6.254
REMARK  Name = 131751171
REMARK  16 active torsions:
REMARK  status: ('A' for Active; 'I' for Inactive)
REMARK    1  A    between atoms: O_1  and  C_25
REMARK    2  A    between atoms: O_1  and  C_30
REMARK    3  A    between atoms: O_4  and  C_34
REMARK    4  A    between atoms: O_4  and  C_35
REMARK    5  A    between atoms: O_6  and  C_32
REMARK    6  A    between atoms: O_6  and  C_42
REMARK    7  A    between atoms: O_11  and  C_36
REMARK    8  A    between atoms: O_11  and  C_45
REMARK    9  A    between atoms: O_20  and  C_54
REMARK   10  A    between atoms: O_22  and  C_57
REMARK   11  A    between atoms: C_28  and  C_34
REMARK   12  A    between atoms: C_29  and  C_38
REMARK   13  A    between atoms: C_40  and  C_41
REMARK   14  A    between atoms: C_43  and  C_47
REMARK   15  A    between atoms: C_45  and  C_49
REMARK   16  A    between atoms: C_56  and  C_60
REMARK                            x       y       z     vdW  Elec       q    Type
REMARK                         _______ _______ _______ _____ _____    ______ ____
ROOT
ATOM      1  O   UNL     1     112.514 127.337 139.718  0.00  0.00    +0.000 OA
ATOM      2  O   UNL     1     114.486 127.773 141.149  0.00  0.00    +0.000 OA
ATOM      3  O   UNL     1     114.550 126.599 139.992  0.00  0.00    +0.000 OA
ATOM      4  C   UNL     1     113.139 128.069 140.774  0.00  0.00    +0.000 C 
ATOM      5  C   UNL     1     113.829 127.628 140.672  0.00  0.00    +0.000 C 
ATOM      6  C   UNL     1     113.861 127.040 140.093  0.00  0.00    +0.000 C 
ATOM      7  C   UNL     1     113.204 126.895 139.616  0.00  0.00    +0.000 C 
ATOM      8  C   UNL     1     112.482 127.924 140.297  0.00  0.00    +0.000 C 
ENDROOT
BRANCH   8   9
ATOM      9  O   UNL     1     111.793 128.366 140.399  0.00  0.00    +0.000 OA
BRANCH   9  14
ATOM     10  O   UNL     1     109.782 127.987 139.638  0.00  0.00    +0.000 OA
ATOM     11  O   UNL     1     111.393 127.004 141.239  0.00  0.00    +0.000 OA
ATOM     12  O   UNL     1     110.466 125.948 141.567  0.00  0.00    +0.000 OA
ATOM     13  O   UNL     1     107.860 125.886 140.249  0.00  0.00    +0.000 OA
ATOM     14  C   UNL     1     111.056 128.013 140.285  0.00  0.00    +0.000 A 
ATOM     15  C   UNL     1     110.519 128.340 139.751  0.00  0.00    +0.000 A 
ATOM     16  C   UNL     1     110.856 127.331 140.705  0.00  0.00    +0.000 A 
ATOM     17  C   UNL     1     110.119 126.978 140.592  0.00  0.00    +0.000 A 
ATOM     18  C   UNL     1     109.583 127.306 140.057  0.00  0.00    +0.000 A 
ATOM     19  C   UNL     1     109.922 126.269 141.035  0.00  0.00    +0.000 A 
ATOM     20  C   UNL     1     108.812 126.947 139.930  0.00  0.00    +0.000 A 
ATOM     21  C   UNL     1     109.157 125.896 140.921  0.00  0.00    +0.000 A 
ATOM     22  C   UNL     1     108.598 126.237 140.365  0.00  0.00    +0.000 A 
BRANCH  15  24
ATOM     23  O   UNL     1     111.320 131.065 138.072  0.00  0.00    +0.000 OA
ATOM     24  C   UNL     1     110.720 129.022 139.331  0.00  0.00    +0.000 A 
ATOM     25  C   UNL     1     110.627 129.763 139.681  0.00  0.00    +0.000 A 
ATOM     26  C   UNL     1     111.012 128.961 138.562  0.00  0.00    +0.000 A 
ATOM     27  C   UNL     1     110.828 130.445 139.260  0.00  0.00    +0.000 A 
ATOM     28  C   UNL     1     111.212 129.642 138.142  0.00  0.00    +0.000 A 
ATOM     29  C   UNL     1     111.120 130.385 138.491  0.00  0.00    +0.000 A 
BRANCH  27  30
ATOM     30  O   UNL     1     110.735 131.186 139.610  0.00  0.00    +0.000 OA
ATOM     31  C   UNL     1     110.163 131.300 140.193  0.00  0.00    +0.000 C 
ENDBRANCH  27  30
ENDBRANCH  15  24
BRANCH  21  32
ATOM     32  O   UNL     1     108.959 125.215 141.343  0.00  0.00    +0.000 OA
ATOM     33  C   UNL     1     108.799 124.513 140.940  0.00  0.00    +0.000 C 
ENDBRANCH  21  32
ENDBRANCH   9  14
ENDBRANCH   8   9
BRANCH   7  34
ATOM     34  C   UNL     1     113.236 126.308 139.038  0.00  0.00    +0.000 C 
BRANCH  34  35
ATOM     35  O   UNL     1     113.103 126.500 138.246  0.00  0.00    +0.000 OA
BRANCH  35  39
ATOM     36  O   UNL     1     112.332 125.333 137.959  0.00  0.00    +0.000 OA
ATOM     37  O   UNL     1     113.184 125.343 135.636  0.00  0.00    +0.000 OA
ATOM     38  O   UNL     1     112.129 124.171 136.122  0.00  0.00    +0.000 OA
ATOM     39  C   UNL     1     112.860 125.919 137.715  0.00  0.00    +0.000 C 
ATOM     40  C   UNL     1     113.144 125.921 136.940  0.00  0.00    +0.000 C 
ATOM     41  C   UNL     1     112.900 125.340 136.410  0.00  0.00    +0.000 C 
ATOM     42  C   UNL     1     112.373 124.754 136.653  0.00  0.00    +0.000 C 
ATOM     43  C   UNL     1     112.088 124.750 137.427  0.00  0.00    +0.000 C 
BRANCH  43  45
ATOM     44  O   UNL     1     111.058 124.303 138.310  0.00  0.00    +0.000 OA
ATOM     45  C   UNL     1     111.561 124.164 137.671  0.00  0.00    +0.000 C 
ENDBRANCH  43  45
BRANCH  40  46
ATOM     46  O   UNL     1     113.671 126.507 136.697  0.00  0.00    +0.000 OA
BRANCH  46  48
ATOM     47  O   UNL     1     112.606 127.214 136.061  0.00  0.00    +0.000 OA
ATOM     48  C   UNL     1     113.392 127.179 136.308  0.00  0.00    +0.000 C 
BRANCH  48  49
ATOM     49  C   UNL     1     113.899 127.814 136.166  0.00  0.00    +0.000 C 
ATOM     50  C   UNL     1     113.608 128.503 135.819  0.00  0.00    +0.000 C 
BRANCH  50  52
ATOM     51  O   UNL     1     115.635 131.045 135.250  0.00  0.00    +0.000 OA
ATOM     52  C   UNL     1     114.115 129.138 135.677  0.00  0.00    +0.000 A 
ATOM     53  C   UNL     1     114.184 129.744 136.234  0.00  0.00    +0.000 A 
ATOM     54  C   UNL     1     114.553 129.170 134.978  0.00  0.00    +0.000 A 
ATOM     55  C   UNL     1     114.691 130.379 136.092  0.00  0.00    +0.000 A 
ATOM     56  C   UNL     1     115.059 129.805 134.836  0.00  0.00    +0.000 A 
ATOM     57  C   UNL     1     115.128 130.409 135.393  0.00  0.00    +0.000 A 
ENDBRANCH  50  52
ENDBRANCH  48  49
ENDBRANCH  46  48
ENDBRANCH  40  46
ENDBRANCH  35  39
ENDBRANCH  34  35
ENDBRANCH   7  34
BRANCH   4  58
ATOM     58  O   UNL     1     113.107 128.657 141.353  0.00  0.00    +0.000 OA
BRANCH  58  63
ATOM     59  O   UNL     1     113.990 129.565 140.606  0.00  0.00    +0.000 OA
ATOM     60  O   UNL     1     113.592 131.180 141.944  0.00  0.00    +0.000 OA
ATOM     61  O   UNL     1     112.906 130.132 142.356  0.00  0.00    +0.000 OA
ATOM     62  C   UNL     1     113.840 130.661 141.352  0.00  0.00    +0.000 C 
ATOM     63  C   UNL     1     113.470 129.386 141.221  0.00  0.00    +0.000 C 
ATOM     64  C   UNL     1     113.378 130.064 141.682  0.00  0.00    +0.000 C 
ATOM     65  C   UNL     1     114.218 130.353 140.686  0.00  0.00    +0.000 C 
BRANCH  62  67
ATOM     66  O   UNL     1     114.952 131.541 141.534  0.00  0.00    +0.000 OA
ATOM     67  C   UNL     1     114.203 131.390 141.220  0.00  0.00    +0.000 C 
ENDBRANCH  62  67
ENDBRANCH  58  63
ENDBRANCH   4  58
TORSDOF 16
ENDMDL
MODEL 4
REMARK VINA RESULT:     -10.3      1.178      2.662
REMARK  Name = 131751171
REMARK  16 active torsions:
REMARK  status: ('A' for Active; 'I' for Inactive)
REMARK    1  A    between atoms: O_1  and  C_25
REMARK    2  A    between atoms: O_1  and  C_30
REMARK    3  A    between atoms: O_4  and  C_34
REMARK    4  A    between atoms: O_4  and  C_35
REMARK    5  A    between atoms: O_6  and  C_32
REMARK    6  A    between atoms: O_6  and  C_42
REMARK    7  A    between atoms: O_11  and  C_36
REMARK    8  A    between atoms: O_11  and  C_45
REMARK    9  A    between atoms: O_20  and  C_54
REMARK   10  A    between atoms: O_22  and  C_57
REMARK   11  A    between atoms: C_28  and  C_34
REMARK   12  A    between atoms: C_29  and  C_38
REMARK   13  A    between atoms: C_40  and  C_41
REMARK   14  A    between atoms: C_43  and  C_47
REMARK   15  A    between atoms: C_45  and  C_49
REMARK   16  A    between atoms: C_56  and  C_60
REMARK                            x       y       z     vdW  Elec       q    Type
REMARK                         _______ _______ _______ _____ _____    ______ ____
ROOT
ATOM      1  O   UNL     1     110.682 129.464 137.716  0.00  0.00    +0.000 OA
ATOM      2  O   UNL     1     108.714 128.379 136.678  0.00  0.00    +0.000 OA
ATOM      3  O   UNL     1     109.346 127.776 138.078  0.00  0.00    +0.000 OA
ATOM      4  C   UNL     1     109.711 129.404 136.671  0.00  0.00    +0.000 C 
ATOM      5  C   UNL     1     109.370 128.741 137.024  0.00  0.00    +0.000 C 
ATOM      6  C   UNL     1     109.686 128.439 137.724  0.00  0.00    +0.000 C 
ATOM      7  C   UNL     1     110.342 128.800 138.071  0.00  0.00    +0.000 C 
ATOM      8  C   UNL     1     110.366 129.765 137.017  0.00  0.00    +0.000 C 
ENDROOT
BRANCH   8   9
ATOM      9  O   UNL     1     110.706 130.429 136.662  0.00  0.00    +0.000 OA
BRANCH   9  14
ATOM     10  O   UNL     1     112.684 131.263 137.061  0.00  0.00    +0.000 OA
ATOM     11  O   UNL     1     111.668 129.332 135.892  0.00  0.00    +0.000 OA
ATOM     12  O   UNL     1     112.970 128.852 135.495  0.00  0.00    +0.000 OA
ATOM     13  O   UNL     1     115.343 130.355 136.295  0.00  0.00    +0.000 OA
ATOM     14  C   UNL     1     111.525 130.524 136.667  0.00  0.00    +0.000 A 
ATOM     15  C   UNL     1     111.864 131.167 137.057  0.00  0.00    +0.000 A 
ATOM     16  C   UNL     1     112.007 129.975 136.282  0.00  0.00    +0.000 A 
ATOM     17  C   UNL     1     112.827 130.071 136.286  0.00  0.00    +0.000 A 
ATOM     18  C   UNL     1     113.164 130.715 136.676  0.00  0.00    +0.000 A 
ATOM     19  C   UNL     1     113.317 129.493 135.882  0.00  0.00    +0.000 A 
ATOM     20  C   UNL     1     114.016 130.825 136.688  0.00  0.00    +0.000 A 
ATOM     21  C   UNL     1     114.171 129.586 135.883  0.00  0.00    +0.000 A 
ATOM     22  C   UNL     1     114.524 130.257 136.289  0.00  0.00    +0.000 A 
BRANCH  15  24
ATOM     23  O   UNL     1     109.939 133.361 138.596  0.00  0.00    +0.000 OA
ATOM     24  C   UNL     1     111.383 131.716 137.442  0.00  0.00    +0.000 A 
ATOM     25  C   UNL     1     111.068 132.354 137.023  0.00  0.00    +0.000 A 
ATOM     26  C   UNL     1     111.216 131.627 138.245  0.00  0.00    +0.000 A 
ATOM     27  C   UNL     1     110.587 132.903 137.409  0.00  0.00    +0.000 A 
ATOM     28  C   UNL     1     110.735 132.175 138.629  0.00  0.00    +0.000 A 
ATOM     29  C   UNL     1     110.420 132.813 138.212  0.00  0.00    +0.000 A 
BRANCH  27  30
ATOM     30  O   UNL     1     110.272 133.540 136.990  0.00  0.00    +0.000 OA
ATOM     31  C   UNL     1     110.553 133.717 136.235  0.00  0.00    +0.000 C 
ENDBRANCH  27  30
ENDBRANCH  15  24
BRANCH  21  32
ATOM     32  O   UNL     1     114.650 129.036 135.497  0.00  0.00    +0.000 OA
ATOM     33  C   UNL     1     114.959 129.209 134.752  0.00  0.00    +0.000 C 
ENDBRANCH  21  32
ENDBRANCH   9  14
ENDBRANCH   8   9
BRANCH   7  34
ATOM     34  C   UNL     1     110.658 128.499 138.770  0.00  0.00    +0.000 C 
BRANCH  34  35
ATOM     35  O   UNL     1     111.440 128.236 138.791  0.00  0.00    +0.000 OA
BRANCH  35  39
ATOM     36  O   UNL     1     111.489 128.490 140.196  0.00  0.00    +0.000 OA
ATOM     37  O   UNL     1     113.781 127.562 140.283  0.00  0.00    +0.000 OA
ATOM     38  O   UNL     1     113.067 128.126 141.659  0.00  0.00    +0.000 OA
ATOM     39  C   UNL     1     111.846 128.209 139.508  0.00  0.00    +0.000 C 
ATOM     40  C   UNL     1     112.611 127.899 139.537  0.00  0.00    +0.000 C 
ATOM     41  C   UNL     1     113.018 127.871 140.254  0.00  0.00    +0.000 C 
ATOM     42  C   UNL     1     112.661 128.153 140.942  0.00  0.00    +0.000 C 
ATOM     43  C   UNL     1     111.896 128.463 140.914  0.00  0.00    +0.000 C 
BRANCH  43  45
ATOM     44  O   UNL     1     110.719 128.709 141.684  0.00  0.00    +0.000 OA
ATOM     45  C   UNL     1     111.539 128.745 141.602  0.00  0.00    +0.000 C 
ENDBRANCH  43  45
BRANCH  40  46
ATOM     46  O   UNL     1     112.968 127.617 138.849  0.00  0.00    +0.000 OA
BRANCH  46  48
ATOM     47  O   UNL     1     112.517 126.287 139.107  0.00  0.00    +0.000 OA
ATOM     48  C   UNL     1     113.026 126.805 138.717  0.00  0.00    +0.000 C 
BRANCH  48  49
ATOM     49  C   UNL     1     113.594 126.512 138.195  0.00  0.00    +0.000 C 
ATOM     50  C   UNL     1     113.434 125.836 137.750  0.00  0.00    +0.000 C 
BRANCH  50  52
ATOM     51  O   UNL     1     115.703 124.661 135.662  0.00  0.00    +0.000 OA
ATOM     52  C   UNL     1     114.001 125.543 137.228  0.00  0.00    +0.000 A 
ATOM     53  C   UNL     1     114.473 124.902 137.448  0.00  0.00    +0.000 A 
ATOM     54  C   UNL     1     114.098 125.889 136.485  0.00  0.00    +0.000 A 
ATOM     55  C   UNL     1     115.040 124.608 136.926  0.00  0.00    +0.000 A 
ATOM     56  C   UNL     1     114.665 125.595 135.963  0.00  0.00    +0.000 A 
ATOM     57  C   UNL     1     115.136 124.955 136.184  0.00  0.00    +0.000 A 
ENDBRANCH  50  52
ENDBRANCH  48  49
ENDBRANCH  46  48
ENDBRANCH  40  46
ENDBRANCH  35  39
ENDBRANCH  34  35
ENDBRANCH   7  34
BRANCH   4  58
ATOM     58  O   UNL     1     109.394 129.706 135.970  0.00  0.00    +0.000 OA
BRANCH  58  63
ATOM     59  O   UNL     1     108.285 130.388 136.653  0.00  0.00    +0.000 OA
ATOM     60  O   UNL     1     107.790 131.504 134.902  0.00  0.00    +0.000 OA
ATOM     61  O   UNL     1     108.821 130.733 134.615  0.00  0.00    +0.000 OA
ATOM     62  C   UNL     1     107.859 131.152 135.645  0.00  0.00    +0.000 C 
ATOM     63  C   UNL     1     108.763 130.236 135.997  0.00  0.00    +0.000 C 
ATOM     64  C   UNL     1     108.499 130.709 135.375  0.00  0.00    +0.000 C 
ATOM     65  C   UNL     1     107.726 130.953 136.434  0.00  0.00    +0.000 C 
BRANCH  62  67
ATOM     66  O   UNL     1     106.981 132.066 134.984  0.00  0.00    +0.000 OA
ATOM     67  C   UNL     1     107.228 131.682 135.672  0.00  0.00    +0.000 C 
ENDBRANCH  62  67
ENDBRANCH  58  63
ENDBRANCH   4  58
TORSDOF 16
ENDMDL
MODEL 5
REMARK VINA RESULT:     -10.3      1.668      4.956
REMARK  Name = 131751171
REMARK  16 active torsions:
REMARK  status: ('A' for Active; 'I' for Inactive)
REMARK    1  A    between atoms: O_1  and  C_25
REMARK    2  A    between atoms: O_1  and  C_30
REMARK    3  A    between atoms: O_4  and  C_34
REMARK    4  A    between atoms: O_4  and  C_35
REMARK    5  A    between atoms: O_6  and  C_32
REMARK    6  A    between atoms: O_6  and  C_42
REMARK    7  A    between atoms: O_11  and  C_36
REMARK    8  A    between atoms: O_11  and  C_45
REMARK    9  A    between atoms: O_20  and  C_54
REMARK   10  A    between atoms: O_22  and  C_57
REMARK   11  A    between atoms: C_28  and  C_34
REMARK   12  A    between atoms: C_29  and  C_38
REMARK   13  A    between atoms: C_40  and  C_41
REMARK   14  A    between atoms: C_43  and  C_47
REMARK   15  A    between atoms: C_45  and  C_49
REMARK   16  A    between atoms: C_56  and  C_60
REMARK                            x       y       z     vdW  Elec       q    Type
REMARK                         _______ _______ _______ _____ _____    ______ ____
ROOT
ATOM      1  O   UNL     1     112.213 129.298 139.118  0.00  0.00    +0.000 OA
ATOM      2  O   UNL     1     112.809 131.010 140.804  0.00  0.00    +0.000 OA
ATOM      3  O   UNL     1     113.850 130.669 139.569  0.00  0.00    +0.000 OA
ATOM      4  C   UNL     1     111.891 130.038 140.297  0.00  0.00    +0.000 C 
ATOM      5  C   UNL     1     112.610 130.439 140.242  0.00  0.00    +0.000 C 
ATOM      6  C   UNL     1     113.131 130.269 139.624  0.00  0.00    +0.000 C 
ATOM      7  C   UNL     1     112.932 129.698 139.062  0.00  0.00    +0.000 C 
ATOM      8  C   UNL     1     111.692 129.468 139.735  0.00  0.00    +0.000 C 
ENDROOT
BRANCH   8   9
ATOM      9  O   UNL     1     110.973 129.067 139.791  0.00  0.00    +0.000 OA
BRANCH   9  14
ATOM     10  O   UNL     1     109.986 127.808 138.306  0.00  0.00    +0.000 OA
ATOM     11  O   UNL     1     110.571 130.188 138.649  0.00  0.00    +0.000 OA
ATOM     12  O   UNL     1     109.975 130.546 137.384  0.00  0.00    +0.000 OA
ATOM     13  O   UNL     1     108.764 128.456 135.743  0.00  0.00    +0.000 OA
ATOM     14  C   UNL     1     110.577 128.834 139.106  0.00  0.00    +0.000 A 
ATOM     15  C   UNL     1     110.382 128.041 138.991  0.00  0.00    +0.000 A 
ATOM     16  C   UNL     1     110.376 129.395 138.534  0.00  0.00    +0.000 A 
ATOM     17  C   UNL     1     109.980 129.162 137.849  0.00  0.00    +0.000 A 
ATOM     18  C   UNL     1     109.785 128.368 137.735  0.00  0.00    +0.000 A 
ATOM     19  C   UNL     1     109.776 129.755 137.262  0.00  0.00    +0.000 A 
ATOM     20  C   UNL     1     109.373 128.113 137.026  0.00  0.00    +0.000 A 
ATOM     21  C   UNL     1     109.363 129.519 136.546  0.00  0.00    +0.000 A 
ATOM     22  C   UNL     1     109.160 128.692 136.427  0.00  0.00    +0.000 A 
BRANCH  15  24
ATOM     23  O   UNL     1     111.186 125.800 141.276  0.00  0.00    +0.000 OA
ATOM     24  C   UNL     1     110.583 127.480 139.562  0.00  0.00    +0.000 A 
ATOM     25  C   UNL     1     110.076 127.339 140.197  0.00  0.00    +0.000 A 
ATOM     26  C   UNL     1     111.292 127.062 139.499  0.00  0.00    +0.000 A 
ATOM     27  C   UNL     1     110.277 126.778 140.769  0.00  0.00    +0.000 A 
ATOM     28  C   UNL     1     111.492 126.502 140.070  0.00  0.00    +0.000 A 
ATOM     29  C   UNL     1     110.985 126.360 140.705  0.00  0.00    +0.000 A 
BRANCH  27  30
ATOM     30  O   UNL     1     109.769 126.636 141.403  0.00  0.00    +0.000 OA
ATOM     31  C   UNL     1     109.015 126.969 141.411  0.00  0.00    +0.000 C 
ENDBRANCH  27  30
ENDBRANCH  15  24
BRANCH  21  32
ATOM     32  O   UNL     1     109.163 130.081 135.977  0.00  0.00    +0.000 OA
ATOM     33  C   UNL     1     108.398 130.388 135.951  0.00  0.00    +0.000 C 
ENDBRANCH  21  32
ENDBRANCH   9  14
ENDBRANCH   8   9
BRANCH   7  34
ATOM     34  C   UNL     1     113.452 129.528 138.446  0.00  0.00    +0.000 C 
BRANCH  34  35
ATOM     35  O   UNL     1     113.165 129.225 137.734  0.00  0.00    +0.000 OA
BRANCH  35  39
ATOM     36  O   UNL     1     113.750 130.118 136.786  0.00  0.00    +0.000 OA
ATOM     37  O   UNL     1     114.495 128.188 135.428  0.00  0.00    +0.000 OA
ATOM     38  O   UNL     1     114.832 129.725 134.931  0.00  0.00    +0.000 OA
ATOM     39  C   UNL     1     113.581 129.349 137.034  0.00  0.00    +0.000 C 
ATOM     40  C   UNL     1     113.830 128.706 136.581  0.00  0.00    +0.000 C 
ATOM     41  C   UNL     1     114.247 128.831 135.880  0.00  0.00    +0.000 C 
ATOM     42  C   UNL     1     114.415 129.599 135.632  0.00  0.00    +0.000 C 
ATOM     43  C   UNL     1     114.167 130.243 136.084  0.00  0.00    +0.000 C 
BRANCH  43  45
ATOM     44  O   UNL     1     114.136 131.653 136.316  0.00  0.00    +0.000 OA
ATOM     45  C   UNL     1     114.335 131.012 135.836  0.00  0.00    +0.000 C 
ENDBRANCH  43  45
BRANCH  40  46
ATOM     46  O   UNL     1     113.662 127.938 136.829  0.00  0.00    +0.000 OA
BRANCH  46  48
ATOM     47  O   UNL     1     112.614 127.849 135.863  0.00  0.00    +0.000 OA
ATOM     48  C   UNL     1     113.085 127.495 136.440  0.00  0.00    +0.000 C 
BRANCH  48  49
ATOM     49  C   UNL     1     112.979 126.698 136.627  0.00  0.00    +0.000 C 
ATOM     50  C   UNL     1     112.423 126.249 136.217  0.00  0.00    +0.000 C 
BRANCH  50  52
ATOM     51  O   UNL     1     112.000 123.063 136.967  0.00  0.00    +0.000 OA
ATOM     52  C   UNL     1     112.317 125.452 136.404  0.00  0.00    +0.000 A 
ATOM     53  C   UNL     1     111.555 125.145 136.488  0.00  0.00    +0.000 A 
ATOM     54  C   UNL     1     112.973 124.962 136.509  0.00  0.00    +0.000 A 
ATOM     55  C   UNL     1     111.450 124.349 136.675  0.00  0.00    +0.000 A 
ATOM     56  C   UNL     1     112.867 124.166 136.696  0.00  0.00    +0.000 A 
ATOM     57  C   UNL     1     112.106 123.860 136.779  0.00  0.00    +0.000 A 
ENDBRANCH  50  52
ENDBRANCH  48  49
ENDBRANCH  46  48
ENDBRANCH  40  46
ENDBRANCH  35  39
ENDBRANCH  34  35
ENDBRANCH   7  34
BRANCH   4  58
ATOM     58  O   UNL     1     111.370 130.208 140.914  0.00  0.00    +0.000 OA
BRANCH  58  63
ATOM     59  O   UNL     1     112.178 129.479 141.903  0.00  0.00    +0.000 OA
ATOM     60  O   UNL     1     110.723 129.785 143.435  0.00  0.00    +0.000 OA
ATOM     61  O   UNL     1     110.279 130.356 142.332  0.00  0.00    +0.000 OA
ATOM     62  C   UNL     1     111.367 129.589 142.957  0.00  0.00    +0.000 C 
ATOM     63  C   UNL     1     111.511 129.905 141.668  0.00  0.00    +0.000 C 
ATOM     64  C   UNL     1     111.010 129.972 142.320  0.00  0.00    +0.000 C 
ATOM     65  C   UNL     1     112.089 129.284 142.699  0.00  0.00    +0.000 C 
BRANCH  62  67
ATOM     66  O   UNL     1     111.016 128.697 144.017  0.00  0.00    +0.000 OA
ATOM     67  C   UNL     1     111.507 129.285 143.711  0.00  0.00    +0.000 C 
ENDBRANCH  62  67
ENDBRANCH  58  63
ENDBRANCH   4  58
TORSDOF 16
ENDMDL
MODEL 6
REMARK VINA RESULT:     -10.2      1.551      4.547
REMARK  Name = 131751171
REMARK  16 active torsions:
REMARK  status: ('A' for Active; 'I' for Inactive)
REMARK    1  A    between atoms: O_1  and  C_25
REMARK    2  A    between atoms: O_1  and  C_30
REMARK    3  A    between atoms: O_4  and  C_34
REMARK    4  A    between atoms: O_4  and  C_35
REMARK    5  A    between atoms: O_6  and  C_32
REMARK    6  A    between atoms: O_6  and  C_42
REMARK    7  A    between atoms: O_11  and  C_36
REMARK    8  A    between atoms: O_11  and  C_45
REMARK    9  A    between atoms: O_20  and  C_54
REMARK   10  A    between atoms: O_22  and  C_57
REMARK   11  A    between atoms: C_28  and  C_34
REMARK   12  A    between atoms: C_29  and  C_38
REMARK   13  A    between atoms: C_40  and  C_41
REMARK   14  A    between atoms: C_43  and  C_47
REMARK   15  A    between atoms: C_45  and  C_49
REMARK   16  A    between atoms: C_56  and  C_60
REMARK                            x       y       z     vdW  Elec       q    Type
REMARK                         _______ _______ _______ _____ _____    ______ ____
ROOT
ATOM      1  O   UNL     1     110.044 128.394 137.982  0.00  0.00    +0.000 OA
ATOM      2  O   UNL     1     109.218 126.082 138.291  0.00  0.00    +0.000 OA
ATOM      3  O   UNL     1     109.155 127.155 139.543  0.00  0.00    +0.000 OA
ATOM      4  C   UNL     1     109.800 127.087 137.459  0.00  0.00    +0.000 C 
ATOM      5  C   UNL     1     109.493 126.852 138.188  0.00  0.00    +0.000 C 
ATOM      6  C   UNL     1     109.462 127.390 138.814  0.00  0.00    +0.000 C 
ATOM      7  C   UNL     1     109.738 128.160 138.711  0.00  0.00    +0.000 C 
ATOM      8  C   UNL     1     110.076 127.858 137.356  0.00  0.00    +0.000 C 
ENDROOT
BRANCH   8   9
ATOM      9  O   UNL     1     110.382 128.092 136.626  0.00  0.00    +0.000 OA
BRANCH   9  14
ATOM     10  O   UNL     1     110.732 130.110 135.873  0.00  0.00    +0.000 OA
ATOM     11  O   UNL     1     108.833 128.630 136.446  0.00  0.00    +0.000 OA
ATOM     12  O   UNL     1     107.887 129.655 136.078  0.00  0.00    +0.000 OA
ATOM     13  O   UNL     1     108.881 132.226 135.112  0.00  0.00    +0.000 OA
ATOM     14  C   UNL     1     110.241 128.854 136.345  0.00  0.00    +0.000 A 
ATOM     15  C   UNL     1     110.874 129.348 136.154  0.00  0.00    +0.000 A 
ATOM     16  C   UNL     1     109.466 129.124 136.255  0.00  0.00    +0.000 A 
ATOM     17  C   UNL     1     109.325 129.887 135.974  0.00  0.00    +0.000 A 
ATOM     18  C   UNL     1     109.958 130.379 135.783  0.00  0.00    +0.000 A 
ATOM     19  C   UNL     1     108.514 130.156 135.885  0.00  0.00    +0.000 A 
ATOM     20  C   UNL     1     109.824 131.175 135.489  0.00  0.00    +0.000 A 
ATOM     21  C   UNL     1     108.360 130.949 135.592  0.00  0.00    +0.000 A 
ATOM     22  C   UNL     1     109.019 131.462 135.393  0.00  0.00    +0.000 A 
BRANCH  15  24
ATOM     23  O   UNL     1     113.972 128.270 136.515  0.00  0.00    +0.000 OA
ATOM     24  C   UNL     1     111.649 129.078 136.244  0.00  0.00    +0.000 A 
ATOM     25  C   UNL     1     112.099 129.326 136.889  0.00  0.00    +0.000 A 
ATOM     26  C   UNL     1     111.973 128.560 135.690  0.00  0.00    +0.000 A 
ATOM     27  C   UNL     1     112.874 129.057 136.980  0.00  0.00    +0.000 A 
ATOM     28  C   UNL     1     112.747 128.291 135.780  0.00  0.00    +0.000 A 
ATOM     29  C   UNL     1     113.198 128.539 136.425  0.00  0.00    +0.000 A 
BRANCH  27  30
ATOM     30  O   UNL     1     113.324 129.305 137.625  0.00  0.00    +0.000 OA
ATOM     31  C   UNL     1     113.336 130.102 137.837  0.00  0.00    +0.000 C 
ENDBRANCH  27  30
ENDBRANCH  15  24
BRANCH  21  32
ATOM     32  O   UNL     1     107.584 131.215 135.503  0.00  0.00    +0.000 OA
ATOM     33  C   UNL     1     107.244 131.696 136.081  0.00  0.00    +0.000 C 
ENDBRANCH  21  32
ENDBRANCH   9  14
ENDBRANCH   8   9
BRANCH   7  34
ATOM     34  C   UNL     1     109.706 128.696 139.337  0.00  0.00    +0.000 C 
BRANCH  34  35
ATOM     35  O   UNL     1     110.403 128.943 139.705  0.00  0.00    +0.000 OA
BRANCH  35  39
ATOM     36  O   UNL     1     110.163 130.347 139.609  0.00  0.00    +0.000 OA
ATOM     37  O   UNL     1     111.185 130.674 141.839  0.00  0.00    +0.000 OA
ATOM     38  O   UNL     1     110.604 131.971 141.000  0.00  0.00    +0.000 OA
ATOM     39  C   UNL     1     110.453 129.699 140.029  0.00  0.00    +0.000 C 
ATOM     40  C   UNL     1     110.794 129.809 140.773  0.00  0.00    +0.000 C 
ATOM     41  C   UNL     1     110.844 130.565 141.096  0.00  0.00    +0.000 C 
ATOM     42  C   UNL     1     110.554 131.213 140.676  0.00  0.00    +0.000 C 
ATOM     43  C   UNL     1     110.213 131.105 139.933  0.00  0.00    +0.000 C 
BRANCH  43  45
ATOM     44  O   UNL     1     109.240 131.677 139.057  0.00  0.00    +0.000 OA
ATOM     45  C   UNL     1     109.923 131.754 139.513  0.00  0.00    +0.000 C 
ENDBRANCH  43  45
BRANCH  40  46
ATOM     46  O   UNL     1     111.084 129.160 141.192  0.00  0.00    +0.000 OA
BRANCH  46  48
ATOM     47  O   UNL     1     112.269 129.479 141.922  0.00  0.00    +0.000 OA
ATOM     48  C   UNL     1     111.896 129.073 141.309  0.00  0.00    +0.000 C 
BRANCH  48  49
ATOM     49  C   UNL     1     112.334 128.581 140.812  0.00  0.00    +0.000 C 
ATOM     50  C   UNL     1     112.842 128.018 141.134  0.00  0.00    +0.000 C 
BRANCH  50  52
ATOM     51  O   UNL     1     114.595 126.051 139.148  0.00  0.00    +0.000 OA
ATOM     52  C   UNL     1     113.281 127.526 140.638  0.00  0.00    +0.000 A 
ATOM     53  C   UNL     1     112.895 126.981 140.151  0.00  0.00    +0.000 A 
ATOM     54  C   UNL     1     114.104 127.578 140.626  0.00  0.00    +0.000 A 
ATOM     55  C   UNL     1     113.334 126.490 139.655  0.00  0.00    +0.000 A 
ATOM     56  C   UNL     1     114.542 127.086 140.130  0.00  0.00    +0.000 A 
ATOM     57  C   UNL     1     114.157 126.543 139.644  0.00  0.00    +0.000 A 
ENDBRANCH  50  52
ENDBRANCH  48  49
ENDBRANCH  46  48
ENDBRANCH  40  46
ENDBRANCH  35  39
ENDBRANCH  34  35
ENDBRANCH   7  34
BRANCH   4  58
ATOM     58  O   UNL     1     109.831 126.550 136.833  0.00  0.00    +0.000 OA
BRANCH  58  63
ATOM     59  O   UNL     1     110.940 125.791 137.431  0.00  0.00    +0.000 OA
ATOM     60  O   UNL     1     111.150 124.575 135.689  0.00  0.00    +0.000 OA
ATOM     61  O   UNL     1     110.169 125.428 135.473  0.00  0.00    +0.000 OA
ATOM     62  C   UNL     1     111.190 124.957 136.420  0.00  0.00    +0.000 C 
ATOM     63  C   UNL     1     110.412 125.964 136.820  0.00  0.00    +0.000 C 
ATOM     64  C   UNL     1     110.567 125.448 136.196  0.00  0.00    +0.000 C 
ATOM     65  C   UNL     1     111.420 125.169 137.183  0.00  0.00    +0.000 C 
BRANCH  62  67
ATOM     66  O   UNL     1     112.553 124.568 136.231  0.00  0.00    +0.000 OA
ATOM     67  C   UNL     1     111.771 124.371 136.407  0.00  0.00    +0.000 C 
ENDBRANCH  62  67
ENDBRANCH  58  63
ENDBRANCH   4  58
TORSDOF 16
ENDMDL
MODEL 7
REMARK VINA RESULT:     -10.1      1.228      3.791
REMARK  Name = 131751171
REMARK  16 active torsions:
REMARK  status: ('A' for Active; 'I' for Inactive)
REMARK    1  A    between atoms: O_1  and  C_25
REMARK    2  A    between atoms: O_1  and  C_30
REMARK    3  A    between atoms: O_4  and  C_34
REMARK    4  A    between atoms: O_4  and  C_35
REMARK    5  A    between atoms: O_6  and  C_32
REMARK    6  A    between atoms: O_6  and  C_42
REMARK    7  A    between atoms: O_11  and  C_36
REMARK    8  A    between atoms: O_11  and  C_45
REMARK    9  A    between atoms: O_20  and  C_54
REMARK   10  A    between atoms: O_22  and  C_57
REMARK   11  A    between atoms: C_28  and  C_34
REMARK   12  A    between atoms: C_29  and  C_38
REMARK   13  A    between atoms: C_40  and  C_41
REMARK   14  A    between atoms: C_43  and  C_47
REMARK   15  A    between atoms: C_45  and  C_49
REMARK   16  A    between atoms: C_56  and  C_60
REMARK                            x       y       z     vdW  Elec       q    Type
REMARK                         _______ _______ _______ _____ _____    ______ ____
ROOT
ATOM      1  O   UNL     1     110.720 128.998 136.832  0.00  0.00    +0.000 OA
ATOM      2  O   UNL     1     108.748 128.489 135.426  0.00  0.00    +0.000 OA
ATOM      3  O   UNL     1     109.393 127.321 136.396  0.00  0.00    +0.000 OA
ATOM      4  C   UNL     1     109.741 129.412 135.878  0.00  0.00    +0.000 C 
ATOM      5  C   UNL     1     109.405 128.659 135.894  0.00  0.00    +0.000 C 
ATOM      6  C   UNL     1     109.728 128.074 136.380  0.00  0.00    +0.000 C 
ATOM      7  C   UNL     1     110.386 128.244 136.849  0.00  0.00    +0.000 C 
ATOM      8  C   UNL     1     110.398 129.582 136.347  0.00  0.00    +0.000 C 
ENDROOT
BRANCH   8   9
ATOM      9  O   UNL     1     110.732 130.336 136.329  0.00  0.00    +0.000 OA
BRANCH   9  14
ATOM     10  O   UNL     1     112.687 131.012 137.028  0.00  0.00    +0.000 OA
ATOM     11  O   UNL     1     111.731 129.520 135.301  0.00  0.00    +0.000 OA
ATOM     12  O   UNL     1     113.050 129.180 134.824  0.00  0.00    +0.000 OA
ATOM     13  O   UNL     1     115.379 130.375 136.119  0.00  0.00    +0.000 OA
ATOM     14  C   UNL     1     111.550 130.426 136.391  0.00  0.00    +0.000 A 
ATOM     15  C   UNL     1     111.869 130.923 136.967  0.00  0.00    +0.000 A 
ATOM     16  C   UNL     1     112.050 130.017 135.876  0.00  0.00    +0.000 A 
ATOM     17  C   UNL     1     112.868 130.106 135.938  0.00  0.00    +0.000 A 
ATOM     18  C   UNL     1     113.186 130.604 136.514  0.00  0.00    +0.000 A 
ATOM     19  C   UNL     1     113.378 129.676 135.397  0.00  0.00    +0.000 A 
ATOM     20  C   UNL     1     114.036 130.706 136.588  0.00  0.00    +0.000 A 
ATOM     21  C   UNL     1     114.230 129.765 135.456  0.00  0.00    +0.000 A 
ATOM     22  C   UNL     1     114.562 130.283 136.056  0.00  0.00    +0.000 A 
BRANCH  15  24
ATOM     23  O   UNL     1     109.870 132.556 139.023  0.00  0.00    +0.000 OA
ATOM     24  C   UNL     1     111.369 131.332 137.481  0.00  0.00    +0.000 A 
ATOM     25  C   UNL     1     111.073 132.071 137.267  0.00  0.00    +0.000 A 
ATOM     26  C   UNL     1     111.166 131.000 138.209  0.00  0.00    +0.000 A 
ATOM     27  C   UNL     1     110.573 132.479 137.782  0.00  0.00    +0.000 A 
ATOM     28  C   UNL     1     110.667 131.408 138.722  0.00  0.00    +0.000 A 
ATOM     29  C   UNL     1     110.370 132.148 138.509  0.00  0.00    +0.000 A 
BRANCH  27  30
ATOM     30  O   UNL     1     110.277 133.219 137.567  0.00  0.00    +0.000 OA
ATOM     31  C   UNL     1     110.558 133.596 136.890  0.00  0.00    +0.000 C 
ENDBRANCH  27  30
ENDBRANCH  15  24
BRANCH  21  32
ATOM     32  O   UNL     1     114.727 129.355 134.940  0.00  0.00    +0.000 OA
ATOM     33  C   UNL     1     114.929 128.571 135.097  0.00  0.00    +0.000 C 
ENDBRANCH  21  32
ENDBRANCH   9  14
ENDBRANCH   8   9
BRANCH   7  34
ATOM     34  C   UNL     1     110.708 127.660 137.334  0.00  0.00    +0.000 C 
BRANCH  34  35
ATOM     35  O   UNL     1     111.445 127.776 137.685  0.00  0.00    +0.000 OA
BRANCH  35  39
ATOM     36  O   UNL     1     111.714 126.376 137.593  0.00  0.00    +0.000 OA
ATOM     37  O   UNL     1     113.813 126.696 138.864  0.00  0.00    +0.000 OA
ATOM     38  O   UNL     1     113.383 125.189 138.348  0.00  0.00    +0.000 OA
ATOM     39  C   UNL     1     111.930 127.130 137.851  0.00  0.00    +0.000 C 
ATOM     40  C   UNL     1     112.630 127.236 138.275  0.00  0.00    +0.000 C 
ATOM     41  C   UNL     1     113.114 126.590 138.441  0.00  0.00    +0.000 C 
ATOM     42  C   UNL     1     112.899 125.836 138.183  0.00  0.00    +0.000 C 
ATOM     43  C   UNL     1     112.199 125.729 137.759  0.00  0.00    +0.000 C 
BRANCH  43  45
ATOM     44  O   UNL     1     111.657 124.875 136.750  0.00  0.00    +0.000 OA
ATOM     45  C   UNL     1     111.984 124.975 137.501  0.00  0.00    +0.000 C 
ENDBRANCH  43  45
BRANCH  40  46
ATOM     46  O   UNL     1     112.845 127.989 138.533  0.00  0.00    +0.000 OA
BRANCH  46  48
ATOM     47  O   UNL     1     112.422 127.751 139.876  0.00  0.00    +0.000 OA
ATOM     48  C   UNL     1     112.909 128.147 139.340  0.00  0.00    +0.000 C 
BRANCH  48  49
ATOM     49  C   UNL     1     113.459 128.699 139.611  0.00  0.00    +0.000 C 
ATOM     50  C   UNL     1     113.224 129.293 140.132  0.00  0.00    +0.000 C 
BRANCH  50  52
ATOM     51  O   UNL     1     115.422 131.502 141.215  0.00  0.00    +0.000 OA
ATOM     52  C   UNL     1     113.773 129.845 140.403  0.00  0.00    +0.000 A 
ATOM     53  C   UNL     1     113.580 130.347 141.030  0.00  0.00    +0.000 A 
ATOM     54  C   UNL     1     114.516 129.897 140.048  0.00  0.00    +0.000 A 
ATOM     55  C   UNL     1     114.130 130.899 141.301  0.00  0.00    +0.000 A 
ATOM     56  C   UNL     1     115.066 130.450 140.318  0.00  0.00    +0.000 A 
ATOM     57  C   UNL     1     114.873 130.950 140.945  0.00  0.00    +0.000 A 
ENDBRANCH  50  52
ENDBRANCH  48  49
ENDBRANCH  46  48
ENDBRANCH  40  46
ENDBRANCH  35  39
ENDBRANCH  34  35
ENDBRANCH   7  34
BRANCH   4  58
ATOM     58  O   UNL     1     109.418 129.996 135.392  0.00  0.00    +0.000 OA
BRANCH  58  63
ATOM     59  O   UNL     1     108.280 130.239 136.292  0.00  0.00    +0.000 OA
ATOM     60  O   UNL     1     107.684 131.973 135.198  0.00  0.00    +0.000 OA
ATOM     61  O   UNL     1     108.756 131.472 134.615  0.00  0.00    +0.000 OA
ATOM     62  C   UNL     1     107.788 131.337 135.713  0.00  0.00    +0.000 C 
ATOM     63  C   UNL     1     108.755 130.420 135.641  0.00  0.00    +0.000 C 
ATOM     64  C   UNL     1     108.450 131.098 135.284  0.00  0.00    +0.000 C 
ATOM     65  C   UNL     1     107.683 130.806 136.336  0.00  0.00    +0.000 C 
BRANCH  62  67
ATOM     66  O   UNL     1     107.144 132.174 136.676  0.00  0.00    +0.000 OA
ATOM     67  C   UNL     1     107.125 131.760 135.962  0.00  0.00    +0.000 C 
ENDBRANCH  62  67
ENDBRANCH  58  63
ENDBRANCH   4  58
TORSDOF 16
ENDMDL
MODEL 8
REMARK VINA RESULT:     -10.0      1.809      4.908
REMARK  Name = 131751171
REMARK  16 active torsions:
REMARK  status: ('A' for Active; 'I' for Inactive)
REMARK    1  A    between atoms: O_1  and  C_25
REMARK    2  A    between atoms: O_1  and  C_30
REMARK    3  A    between atoms: O_4  and  C_34
REMARK    4  A    between atoms: O_4  and  C_35
REMARK    5  A    between atoms: O_6  and  C_32
REMARK    6  A    between atoms: O_6  and  C_42
REMARK    7  A    between atoms: O_11  and  C_36
REMARK    8  A    between atoms: O_11  and  C_45
REMARK    9  A    between atoms: O_20  and  C_54
REMARK   10  A    between atoms: O_22  and  C_57
REMARK   11  A    between atoms: C_28  and  C_34
REMARK   12  A    between atoms: C_29  and  C_38
REMARK   13  A    between atoms: C_40  and  C_41
REMARK   14  A    between atoms: C_43  and  C_47
REMARK   15  A    between atoms: C_45  and  C_49
REMARK   16  A    between atoms: C_56  and  C_60
REMARK                            x       y       z     vdW  Elec       q    Type
REMARK                         _______ _______ _______ _____ _____    ______ ____
ROOT
ATOM      1  O   UNL     1     110.862 128.001 137.122  0.00  0.00    +0.000 OA
ATOM      2  O   UNL     1     109.782 127.980 134.895  0.00  0.00    +0.000 OA
ATOM      3  O   UNL     1     111.237 127.233 135.113  0.00  0.00    +0.000 OA
ATOM      4  C   UNL     1     109.775 128.368 136.271  0.00  0.00    +0.000 C 
ATOM      5  C   UNL     1     110.142 127.987 135.637  0.00  0.00    +0.000 C 
ATOM      6  C   UNL     1     110.870 127.613 135.747  0.00  0.00    +0.000 C 
ATOM      7  C   UNL     1     111.230 127.620 136.489  0.00  0.00    +0.000 C 
ATOM      8  C   UNL     1     110.135 128.374 137.013  0.00  0.00    +0.000 C 
ENDROOT
BRANCH   8   9
ATOM      9  O   UNL     1     109.768 128.755 137.646  0.00  0.00    +0.000 OA
BRANCH   9  14
ATOM     10  O   UNL     1     110.176 128.615 139.786  0.00  0.00    +0.000 OA
ATOM     11  O   UNL     1     109.357 127.184 137.940  0.00  0.00    +0.000 OA
ATOM     12  O   UNL     1     109.209 126.063 138.836  0.00  0.00    +0.000 OA
ATOM     13  O   UNL     1     109.903 126.397 141.653  0.00  0.00    +0.000 OA
ATOM     14  C   UNL     1     109.835 128.447 138.408  0.00  0.00    +0.000 A 
ATOM     15  C   UNL     1     110.108 128.923 139.024  0.00  0.00    +0.000 A 
ATOM     16  C   UNL     1     109.630 127.661 138.555  0.00  0.00    +0.000 A 
ATOM     17  C   UNL     1     109.698 127.352 139.317  0.00  0.00    +0.000 A 
ATOM     18  C   UNL     1     109.971 127.830 139.932  0.00  0.00    +0.000 A 
ATOM     19  C   UNL     1     109.482 126.533 139.458  0.00  0.00    +0.000 A 
ATOM     20  C   UNL     1     110.046 127.520 140.730  0.00  0.00    +0.000 A 
ATOM     21  C   UNL     1     109.550 126.206 140.249  0.00  0.00    +0.000 A 
ATOM     22  C   UNL     1     109.834 126.703 140.890  0.00  0.00    +0.000 A 
BRANCH  15  24
ATOM     23  O   UNL     1     110.928 132.065 138.435  0.00  0.00    +0.000 OA
ATOM     24  C   UNL     1     110.314 129.709 138.876  0.00  0.00    +0.000 A 
ATOM     25  C   UNL     1     109.745 130.303 138.943  0.00  0.00    +0.000 A 
ATOM     26  C   UNL     1     111.087 129.901 138.663  0.00  0.00    +0.000 A 
ATOM     27  C   UNL     1     109.950 131.089 138.796  0.00  0.00    +0.000 A 
ATOM     28  C   UNL     1     111.292 130.686 138.516  0.00  0.00    +0.000 A 
ATOM     29  C   UNL     1     110.724 131.280 138.582  0.00  0.00    +0.000 A 
BRANCH  27  30
ATOM     30  O   UNL     1     109.381 131.683 138.862  0.00  0.00    +0.000 OA
ATOM     31  C   UNL     1     108.590 131.484 138.985  0.00  0.00    +0.000 C 
ENDBRANCH  27  30
ENDBRANCH  15  24
BRANCH  21  32
ATOM     32  O   UNL     1     109.344 125.420 140.393  0.00  0.00    +0.000 OA
ATOM     33  C   UNL     1     108.622 125.242 140.749  0.00  0.00    +0.000 C 
ENDBRANCH  21  32
ENDBRANCH   9  14
ENDBRANCH   8   9
BRANCH   7  34
ATOM     34  C   UNL     1     111.957 127.246 136.598  0.00  0.00    +0.000 C 
BRANCH  34  35
ATOM     35  O   UNL     1     112.158 126.942 137.338  0.00  0.00    +0.000 OA
BRANCH  35  39
ATOM     36  O   UNL     1     112.456 125.583 137.016  0.00  0.00    +0.000 OA
ATOM     37  O   UNL     1     114.556 125.735 138.317  0.00  0.00    +0.000 OA
ATOM     38  O   UNL     1     114.154 124.324 137.561  0.00  0.00    +0.000 OA
ATOM     39  C   UNL     1     112.657 126.288 137.394  0.00  0.00    +0.000 C 
ATOM     40  C   UNL     1     113.358 126.338 137.827  0.00  0.00    +0.000 C 
ATOM     41  C   UNL     1     113.856 125.684 137.883  0.00  0.00    +0.000 C 
ATOM     42  C   UNL     1     113.655 124.979 137.506  0.00  0.00    +0.000 C 
ATOM     43  C   UNL     1     112.955 124.928 137.072  0.00  0.00    +0.000 C 
BRANCH  43  45
ATOM     44  O   UNL     1     111.978 123.943 136.728  0.00  0.00    +0.000 OA
ATOM     45  C   UNL     1     112.754 124.222 136.694  0.00  0.00    +0.000 C 
ENDBRANCH  43  45
BRANCH  40  46
ATOM     46  O   UNL     1     113.559 127.044 138.205  0.00  0.00    +0.000 OA
BRANCH  46  48
ATOM     47  O   UNL     1     113.229 126.473 139.472  0.00  0.00    +0.000 OA
ATOM     48  C   UNL     1     113.427 127.130 139.015  0.00  0.00    +0.000 C 
BRANCH  48  49
ATOM     49  C   UNL     1     113.494 127.874 139.367  0.00  0.00    +0.000 C 
ATOM     50  C   UNL     1     113.700 127.936 140.163  0.00  0.00    +0.000 C 
BRANCH  50  52
ATOM     51  O   UNL     1     113.966 130.908 141.570  0.00  0.00    +0.000 OA
ATOM     52  C   UNL     1     113.766 128.679 140.515  0.00  0.00    +0.000 A 
ATOM     53  C   UNL     1     113.274 128.883 141.145  0.00  0.00    +0.000 A 
ATOM     54  C   UNL     1     114.325 129.218 140.237  0.00  0.00    +0.000 A 
ATOM     55  C   UNL     1     113.340 129.626 141.497  0.00  0.00    +0.000 A 
ATOM     56  C   UNL     1     114.392 129.962 140.589  0.00  0.00    +0.000 A 
ATOM     57  C   UNL     1     113.900 130.165 141.218  0.00  0.00    +0.000 A 
ENDBRANCH  50  52
ENDBRANCH  48  49
ENDBRANCH  46  48
ENDBRANCH  40  46
ENDBRANCH  35  39
ENDBRANCH  34  35
ENDBRANCH   7  34
BRANCH   4  58
ATOM     58  O   UNL     1     109.048 128.742 136.161  0.00  0.00    +0.000 OA
BRANCH  58  63
ATOM     59  O   UNL     1     109.651 129.894 135.476  0.00  0.00    +0.000 OA
ATOM     60  O   UNL     1     107.786 130.931 135.408  0.00  0.00    +0.000 OA
ATOM     61  O   UNL     1     107.586 129.772 136.005  0.00  0.00    +0.000 OA
ATOM     62  C   UNL     1     108.564 130.659 135.359  0.00  0.00    +0.000 C 
ATOM     63  C   UNL     1     109.016 129.489 135.813  0.00  0.00    +0.000 C 
ATOM     64  C   UNL     1     108.345 129.962 135.741  0.00  0.00    +0.000 C 
ATOM     65  C   UNL     1     109.371 130.617 135.195  0.00  0.00    +0.000 C 
BRANCH  62  67
ATOM     66  O   UNL     1     107.813 131.810 134.962  0.00  0.00    +0.000 OA
ATOM     67  C   UNL     1     108.532 131.407 135.011  0.00  0.00    +0.000 C 
ENDBRANCH  62  67
ENDBRANCH  58  63
ENDBRANCH   4  58
TORSDOF 16
ENDMDL
MODEL 9
REMARK VINA RESULT:     -10.0      2.089      5.501
REMARK  Name = 131751171
REMARK  16 active torsions:
REMARK  status: ('A' for Active; 'I' for Inactive)
REMARK    1  A    between atoms: O_1  and  C_25
REMARK    2  A    between atoms: O_1  and  C_30
REMARK    3  A    between atoms: O_4  and  C_34
REMARK    4  A    between atoms: O_4  and  C_35
REMARK    5  A    between atoms: O_6  and  C_32
REMARK    6  A    between atoms: O_6  and  C_42
REMARK    7  A    between atoms: O_11  and  C_36
REMARK    8  A    between atoms: O_11  and  C_45
REMARK    9  A    between atoms: O_20  and  C_54
REMARK   10  A    between atoms: O_22  and  C_57
REMARK   11  A    between atoms: C_28  and  C_34
REMARK   12  A    between atoms: C_29  and  C_38
REMARK   13  A    between atoms: C_40  and  C_41
REMARK   14  A    between atoms: C_43  and  C_47
REMARK   15  A    between atoms: C_45  and  C_49
REMARK   16  A    between atoms: C_56  and  C_60
REMARK                            x       y       z     vdW  Elec       q    Type
REMARK                         _______ _______ _______ _____ _____    ______ ____
ROOT
ATOM      1  O   UNL     1     110.883 127.539 139.091  0.00  0.00    +0.000 OA
ATOM      2  O   UNL     1     109.151 126.118 140.142  0.00  0.00    +0.000 OA
ATOM      3  O   UNL     1     110.479 125.425 139.450  0.00  0.00    +0.000 OA
ATOM      4  C   UNL     1     109.643 127.412 139.787  0.00  0.00    +0.000 C 
ATOM      5  C   UNL     1     109.728 126.592 139.792  0.00  0.00    +0.000 C 
ATOM      6  C   UNL     1     110.393 126.245 139.446  0.00  0.00    +0.000 C 
ATOM      7  C   UNL     1     110.970 126.719 139.095  0.00  0.00    +0.000 C 
ATOM      8  C   UNL     1     110.220 127.886 139.437  0.00  0.00    +0.000 C 
ENDROOT
BRANCH   8   9
ATOM      9  O   UNL     1     110.133 128.707 139.433  0.00  0.00    +0.000 OA
BRANCH   9  14
ATOM     10  O   UNL     1     110.930 130.182 138.036  0.00  0.00    +0.000 OA
ATOM     11  O   UNL     1     109.320 128.303 138.055  0.00  0.00    +0.000 OA
ATOM     12  O   UNL     1     109.022 128.506 136.658  0.00  0.00    +0.000 OA
ATOM     13  O   UNL     1     110.380 130.652 135.214  0.00  0.00    +0.000 OA
ATOM     14  C   UNL     1     110.263 129.131 138.738  0.00  0.00    +0.000 A 
ATOM     15  C   UNL     1     110.800 129.758 138.731  0.00  0.00    +0.000 A 
ATOM     16  C   UNL     1     109.857 128.929 138.048  0.00  0.00    +0.000 A 
ATOM     17  C   UNL     1     109.987 129.354 137.353  0.00  0.00    +0.000 A 
ATOM     18  C   UNL     1     110.524 129.980 137.347  0.00  0.00    +0.000 A 
ATOM     19  C   UNL     1     109.558 129.135 136.642  0.00  0.00    +0.000 A 
ATOM     20  C   UNL     1     110.668 130.430 136.630  0.00  0.00    +0.000 A 
ATOM     21  C   UNL     1     109.689 129.573 135.915  0.00  0.00    +0.000 A 
ATOM     22  C   UNL     1     110.248 130.225 135.908  0.00  0.00    +0.000 A 
BRANCH  15  24
ATOM     23  O   UNL     1     112.427 130.564 141.487  0.00  0.00    +0.000 OA
ATOM     24  C   UNL     1     111.207 129.959 139.420  0.00  0.00    +0.000 A 
ATOM     25  C   UNL     1     111.995 129.733 139.515  0.00  0.00    +0.000 A 
ATOM     26  C   UNL     1     110.826 130.387 140.014  0.00  0.00    +0.000 A 
ATOM     27  C   UNL     1     112.402 129.935 140.204  0.00  0.00    +0.000 A 
ATOM     28  C   UNL     1     111.233 130.588 140.703  0.00  0.00    +0.000 A 
ATOM     29  C   UNL     1     112.020 130.362 140.798  0.00  0.00    +0.000 A 
BRANCH  27  30
ATOM     30  O   UNL     1     113.189 129.709 140.299  0.00  0.00    +0.000 OA
ATOM     31  C   UNL     1     113.613 129.410 139.657  0.00  0.00    +0.000 C 
ENDBRANCH  27  30
ENDBRANCH  15  24
BRANCH  21  32
ATOM     32  O   UNL     1     109.281 129.369 135.228  0.00  0.00    +0.000 OA
ATOM     33  C   UNL     1     109.674 128.982 134.614  0.00  0.00    +0.000 C 
ENDBRANCH  21  32
ENDBRANCH   9  14
ENDBRANCH   8   9
BRANCH   7  34
ATOM     34  C   UNL     1     111.634 126.372 138.750  0.00  0.00    +0.000 C 
BRANCH  34  35
ATOM     35  O   UNL     1     111.823 126.535 137.963  0.00  0.00    +0.000 OA
BRANCH  35  39
ATOM     36  O   UNL     1     112.210 125.225 137.545  0.00  0.00    +0.000 OA
ATOM     37  O   UNL     1     114.138 126.184 136.327  0.00  0.00    +0.000 OA
ATOM     38  O   UNL     1     113.883 124.554 136.315  0.00  0.00    +0.000 OA
ATOM     39  C   UNL     1     112.337 126.040 137.551  0.00  0.00    +0.000 C 
ATOM     40  C   UNL     1     112.981 126.359 137.145  0.00  0.00    +0.000 C 
ATOM     41  C   UNL     1     113.496 125.864 136.733  0.00  0.00    +0.000 C 
ATOM     42  C   UNL     1     113.368 125.049 136.727  0.00  0.00    +0.000 C 
ATOM     43  C   UNL     1     112.726 124.729 137.133  0.00  0.00    +0.000 C 
BRANCH  43  45
ATOM     44  O   UNL     1     111.860 123.614 136.912  0.00  0.00    +0.000 OA
ATOM     45  C   UNL     1     112.598 123.914 137.127  0.00  0.00    +0.000 C 
ENDBRANCH  43  45
BRANCH  40  46
ATOM     46  O   UNL     1     113.108 127.174 137.150  0.00  0.00    +0.000 OA
BRANCH  46  48
ATOM     47  O   UNL     1     112.495 127.442 135.889  0.00  0.00    +0.000 OA
ATOM     48  C   UNL     1     113.083 127.601 136.445  0.00  0.00    +0.000 C 
BRANCH  48  49
ATOM     49  C   UNL     1     113.644 128.187 136.296  0.00  0.00    +0.000 C 
ATOM     50  C   UNL     1     113.463 128.812 135.790  0.00  0.00    +0.000 C 
BRANCH  50  52
ATOM     51  O   UNL     1     115.709 131.155 135.194  0.00  0.00    +0.000 OA
ATOM     52  C   UNL     1     114.025 129.398 135.641  0.00  0.00    +0.000 A 
ATOM     53  C   UNL     1     114.434 129.405 134.924  0.00  0.00    +0.000 A 
ATOM     54  C   UNL     1     114.178 129.977 136.208  0.00  0.00    +0.000 A 
ATOM     55  C   UNL     1     114.996 129.990 134.775  0.00  0.00    +0.000 A 
ATOM     56  C   UNL     1     114.739 130.563 136.059  0.00  0.00    +0.000 A 
ATOM     57  C   UNL     1     115.148 130.569 135.343  0.00  0.00    +0.000 A 
ENDBRANCH  50  52
ENDBRANCH  48  49
ENDBRANCH  46  48
ENDBRANCH  40  46
ENDBRANCH  35  39
ENDBRANCH  34  35
ENDBRANCH   7  34
BRANCH   4  58
ATOM     58  O   UNL     1     108.978 127.759 140.133  0.00  0.00    +0.000 OA
BRANCH  58  63
ATOM     59  O   UNL     1     109.533 127.651 141.491  0.00  0.00    +0.000 OA
ATOM     60  O   UNL     1     107.760 128.460 142.364  0.00  0.00    +0.000 OA
ATOM     61  O   UNL     1     107.586 128.415 141.058  0.00  0.00    +0.000 OA
ATOM     62  C   UNL     1     108.498 128.139 142.178  0.00  0.00    +0.000 C 
ATOM     63  C   UNL     1     108.939 127.848 140.953  0.00  0.00    +0.000 C 
ATOM     64  C   UNL     1     108.300 128.150 141.378  0.00  0.00    +0.000 C 
ATOM     65  C   UNL     1     109.260 127.831 142.248  0.00  0.00    +0.000 C 
BRANCH  62  67
ATOM     66  O   UNL     1     107.842 127.880 143.421  0.00  0.00    +0.000 OA
ATOM     67  C   UNL     1     108.458 128.228 142.997  0.00  0.00    +0.000 C 
ENDBRANCH  62  67
ENDBRANCH  58  63
ENDBRANCH   4  58
TORSDOF 16
ENDMDL
MODEL 10
REMARK VINA RESULT:     -10.0      1.853      4.190
REMARK  Name = 131751171
REMARK  16 active torsions:
REMARK  status: ('A' for Active; 'I' for Inactive)
REMARK    1  A    between atoms: O_1  and  C_25
REMARK    2  A    between atoms: O_1  and  C_30
REMARK    3  A    between atoms: O_4  and  C_34
REMARK    4  A    between atoms: O_4  and  C_35
REMARK    5  A    between atoms: O_6  and  C_32
REMARK    6  A    between atoms: O_6  and  C_42
REMARK    7  A    between atoms: O_11  and  C_36
REMARK    8  A    between atoms: O_11  and  C_45
REMARK    9  A    between atoms: O_20  and  C_54
REMARK   10  A    between atoms: O_22  and  C_57
REMARK   11  A    between atoms: C_28  and  C_34
REMARK   12  A    between atoms: C_29  and  C_38
REMARK   13  A    between atoms: C_40  and  C_41
REMARK   14  A    between atoms: C_43  and  C_47
REMARK   15  A    between atoms: C_45  and  C_49
REMARK   16  A    between atoms: C_56  and  C_60
REMARK                            x       y       z     vdW  Elec       q    Type
REMARK                         _______ _______ _______ _____ _____    ______ ____
ROOT
ATOM      1  O   UNL     1     110.388 129.060 137.030  0.00  0.00    +0.000 OA
ATOM      2  O   UNL     1     108.335 128.580 135.734  0.00  0.00    +0.000 OA
ATOM      3  O   UNL     1     108.919 127.462 136.798  0.00  0.00    +0.000 OA
ATOM      4  C   UNL     1     109.412 129.459 136.066  0.00  0.00    +0.000 C 
ATOM      5  C   UNL     1     109.020 128.740 136.166  0.00  0.00    +0.000 C 
ATOM      6  C   UNL     1     109.312 128.181 136.698  0.00  0.00    +0.000 C 
ATOM      7  C   UNL     1     109.996 128.341 137.130  0.00  0.00    +0.000 C 
ATOM      8  C   UNL     1     110.096 129.619 136.498  0.00  0.00    +0.000 C 
ENDROOT
BRANCH   8   9
ATOM      9  O   UNL     1     110.488 130.338 136.398  0.00  0.00    +0.000 OA
BRANCH   9  14
ATOM     10  O   UNL     1     112.509 130.907 136.997  0.00  0.00    +0.000 OA
ATOM     11  O   UNL     1     111.390 129.371 135.411  0.00  0.00    +0.000 OA
ATOM     12  O   UNL     1     112.664 128.895 134.930  0.00  0.00    +0.000 OA
ATOM     13  O   UNL     1     115.116 129.993 136.076  0.00  0.00    +0.000 OA
ATOM     14  C   UNL     1     111.312 130.367 136.433  0.00  0.00    +0.000 A 
ATOM     15  C   UNL     1     111.685 130.879 136.962  0.00  0.00    +0.000 A 
ATOM     16  C   UNL     1     111.764 129.883 135.940  0.00  0.00    +0.000 A 
ATOM     17  C   UNL     1     112.587 129.912 135.975  0.00  0.00    +0.000 A 
ATOM     18  C   UNL     1     112.959 130.424 136.504  0.00  0.00    +0.000 A 
ATOM     19  C   UNL     1     113.046 129.404 135.456  0.00  0.00    +0.000 A 
ATOM     20  C   UNL     1     113.816 130.463 136.550  0.00  0.00    +0.000 A 
ATOM     21  C   UNL     1     113.904 129.429 135.488  0.00  0.00    +0.000 A 
ATOM     22  C   UNL     1     114.292 129.962 136.038  0.00  0.00    +0.000 A 
BRANCH  15  24
ATOM     23  O   UNL     1     109.880 132.812 138.935  0.00  0.00    +0.000 OA
ATOM     24  C   UNL     1     111.233 131.362 137.456  0.00  0.00    +0.000 A 
ATOM     25  C   UNL     1     110.987 132.104 137.192  0.00  0.00    +0.000 A 
ATOM     26  C   UNL     1     111.029 131.104 138.212  0.00  0.00    +0.000 A 
ATOM     27  C   UNL     1     110.535 132.588 137.686  0.00  0.00    +0.000 A 
ATOM     28  C   UNL     1     110.578 131.587 138.705  0.00  0.00    +0.000 A 
ATOM     29  C   UNL     1     110.331 132.329 138.442  0.00  0.00    +0.000 A 
BRANCH  27  30
ATOM     30  O   UNL     1     110.288 133.329 137.422  0.00  0.00    +0.000 OA
ATOM     31  C   UNL     1     110.507 133.595 136.672  0.00  0.00    +0.000 C 
ENDBRANCH  27  30
ENDBRANCH  15  24
BRANCH  21  32
ATOM     32  O   UNL     1     114.353 128.945 134.993  0.00  0.00    +0.000 OA
ATOM     33  C   UNL     1     114.668 128.239 135.282  0.00  0.00    +0.000 C 
ENDBRANCH  21  32
ENDBRANCH   9  14
ENDBRANCH   8   9
BRANCH   7  34
ATOM     34  C   UNL     1     110.288 127.782 137.662  0.00  0.00    +0.000 C 
BRANCH  34  35
ATOM     35  O   UNL     1     110.408 127.987 138.452  0.00  0.00    +0.000 OA
BRANCH  35  39
ATOM     36  O   UNL     1     111.637 127.278 138.614  0.00  0.00    +0.000 OA
ATOM     37  O   UNL     1     111.011 126.726 140.944  0.00  0.00    +0.000 OA
ATOM     38  O   UNL     1     112.450 126.200 140.330  0.00  0.00    +0.000 OA
ATOM     39  C   UNL     1     110.918 127.541 138.921  0.00  0.00    +0.000 C 
ATOM     40  C   UNL     1     110.710 127.356 139.698  0.00  0.00    +0.000 C 
ATOM     41  C   UNL     1     111.220 126.910 140.168  0.00  0.00    +0.000 C 
ATOM     42  C   UNL     1     111.939 126.647 139.861  0.00  0.00    +0.000 C 
ATOM     43  C   UNL     1     112.148 126.831 139.084  0.00  0.00    +0.000 C 
BRANCH  43  45
ATOM     44  O   UNL     1     113.339 127.081 138.335  0.00  0.00    +0.000 OA
ATOM     45  C   UNL     1     112.868 126.568 138.777  0.00  0.00    +0.000 C 
ENDBRANCH  43  45
BRANCH  40  46
ATOM     46  O   UNL     1     109.990 127.619 140.005  0.00  0.00    +0.000 OA
BRANCH  46  48
ATOM     47  O   UNL     1     110.666 128.677 140.686  0.00  0.00    +0.000 OA
ATOM     48  C   UNL     1     109.965 128.295 140.477  0.00  0.00    +0.000 C 
BRANCH  48  49
ATOM     49  C   UNL     1     109.240 128.588 140.740  0.00  0.00    +0.000 C 
ATOM     50  C   UNL     1     109.205 129.319 141.120  0.00  0.00    +0.000 C 
BRANCH  50  52
ATOM     51  O   UNL     1     106.305 130.493 142.171  0.00  0.00    +0.000 OA
ATOM     52  C   UNL     1     108.480 129.612 141.383  0.00  0.00    +0.000 A 
ATOM     53  C   UNL     1     108.068 129.220 141.981  0.00  0.00    +0.000 A 
ATOM     54  C   UNL     1     108.166 130.298 141.049  0.00  0.00    +0.000 A 
ATOM     55  C   UNL     1     107.343 129.513 142.244  0.00  0.00    +0.000 A 
ATOM     56  C   UNL     1     107.441 130.592 141.311  0.00  0.00    +0.000 A 
ATOM     57  C   UNL     1     107.030 130.199 141.908  0.00  0.00    +0.000 A 
ENDBRANCH  50  52
ENDBRANCH  48  49
ENDBRANCH  46  48
ENDBRANCH  40  46
ENDBRANCH  35  39
ENDBRANCH  34  35
ENDBRANCH   7  34
BRANCH   4  58
ATOM     58  O   UNL     1     109.120 130.018 135.534  0.00  0.00    +0.000 OA
BRANCH  58  63
ATOM     59  O   UNL     1     108.012 130.406 136.419  0.00  0.00    +0.000 OA
ATOM     60  O   UNL     1     107.468 132.038 135.154  0.00  0.00    +0.000 OA
ATOM     61  O   UNL     1     108.506 131.430 134.612  0.00  0.00    +0.000 OA
ATOM     62  C   UNL     1     107.556 131.456 135.733  0.00  0.00    +0.000 C 
ATOM     63  C   UNL     1     108.481 130.495 135.746  0.00  0.00    +0.000 C 
ATOM     64  C   UNL     1     108.199 131.144 135.323  0.00  0.00    +0.000 C 
ATOM     65  C   UNL     1     107.440 131.000 136.411  0.00  0.00    +0.000 C 
BRANCH  62  67
ATOM     66  O   UNL     1     106.262 131.992 135.446  0.00  0.00    +0.000 OA
ATOM     67  C   UNL     1     106.917 131.933 135.945  0.00  0.00    +0.000 C 
ENDBRANCH  62  67
ENDBRANCH  58  63
ENDBRANCH   4  58
TORSDOF 16
ENDMDL
