MODEL 1
REMARK VINA RESULT:     -11.1      0.000      0.000
REMARK  Name = 102594479
REMARK  6 active torsions:
REMARK  status: ('A' for Active; 'I' for Inactive)
REMARK    1  A    between atoms: O_1  and  C_17
REMARK    2  A    between atoms: O_1  and  C_22
REMARK    3  A    between atoms: C_19  and  C_27
REMARK    4  A    between atoms: C_21  and  C_28
REMARK    5  A    between atoms: C_26  and  C_29
REMARK    6  A    between atoms: C_36  and  C_38
REMARK                            x       y       z     vdW  Elec       q    Type
REMARK                         _______ _______ _______ _____ _____    ______ ____
ROOT
ATOM      1  O   UNL     1     113.428 127.287 136.758  0.00  0.00    +0.000 OA
ATOM      2  O   UNL     1     112.455 128.175 138.854  0.00  0.00    +0.000 OA
ATOM      3  O   UNL     1     113.054 129.212 137.719  0.00  0.00    +0.000 OA
ATOM      4  C   UNL     1     112.805 127.065 138.025  0.00  0.00    +0.000 C 
ATOM      5  C   UNL     1     112.780 127.879 138.156  0.00  0.00    +0.000 C 
ATOM      6  C   UNL     1     113.129 126.769 137.326  0.00  0.00    +0.000 C 
ATOM      7  C   UNL     1     113.079 128.397 137.588  0.00  0.00    +0.000 C 
ATOM      8  C   UNL     1     113.403 128.102 136.889  0.00  0.00    +0.000 C 
ENDROOT
BRANCH   6  13
ATOM      9  O   UNL     1     111.812 126.030 136.647  0.00  0.00    +0.000 OA
ATOM     10  O   UNL     1     114.475 125.908 137.739  0.00  0.00    +0.000 OA
ATOM     11  O   UNL     1     113.230 123.512 136.802  0.00  0.00    +0.000 OA
ATOM     12  O   UNL     1     111.898 123.531 136.248  0.00  0.00    +0.000 OA
ATOM     13  C   UNL     1     113.154 125.955 137.195  0.00  0.00    +0.000 A 
ATOM     14  C   UNL     1     112.507 125.571 136.858  0.00  0.00    +0.000 A 
ATOM     15  C   UNL     1     113.827 125.525 137.401  0.00  0.00    +0.000 A 
ATOM     16  C   UNL     1     112.532 124.757 136.727  0.00  0.00    +0.000 A 
ATOM     17  C   UNL     1     113.853 124.710 137.270  0.00  0.00    +0.000 A 
ATOM     18  C   UNL     1     113.205 124.327 136.933  0.00  0.00    +0.000 A 
ATOM     19  C   UNL     1     111.864 124.346 136.376  0.00  0.00    +0.000 A 
ATOM     20  C   UNL     1     111.134 125.637 136.296  0.00  0.00    +0.000 A 
ATOM     21  C   UNL     1     111.160 124.788 136.159  0.00  0.00    +0.000 A 
BRANCH  20  24
ATOM     22  O   UNL     1     108.664 126.871 137.033  0.00  0.00    +0.000 OA
ATOM     23  O   UNL     1     108.447 127.368 135.474  0.00  0.00    +0.000 OA
ATOM     24  C   UNL     1     110.462 126.069 136.090  0.00  0.00    +0.000 A 
ATOM     25  C   UNL     1     109.899 126.253 136.664  0.00  0.00    +0.000 A 
ATOM     26  C   UNL     1     110.353 126.318 135.311  0.00  0.00    +0.000 A 
ATOM     27  C   UNL     1     109.227 126.687 136.459  0.00  0.00    +0.000 A 
ATOM     28  C   UNL     1     109.682 126.750 135.106  0.00  0.00    +0.000 A 
ATOM     29  C   UNL     1     109.118 126.935 135.680  0.00  0.00    +0.000 A 
ENDBRANCH  20  24
ENDBRANCH   6  13
BRANCH   8  31
ATOM     30  O   UNL     1     113.640 128.436 135.521  0.00  0.00    +0.000 OA
ATOM     31  C   UNL     1     113.703 128.621 136.322  0.00  0.00    +0.000 C 
ENDBRANCH   8  31
BRANCH   4  32
ATOM     32  O   UNL     1     112.505 126.547 138.592  0.00  0.00    +0.000 OA
BRANCH  32  37
ATOM     33  O   UNL     1     113.412 126.945 139.623  0.00  0.00    +0.000 OA
ATOM     34  O   UNL     1     111.347 126.246 139.728  0.00  0.00    +0.000 OA
ATOM     35  O   UNL     1     111.674 126.493 141.326  0.00  0.00    +0.000 OA
ATOM     36  O   UNL     1     113.160 127.041 141.788  0.00  0.00    +0.000 OA
ATOM     37  C   UNL     1     112.668 126.670 139.391  0.00  0.00    +0.000 C 
ATOM     38  C   UNL     1     112.089 126.520 139.959  0.00  0.00    +0.000 C 
ATOM     39  C   UNL     1     112.254 126.644 140.758  0.00  0.00    +0.000 C 
ATOM     40  C   UNL     1     112.996 126.918 140.989  0.00  0.00    +0.000 C 
ATOM     41  C   UNL     1     113.575 127.068 140.422  0.00  0.00    +0.000 C 
BRANCH  41  43
ATOM     42  O   UNL     1     114.972 126.839 140.618  0.00  0.00    +0.000 OA
ATOM     43  C   UNL     1     114.318 127.342 140.652  0.00  0.00    +0.000 C 
ENDBRANCH  41  43
ENDBRANCH  32  37
ENDBRANCH   4  32
TORSDOF 6
ENDMDL
MODEL 2
REMARK VINA RESULT:     -10.7      1.380      2.863
REMARK  Name = 102594479
REMARK  6 active torsions:
REMARK  status: ('A' for Active; 'I' for Inactive)
REMARK    1  A    between atoms: O_1  and  C_17
REMARK    2  A    between atoms: O_1  and  C_22
REMARK    3  A    between atoms: C_19  and  C_27
REMARK    4  A    between atoms: C_21  and  C_28
REMARK    5  A    between atoms: C_26  and  C_29
REMARK    6  A    between atoms: C_36  and  C_38
REMARK                            x       y       z     vdW  Elec       q    Type
REMARK                         _______ _______ _______ _____ _____    ______ ____
ROOT
ATOM      1  O   UNL     1     111.790 126.404 139.223  0.00  0.00    +0.000 OA
ATOM      2  O   UNL     1     111.557 128.814 138.707  0.00  0.00    +0.000 OA
ATOM      3  O   UNL     1     110.402 128.046 139.600  0.00  0.00    +0.000 OA
ATOM      4  C   UNL     1     112.290 127.591 138.604  0.00  0.00    +0.000 C 
ATOM      5  C   UNL     1     111.636 128.011 138.879  0.00  0.00    +0.000 C 
ATOM      6  C   UNL     1     112.368 126.788 138.776  0.00  0.00    +0.000 C 
ATOM      7  C   UNL     1     111.058 127.627 139.325  0.00  0.00    +0.000 C 
ATOM      8  C   UNL     1     111.135 126.824 139.498  0.00  0.00    +0.000 C 
ENDROOT
BRANCH   6  13
ATOM      9  O   UNL     1     112.300 126.098 137.273  0.00  0.00    +0.000 OA
ATOM     10  O   UNL     1     113.714 126.650 139.721  0.00  0.00    +0.000 OA
ATOM     11  O   UNL     1     114.990 125.110 137.679  0.00  0.00    +0.000 OA
ATOM     12  O   UNL     1     114.316 124.812 136.439  0.00  0.00    +0.000 OA
ATOM     13  C   UNL     1     113.023 126.369 138.502  0.00  0.00    +0.000 A 
ATOM     14  C   UNL     1     113.006 126.018 137.755  0.00  0.00    +0.000 A 
ATOM     15  C   UNL     1     113.696 126.300 138.975  0.00  0.00    +0.000 A 
ATOM     16  C   UNL     1     113.661 125.599 137.481  0.00  0.00    +0.000 A 
ATOM     17  C   UNL     1     114.352 125.880 138.700  0.00  0.00    +0.000 A 
ATOM     18  C   UNL     1     114.334 125.530 137.954  0.00  0.00    +0.000 A 
ATOM     19  C   UNL     1     113.656 125.229 136.705  0.00  0.00    +0.000 A 
ATOM     20  C   UNL     1     112.275 125.735 136.494  0.00  0.00    +0.000 A 
ATOM     21  C   UNL     1     112.958 125.298 136.208  0.00  0.00    +0.000 A 
BRANCH  20  24
ATOM     22  O   UNL     1     110.715 127.215 134.613  0.00  0.00    +0.000 OA
ATOM     23  O   UNL     1     109.579 126.018 134.613  0.00  0.00    +0.000 OA
ATOM     24  C   UNL     1     111.601 125.806 136.024  0.00  0.00    +0.000 A 
ATOM     25  C   UNL     1     111.495 126.475 135.554  0.00  0.00    +0.000 A 
ATOM     26  C   UNL     1     111.033 125.207 136.024  0.00  0.00    +0.000 A 
ATOM     27  C   UNL     1     110.820 126.545 135.083  0.00  0.00    +0.000 A 
ATOM     28  C   UNL     1     110.359 125.278 135.554  0.00  0.00    +0.000 A 
ATOM     29  C   UNL     1     110.253 125.947 135.083  0.00  0.00    +0.000 A 
ENDBRANCH  20  24
ENDBRANCH   6  13
BRANCH   8  31
ATOM     30  O   UNL     1     110.711 125.697 140.266  0.00  0.00    +0.000 OA
ATOM     31  C   UNL     1     110.557 126.440 139.944  0.00  0.00    +0.000 C 
ENDBRANCH   8  31
BRANCH   4  32
ATOM     32  O   UNL     1     112.868 127.975 138.158  0.00  0.00    +0.000 OA
BRANCH  32  37
ATOM     33  O   UNL     1     113.282 128.872 139.190  0.00  0.00    +0.000 OA
ATOM     34  O   UNL     1     113.151 129.144 137.029  0.00  0.00    +0.000 OA
ATOM     35  O   UNL     1     113.706 130.626 137.496  0.00  0.00    +0.000 OA
ATOM     36  O   UNL     1     113.979 130.938 139.093  0.00  0.00    +0.000 OA
ATOM     37  C   UNL     1     113.146 128.716 138.391  0.00  0.00    +0.000 C 
ATOM     38  C   UNL     1     113.287 129.301 137.826  0.00  0.00    +0.000 C 
ATOM     39  C   UNL     1     113.565 130.042 138.061  0.00  0.00    +0.000 C 
ATOM     40  C   UNL     1     113.701 130.198 138.859  0.00  0.00    +0.000 C 
ATOM     41  C   UNL     1     113.560 129.613 139.423  0.00  0.00    +0.000 C 
BRANCH  41  43
ATOM     42  O   UNL     1     114.307 129.381 140.619  0.00  0.00    +0.000 OA
ATOM     43  C   UNL     1     113.696 129.769 140.222  0.00  0.00    +0.000 C 
ENDBRANCH  41  43
ENDBRANCH  32  37
ENDBRANCH   4  32
TORSDOF 6
ENDMDL
MODEL 3
REMARK VINA RESULT:     -10.5      2.047      4.170
REMARK  Name = 102594479
REMARK  6 active torsions:
REMARK  status: ('A' for Active; 'I' for Inactive)
REMARK    1  A    between atoms: O_1  and  C_17
REMARK    2  A    between atoms: O_1  and  C_22
REMARK    3  A    between atoms: C_19  and  C_27
REMARK    4  A    between atoms: C_21  and  C_28
REMARK    5  A    between atoms: C_26  and  C_29
REMARK    6  A    between atoms: C_36  and  C_38
REMARK                            x       y       z     vdW  Elec       q    Type
REMARK                         _______ _______ _______ _____ _____    ______ ____
ROOT
ATOM      1  O   UNL     1     113.225 128.944 135.232  0.00  0.00    +0.000 OA
ATOM      2  O   UNL     1     113.301 130.000 137.469  0.00  0.00    +0.000 OA
ATOM      3  O   UNL     1     114.561 130.194 136.422  0.00  0.00    +0.000 OA
ATOM      4  C   UNL     1     112.620 129.199 136.501  0.00  0.00    +0.000 C 
ATOM      5  C   UNL     1     113.275 129.648 136.723  0.00  0.00    +0.000 C 
ATOM      6  C   UNL     1     112.595 128.847 135.755  0.00  0.00    +0.000 C 
ATOM      7  C   UNL     1     113.906 129.745 136.200  0.00  0.00    +0.000 C 
ATOM      8  C   UNL     1     113.881 129.393 135.454  0.00  0.00    +0.000 C 
ENDROOT
BRANCH   6  13
ATOM      9  O   UNL     1     112.559 127.240 136.150  0.00  0.00    +0.000 OA
ATOM     10  O   UNL     1     111.352 129.554 134.932  0.00  0.00    +0.000 OA
ATOM     11  O   UNL     1     109.973 127.051 134.864  0.00  0.00    +0.000 OA
ATOM     12  O   UNL     1     110.544 125.869 135.463  0.00  0.00    +0.000 OA
ATOM     13  C   UNL     1     111.940 128.398 135.533  0.00  0.00    +0.000 A 
ATOM     14  C   UNL     1     111.906 127.596 135.721  0.00  0.00    +0.000 A 
ATOM     15  C   UNL     1     111.319 128.752 135.121  0.00  0.00    +0.000 A 
ATOM     16  C   UNL     1     111.251 127.147 135.499  0.00  0.00    +0.000 A 
ATOM     17  C   UNL     1     110.663 128.302 134.898  0.00  0.00    +0.000 A 
ATOM     18  C   UNL     1     110.629 127.500 135.087  0.00  0.00    +0.000 A 
ATOM     19  C   UNL     1     111.203 126.310 135.690  0.00  0.00    +0.000 A 
ATOM     20  C   UNL     1     112.530 126.404 136.350  0.00  0.00    +0.000 A 
ATOM     21  C   UNL     1     111.847 125.936 136.118  0.00  0.00    +0.000 A 
BRANCH  20  24
ATOM     22  O   UNL     1     115.060 125.076 136.349  0.00  0.00    +0.000 OA
ATOM     23  O   UNL     1     115.022 125.001 137.997  0.00  0.00    +0.000 OA
ATOM     24  C   UNL     1     113.153 126.053 136.762  0.00  0.00    +0.000 A 
ATOM     25  C   UNL     1     113.795 125.740 136.350  0.00  0.00    +0.000 A 
ATOM     26  C   UNL     1     113.134 126.016 137.586  0.00  0.00    +0.000 A 
ATOM     27  C   UNL     1     114.419 125.389 136.762  0.00  0.00    +0.000 A 
ATOM     28  C   UNL     1     113.757 125.665 137.998  0.00  0.00    +0.000 A 
ATOM     29  C   UNL     1     114.399 125.352 137.586  0.00  0.00    +0.000 A 
ENDBRANCH  20  24
ENDBRANCH   6  13
BRANCH   8  31
ATOM     30  O   UNL     1     114.888 128.830 134.612  0.00  0.00    +0.000 OA
ATOM     31  C   UNL     1     114.511 129.491 134.931  0.00  0.00    +0.000 C 
ENDBRANCH   8  31
BRANCH   4  32
ATOM     32  O   UNL     1     111.990 129.102 137.024  0.00  0.00    +0.000 OA
BRANCH  32  37
ATOM     33  O   UNL     1     111.619 130.480 137.086  0.00  0.00    +0.000 OA
ATOM     34  O   UNL     1     111.599 128.925 138.617  0.00  0.00    +0.000 OA
ATOM     35  O   UNL     1     111.032 130.215 139.476  0.00  0.00    +0.000 OA
ATOM     36  O   UNL     1     110.857 131.681 138.741  0.00  0.00    +0.000 OA
ATOM     37  C   UNL     1     111.707 129.746 137.454  0.00  0.00    +0.000 C 
ATOM     38  C   UNL     1     111.511 129.658 138.250  0.00  0.00    +0.000 C 
ATOM     39  C   UNL     1     111.228 130.304 138.679  0.00  0.00    +0.000 C 
ATOM     40  C   UNL     1     111.140 131.037 138.312  0.00  0.00    +0.000 C 
ATOM     41  C   UNL     1     111.336 131.125 137.516  0.00  0.00    +0.000 C 
BRANCH  41  43
ATOM     42  O   UNL     1     110.673 131.960 136.564  0.00  0.00    +0.000 OA
ATOM     43  C   UNL     1     111.249 131.858 137.148  0.00  0.00    +0.000 C 
ENDBRANCH  41  43
ENDBRANCH  32  37
ENDBRANCH   4  32
TORSDOF 6
ENDMDL
MODEL 4
REMARK VINA RESULT:     -10.5      2.002      4.170
REMARK  Name = 102594479
REMARK  6 active torsions:
REMARK  status: ('A' for Active; 'I' for Inactive)
REMARK    1  A    between atoms: O_1  and  C_17
REMARK    2  A    between atoms: O_1  and  C_22
REMARK    3  A    between atoms: C_19  and  C_27
REMARK    4  A    between atoms: C_21  and  C_28
REMARK    5  A    between atoms: C_26  and  C_29
REMARK    6  A    between atoms: C_36  and  C_38
REMARK                            x       y       z     vdW  Elec       q    Type
REMARK                         _______ _______ _______ _____ _____    ______ ____
ROOT
ATOM      1  O   UNL     1     112.154 128.559 135.220  0.00  0.00    +0.000 OA
ATOM      2  O   UNL     1     111.691 129.575 137.429  0.00  0.00    +0.000 OA
ATOM      3  O   UNL     1     112.906 130.171 136.486  0.00  0.00    +0.000 OA
ATOM      4  C   UNL     1     111.392 128.599 136.428  0.00  0.00    +0.000 C 
ATOM      5  C   UNL     1     111.845 129.236 136.693  0.00  0.00    +0.000 C 
ATOM      6  C   UNL     1     111.547 128.261 135.692  0.00  0.00    +0.000 C 
ATOM      7  C   UNL     1     112.452 129.534 136.221  0.00  0.00    +0.000 C 
ATOM      8  C   UNL     1     112.607 129.196 135.485  0.00  0.00    +0.000 C 
ENDROOT
BRANCH   6  13
ATOM      9  O   UNL     1     111.993 126.728 136.131  0.00  0.00    +0.000 OA
ATOM     10  O   UNL     1     110.223 128.528 134.743  0.00  0.00    +0.000 OA
ATOM     11  O   UNL     1     109.735 125.714 134.632  0.00  0.00    +0.000 OA
ATOM     12  O   UNL     1     110.598 124.780 135.313  0.00  0.00    +0.000 OA
ATOM     13  C   UNL     1     111.094 127.624 135.427  0.00  0.00    +0.000 A 
ATOM     14  C   UNL     1     111.302 126.854 135.636  0.00  0.00    +0.000 A 
ATOM     15  C   UNL     1     110.432 127.758 134.952  0.00  0.00    +0.000 A 
ATOM     16  C   UNL     1     110.850 126.217 135.372  0.00  0.00    +0.000 A 
ATOM     17  C   UNL     1     109.979 127.121 134.687  0.00  0.00    +0.000 A 
ATOM     18  C   UNL     1     110.188 126.351 134.897  0.00  0.00    +0.000 A 
ATOM     19  C   UNL     1     111.057 125.410 135.583  0.00  0.00    +0.000 A 
ATOM     20  C   UNL     1     112.216 125.928 136.353  0.00  0.00    +0.000 A 
ATOM     21  C   UNL     1     111.744 125.264 136.077  0.00  0.00    +0.000 A 
BRANCH  20  24
ATOM     22  O   UNL     1     115.015 125.413 136.608  0.00  0.00    +0.000 OA
ATOM     23  O   UNL     1     114.865 125.406 138.251  0.00  0.00    +0.000 OA
ATOM     24  C   UNL     1     112.878 125.798 136.827  0.00  0.00    +0.000 A 
ATOM     25  C   UNL     1     113.615 125.671 136.480  0.00  0.00    +0.000 A 
ATOM     26  C   UNL     1     112.803 125.794 137.649  0.00  0.00    +0.000 A 
ATOM     27  C   UNL     1     114.278 125.540 136.955  0.00  0.00    +0.000 A 
ATOM     28  C   UNL     1     113.465 125.664 138.123  0.00  0.00    +0.000 A 
ATOM     29  C   UNL     1     114.203 125.536 137.777  0.00  0.00    +0.000 A 
ENDBRANCH  20  24
ENDBRANCH   6  13
BRANCH   8  31
ATOM     30  O   UNL     1     113.742 128.979 134.645  0.00  0.00    +0.000 OA
ATOM     31  C   UNL     1     113.215 129.495 135.013  0.00  0.00    +0.000 C 
ENDBRANCH   8  31
BRANCH   4  32
ATOM     32  O   UNL     1     110.785 128.301 136.900  0.00  0.00    +0.000 OA
BRANCH  32  37
ATOM     33  O   UNL     1     109.972 129.476 136.870  0.00  0.00    +0.000 OA
ATOM     34  O   UNL     1     110.316 128.016 138.456  0.00  0.00    +0.000 OA
ATOM     35  O   UNL     1     109.269 129.049 139.204  0.00  0.00    +0.000 OA
ATOM     36  O   UNL     1     108.691 130.365 138.396  0.00  0.00    +0.000 OA
ATOM     37  C   UNL     1     110.262 128.817 137.274  0.00  0.00    +0.000 C 
ATOM     38  C   UNL     1     110.027 128.674 138.052  0.00  0.00    +0.000 C 
ATOM     39  C   UNL     1     109.503 129.191 138.426  0.00  0.00    +0.000 C 
ATOM     40  C   UNL     1     109.214 129.849 138.023  0.00  0.00    +0.000 C 
ATOM     41  C   UNL     1     109.449 129.992 137.245  0.00  0.00    +0.000 C 
BRANCH  41  43
ATOM     42  O   UNL     1     108.639 130.550 136.208  0.00  0.00    +0.000 OA
ATOM     43  C   UNL     1     109.160 130.650 136.840  0.00  0.00    +0.000 C 
ENDBRANCH  41  43
ENDBRANCH  32  37
ENDBRANCH   4  32
TORSDOF 6
ENDMDL
MODEL 5
REMARK VINA RESULT:     -10.3      9.252     11.725
REMARK  Name = 102594479
REMARK  6 active torsions:
REMARK  status: ('A' for Active; 'I' for Inactive)
REMARK    1  A    between atoms: O_1  and  C_17
REMARK    2  A    between atoms: O_1  and  C_22
REMARK    3  A    between atoms: C_19  and  C_27
REMARK    4  A    between atoms: C_21  and  C_28
REMARK    5  A    between atoms: C_26  and  C_29
REMARK    6  A    between atoms: C_36  and  C_38
REMARK                            x       y       z     vdW  Elec       q    Type
REMARK                         _______ _______ _______ _____ _____    ______ ____
ROOT
ATOM      1  O   UNL     1     106.212 125.009 145.603  0.00  0.00    +0.000 OA
ATOM      2  O   UNL     1     105.380 127.312 145.244  0.00  0.00    +0.000 OA
ATOM      3  O   UNL     1     105.421 126.245 143.986  0.00  0.00    +0.000 OA
ATOM      4  C   UNL     1     105.914 126.310 146.111  0.00  0.00    +0.000 C 
ATOM      5  C   UNL     1     105.657 126.544 145.364  0.00  0.00    +0.000 C 
ATOM      6  C   UNL     1     106.191 125.542 146.232  0.00  0.00    +0.000 C 
ATOM      7  C   UNL     1     105.678 126.010 144.735  0.00  0.00    +0.000 C 
ATOM      8  C   UNL     1     105.955 125.243 144.854  0.00  0.00    +0.000 C 
ENDROOT
BRANCH   6  13
ATOM      9  O   UNL     1     105.075 124.982 147.317  0.00  0.00    +0.000 OA
ATOM     10  O   UNL     1     107.792 125.637 146.622  0.00  0.00    +0.000 OA
ATOM     11  O   UNL     1     107.219 124.605 149.224  0.00  0.00    +0.000 OA
ATOM     12  O   UNL     1     105.872 124.265 149.612  0.00  0.00    +0.000 OA
ATOM     13  C   UNL     1     106.448 125.308 146.979  0.00  0.00    +0.000 A 
ATOM     14  C   UNL     1     105.905 125.026 147.533  0.00  0.00    +0.000 A 
ATOM     15  C   UNL     1     107.248 125.356 147.174  0.00  0.00    +0.000 A 
ATOM     16  C   UNL     1     106.161 124.792 148.281  0.00  0.00    +0.000 A 
ATOM     17  C   UNL     1     107.505 125.121 147.923  0.00  0.00    +0.000 A 
ATOM     18  C   UNL     1     106.962 124.840 148.476  0.00  0.00    +0.000 A 
ATOM     19  C   UNL     1     105.605 124.497 148.866  0.00  0.00    +0.000 A 
ATOM     20  C   UNL     1     104.503 124.689 147.889  0.00  0.00    +0.000 A 
ATOM     21  C   UNL     1     104.771 124.445 148.669  0.00  0.00    +0.000 A 
BRANCH  20  24
ATOM     22  O   UNL     1     101.850 125.739 148.047  0.00  0.00    +0.000 OA
ATOM     23  O   UNL     1     101.305 124.503 147.098  0.00  0.00    +0.000 OA
ATOM     24  C   UNL     1     103.704 124.643 147.691  0.00  0.00    +0.000 A 
ATOM     25  C   UNL     1     103.177 125.214 147.968  0.00  0.00    +0.000 A 
ATOM     26  C   UNL     1     103.431 124.025 147.217  0.00  0.00    +0.000 A 
ATOM     27  C   UNL     1     102.377 125.168 147.770  0.00  0.00    +0.000 A 
ATOM     28  C   UNL     1     102.632 123.979 147.019  0.00  0.00    +0.000 A 
ATOM     29  C   UNL     1     102.104 124.550 147.296  0.00  0.00    +0.000 A 
ENDBRANCH  20  24
ENDBRANCH   6  13
BRANCH   8  31
ATOM     30  O   UNL     1     105.866 123.904 144.364  0.00  0.00    +0.000 OA
ATOM     31  C   UNL     1     105.976 124.709 144.225  0.00  0.00    +0.000 C 
ENDBRANCH   8  31
BRANCH   4  32
ATOM     32  O   UNL     1     105.893 126.844 146.740  0.00  0.00    +0.000 OA
BRANCH  32  37
ATOM     33  O   UNL     1     106.825 127.777 146.191  0.00  0.00    +0.000 OA
ATOM     34  O   UNL     1     105.032 128.089 147.396  0.00  0.00    +0.000 OA
ATOM     35  O   UNL     1     105.533 129.645 147.175  0.00  0.00    +0.000 OA
ATOM     36  O   UNL     1     106.895 129.956 146.298  0.00  0.00    +0.000 OA
ATOM     37  C   UNL     1     106.143 127.622 146.630  0.00  0.00    +0.000 C 
ATOM     38  C   UNL     1     105.712 128.244 146.958  0.00  0.00    +0.000 C 
ATOM     39  C   UNL     1     105.963 129.023 146.847  0.00  0.00    +0.000 C 
ATOM     40  C   UNL     1     106.644 129.178 146.409  0.00  0.00    +0.000 C 
ATOM     41  C   UNL     1     107.075 128.556 146.081  0.00  0.00    +0.000 C 
BRANCH  41  43
ATOM     42  O   UNL     1     108.491 128.453 145.918  0.00  0.00    +0.000 OA
ATOM     43  C   UNL     1     107.756 128.711 145.642  0.00  0.00    +0.000 C 
ENDBRANCH  41  43
ENDBRANCH  32  37
ENDBRANCH   4  32
TORSDOF 6
ENDMDL
MODEL 6
REMARK VINA RESULT:     -10.2      1.459      1.975
REMARK  Name = 102594479
REMARK  6 active torsions:
REMARK  status: ('A' for Active; 'I' for Inactive)
REMARK    1  A    between atoms: O_1  and  C_17
REMARK    2  A    between atoms: O_1  and  C_22
REMARK    3  A    between atoms: C_19  and  C_27
REMARK    4  A    between atoms: C_21  and  C_28
REMARK    5  A    between atoms: C_26  and  C_29
REMARK    6  A    between atoms: C_36  and  C_38
REMARK                            x       y       z     vdW  Elec       q    Type
REMARK                         _______ _______ _______ _____ _____    ______ ____
ROOT
ATOM      1  O   UNL     1     112.905 127.931 136.042  0.00  0.00    +0.000 OA
ATOM      2  O   UNL     1     112.453 128.796 138.317  0.00  0.00    +0.000 OA
ATOM      3  O   UNL     1     113.496 129.598 137.322  0.00  0.00    +0.000 OA
ATOM      4  C   UNL     1     112.233 127.819 137.298  0.00  0.00    +0.000 C 
ATOM      5  C   UNL     1     112.603 128.507 137.559  0.00  0.00    +0.000 C 
ATOM      6  C   UNL     1     112.383 127.530 136.539  0.00  0.00    +0.000 C 
ATOM      7  C   UNL     1     113.125 128.908 137.061  0.00  0.00    +0.000 C 
ATOM      8  C   UNL     1     113.276 128.621 136.303  0.00  0.00    +0.000 C 
ENDROOT
BRANCH   6  13
ATOM      9  O   UNL     1     110.876 127.643 135.865  0.00  0.00    +0.000 OA
ATOM     10  O   UNL     1     113.144 126.074 136.695  0.00  0.00    +0.000 OA
ATOM     11  O   UNL     1     110.901 124.773 135.495  0.00  0.00    +0.000 OA
ATOM     12  O   UNL     1     109.745 125.522 135.066  0.00  0.00    +0.000 OA
ATOM     13  C   UNL     1     112.013 126.841 136.279  0.00  0.00    +0.000 A 
ATOM     14  C   UNL     1     111.261 126.879 135.940  0.00  0.00    +0.000 A 
ATOM     15  C   UNL     1     112.393 126.113 136.356  0.00  0.00    +0.000 A 
ATOM     16  C   UNL     1     110.891 126.190 135.679  0.00  0.00    +0.000 A 
ATOM     17  C   UNL     1     112.022 125.424 136.095  0.00  0.00    +0.000 A 
ATOM     18  C   UNL     1     111.271 125.463 135.757  0.00  0.00    +0.000 A 
ATOM     19  C   UNL     1     110.108 126.217 135.324  0.00  0.00    +0.000 A 
ATOM     20  C   UNL     1     110.093 127.690 135.513  0.00  0.00    +0.000 A 
ATOM     21  C   UNL     1     109.706 126.972 135.241  0.00  0.00    +0.000 A 
BRANCH  20  24
ATOM     22  O   UNL     1     108.162 129.585 136.434  0.00  0.00    +0.000 OA
ATOM     23  O   UNL     1     108.580 130.607 135.207  0.00  0.00    +0.000 OA
ATOM     24  C   UNL     1     109.715 128.420 135.436  0.00  0.00    +0.000 A 
ATOM     25  C   UNL     1     109.128 128.637 135.973  0.00  0.00    +0.000 A 
ATOM     26  C   UNL     1     109.924 128.930 134.823  0.00  0.00    +0.000 A 
ATOM     27  C   UNL     1     108.749 129.367 135.897  0.00  0.00    +0.000 A 
ATOM     28  C   UNL     1     109.545 129.660 134.747  0.00  0.00    +0.000 A 
ATOM     29  C   UNL     1     108.958 129.878 135.283  0.00  0.00    +0.000 A 
ENDBRANCH  20  24
ENDBRANCH   6  13
BRANCH   8  31
ATOM     30  O   UNL     1     113.644 129.068 134.997  0.00  0.00    +0.000 OA
ATOM     31  C   UNL     1     113.798 129.022 135.806  0.00  0.00    +0.000 C 
ENDBRANCH   8  31
BRANCH   4  32
ATOM     32  O   UNL     1     111.711 127.417 137.795  0.00  0.00    +0.000 OA
BRANCH  32  37
ATOM     33  O   UNL     1     112.707 127.103 138.771  0.00  0.00    +0.000 OA
ATOM     34  O   UNL     1     110.560 127.442 138.977  0.00  0.00    +0.000 OA
ATOM     35  O   UNL     1     110.981 127.140 140.544  0.00  0.00    +0.000 OA
ATOM     36  O   UNL     1     112.551 126.814 140.928  0.00  0.00    +0.000 OA
ATOM     37  C   UNL     1     111.920 127.267 138.578  0.00  0.00    +0.000 C 
ATOM     38  C   UNL     1     111.345 127.279 139.170  0.00  0.00    +0.000 C 
ATOM     39  C   UNL     1     111.556 127.128 139.953  0.00  0.00    +0.000 C 
ATOM     40  C   UNL     1     112.341 126.965 140.145  0.00  0.00    +0.000 C 
ATOM     41  C   UNL     1     112.916 126.953 139.554  0.00  0.00    +0.000 C 
BRANCH  41  43
ATOM     42  O   UNL     1     114.091 126.156 139.386  0.00  0.00    +0.000 OA
ATOM     43  C   UNL     1     113.702 126.790 139.746  0.00  0.00    +0.000 C 
ENDBRANCH  41  43
ENDBRANCH  32  37
ENDBRANCH   4  32
TORSDOF 6
ENDMDL
MODEL 7
REMARK VINA RESULT:     -10.2      2.676      5.061
REMARK  Name = 102594479
REMARK  6 active torsions:
REMARK  status: ('A' for Active; 'I' for Inactive)
REMARK    1  A    between atoms: O_1  and  C_17
REMARK    2  A    between atoms: O_1  and  C_22
REMARK    3  A    between atoms: C_19  and  C_27
REMARK    4  A    between atoms: C_21  and  C_28
REMARK    5  A    between atoms: C_26  and  C_29
REMARK    6  A    between atoms: C_36  and  C_38
REMARK                            x       y       z     vdW  Elec       q    Type
REMARK                         _______ _______ _______ _____ _____    ______ ____
ROOT
ATOM      1  O   UNL     1     111.322 128.984 138.632  0.00  0.00    +0.000 OA
ATOM      2  O   UNL     1     108.963 129.092 137.890  0.00  0.00    +0.000 OA
ATOM      3  O   UNL     1     109.336 128.441 139.359  0.00  0.00    +0.000 OA
ATOM      4  C   UNL     1     110.349 129.346 137.650  0.00  0.00    +0.000 C 
ATOM      5  C   UNL     1     109.750 129.057 138.137  0.00  0.00    +0.000 C 
ATOM      6  C   UNL     1     111.135 129.310 137.897  0.00  0.00    +0.000 C 
ATOM      7  C   UNL     1     109.936 128.731 138.872  0.00  0.00    +0.000 C 
ATOM      8  C   UNL     1     110.722 128.694 139.120  0.00  0.00    +0.000 C 
ENDROOT
BRANCH   6  13
ATOM      9  O   UNL     1     111.781 128.309 136.748  0.00  0.00    +0.000 OA
ATOM     10  O   UNL     1     111.669 130.860 138.080  0.00  0.00    +0.000 OA
ATOM     11  O   UNL     1     113.534 130.468 135.950  0.00  0.00    +0.000 OA
ATOM     12  O   UNL     1     113.621 129.205 135.257  0.00  0.00    +0.000 OA
ATOM     13  C   UNL     1     111.735 129.599 137.411  0.00  0.00    +0.000 A 
ATOM     14  C   UNL     1     112.068 129.114 136.832  0.00  0.00    +0.000 A 
ATOM     15  C   UNL     1     112.002 130.374 137.502  0.00  0.00    +0.000 A 
ATOM     16  C   UNL     1     112.667 129.403 136.346  0.00  0.00    +0.000 A 
ATOM     17  C   UNL     1     112.602 130.664 137.015  0.00  0.00    +0.000 A 
ATOM     18  C   UNL     1     112.934 130.178 136.437  0.00  0.00    +0.000 A 
ATOM     19  C   UNL     1     113.022 128.907 135.740  0.00  0.00    +0.000 A 
ATOM     20  C   UNL     1     112.123 127.797 136.148  0.00  0.00    +0.000 A 
ATOM     21  C   UNL     1     112.748 128.099 135.640  0.00  0.00    +0.000 A 
BRANCH  20  24
ATOM     22  O   UNL     1     110.395 125.908 134.879  0.00  0.00    +0.000 OA
ATOM     23  O   UNL     1     111.047 124.698 135.792  0.00  0.00    +0.000 OA
ATOM     24  C   UNL     1     111.854 127.022 136.059  0.00  0.00    +0.000 A 
ATOM     25  C   UNL     1     111.259 126.853 135.513  0.00  0.00    +0.000 A 
ATOM     26  C   UNL     1     112.180 126.418 136.515  0.00  0.00    +0.000 A 
ATOM     27  C   UNL     1     110.990 126.077 135.425  0.00  0.00    +0.000 A 
ATOM     28  C   UNL     1     111.911 125.643 136.426  0.00  0.00    +0.000 A 
ATOM     29  C   UNL     1     111.316 125.473 135.881  0.00  0.00    +0.000 A 
ENDBRANCH  20  24
ENDBRANCH   6  13
BRANCH   8  31
ATOM     30  O   UNL     1     111.642 128.011 139.972  0.00  0.00    +0.000 OA
ATOM     31  C   UNL     1     110.908 128.369 139.855  0.00  0.00    +0.000 C 
ENDBRANCH   8  31
BRANCH   4  32
ATOM     32  O   UNL     1     110.162 129.671 136.916  0.00  0.00    +0.000 OA
BRANCH  32  37
ATOM     33  O   UNL     1     109.396 130.770 137.413  0.00  0.00    +0.000 OA
ATOM     34  O   UNL     1     109.135 129.536 135.632  0.00  0.00    +0.000 OA
ATOM     35  O   UNL     1     107.855 130.568 135.487  0.00  0.00    +0.000 OA
ATOM     36  O   UNL     1     107.603 131.734 136.626  0.00  0.00    +0.000 OA
ATOM     37  C   UNL     1     109.522 130.187 136.843  0.00  0.00    +0.000 C 
ATOM     38  C   UNL     1     109.009 130.119 136.201  0.00  0.00    +0.000 C 
ATOM     39  C   UNL     1     108.369 130.635 136.129  0.00  0.00    +0.000 C 
ATOM     40  C   UNL     1     108.243 131.218 136.698  0.00  0.00    +0.000 C 
ATOM     41  C   UNL     1     108.756 131.286 137.340  0.00  0.00    +0.000 C 
BRANCH  41  43
ATOM     42  O   UNL     1     109.169 132.491 137.989  0.00  0.00    +0.000 OA
ATOM     43  C   UNL     1     108.631 131.869 137.910  0.00  0.00    +0.000 C 
ENDBRANCH  41  43
ENDBRANCH  32  37
ENDBRANCH   4  32
TORSDOF 6
ENDMDL
MODEL 8
REMARK VINA RESULT:     -10.2      1.690      3.675
REMARK  Name = 102594479
REMARK  6 active torsions:
REMARK  status: ('A' for Active; 'I' for Inactive)
REMARK    1  A    between atoms: O_1  and  C_17
REMARK    2  A    between atoms: O_1  and  C_22
REMARK    3  A    between atoms: C_19  and  C_27
REMARK    4  A    between atoms: C_21  and  C_28
REMARK    5  A    between atoms: C_26  and  C_29
REMARK    6  A    between atoms: C_36  and  C_38
REMARK                            x       y       z     vdW  Elec       q    Type
REMARK                         _______ _______ _______ _____ _____    ______ ____
ROOT
ATOM      1  O   UNL     1     111.489 128.248 137.883  0.00  0.00    +0.000 OA
ATOM      2  O   UNL     1     111.472 127.230 140.140  0.00  0.00    +0.000 OA
ATOM      3  O   UNL     1     112.426 128.541 139.834  0.00  0.00    +0.000 OA
ATOM      4  C   UNL     1     111.006 127.253 138.789  0.00  0.00    +0.000 C 
ATOM      5  C   UNL     1     111.477 127.569 139.387  0.00  0.00    +0.000 C 
ATOM      6  C   UNL     1     111.012 127.592 138.037  0.00  0.00    +0.000 C 
ATOM      7  C   UNL     1     111.954 128.224 139.234  0.00  0.00    +0.000 C 
ATOM      8  C   UNL     1     111.960 128.564 138.483  0.00  0.00    +0.000 C 
ENDROOT
BRANCH   6  13
ATOM      9  O   UNL     1     111.615 126.354 137.118  0.00  0.00    +0.000 OA
ATOM     10  O   UNL     1     109.499 128.195 137.773  0.00  0.00    +0.000 OA
ATOM     11  O   UNL     1     109.126 126.329 135.641  0.00  0.00    +0.000 OA
ATOM     12  O   UNL     1     110.162 125.390 135.282  0.00  0.00    +0.000 OA
ATOM     13  C   UNL     1     110.541 127.277 137.438  0.00  0.00    +0.000 A 
ATOM     14  C   UNL     1     110.826 126.659 136.971  0.00  0.00    +0.000 A 
ATOM     15  C   UNL     1     109.784 127.578 137.306  0.00  0.00    +0.000 A 
ATOM     16  C   UNL     1     110.355 126.343 136.372  0.00  0.00    +0.000 A 
ATOM     17  C   UNL     1     109.312 127.262 136.707  0.00  0.00    +0.000 A 
ATOM     18  C   UNL     1     109.598 126.645 136.240  0.00  0.00    +0.000 A 
ATOM     19  C   UNL     1     110.640 125.700 135.879  0.00  0.00    +0.000 A 
ATOM     20  C   UNL     1     111.918 125.711 136.635  0.00  0.00    +0.000 A 
ATOM     21  C   UNL     1     111.427 125.382 136.011  0.00  0.00    +0.000 A 
BRANCH  20  24
ATOM     22  O   UNL     1     114.752 125.924 136.338  0.00  0.00    +0.000 OA
ATOM     23  O   UNL     1     114.946 124.513 137.171  0.00  0.00    +0.000 OA
ATOM     24  C   UNL     1     112.675 125.411 136.769  0.00  0.00    +0.000 A 
ATOM     25  C   UNL     1     113.335 125.818 136.486  0.00  0.00    +0.000 A 
ATOM     26  C   UNL     1     112.772 124.706 137.186  0.00  0.00    +0.000 A 
ATOM     27  C   UNL     1     114.093 125.518 136.620  0.00  0.00    +0.000 A 
ATOM     28  C   UNL     1     113.529 124.406 137.320  0.00  0.00    +0.000 A 
ATOM     29  C   UNL     1     114.189 124.812 137.037  0.00  0.00    +0.000 A 
ENDBRANCH  20  24
ENDBRANCH   6  13
BRANCH   8  31
ATOM     30  O   UNL     1     112.809 129.297 137.598  0.00  0.00    +0.000 OA
ATOM     31  C   UNL     1     112.437 129.220 138.330  0.00  0.00    +0.000 C 
ENDBRANCH   8  31
BRANCH   4  32
ATOM     32  O   UNL     1     110.529 126.598 138.942  0.00  0.00    +0.000 OA
BRANCH  32  37
ATOM     33  O   UNL     1     109.738 127.236 139.946  0.00  0.00    +0.000 OA
ATOM     34  O   UNL     1     110.380 125.160 139.738  0.00  0.00    +0.000 OA
ATOM     35  O   UNL     1     109.513 125.080 141.140  0.00  0.00    +0.000 OA
ATOM     36  O   UNL     1     108.797 126.436 141.745  0.00  0.00    +0.000 OA
ATOM     37  C   UNL     1     110.096 126.557 139.643  0.00  0.00    +0.000 C 
ATOM     38  C   UNL     1     110.022 125.838 140.041  0.00  0.00    +0.000 C 
ATOM     39  C   UNL     1     109.588 125.798 140.742  0.00  0.00    +0.000 C 
ATOM     40  C   UNL     1     109.230 126.476 141.045  0.00  0.00    +0.000 C 
ATOM     41  C   UNL     1     109.305 127.195 140.647  0.00  0.00    +0.000 C 
BRANCH  41  43
ATOM     42  O   UNL     1     108.327 128.231 140.537  0.00  0.00    +0.000 OA
ATOM     43  C   UNL     1     108.946 127.874 140.949  0.00  0.00    +0.000 C 
ENDBRANCH  41  43
ENDBRANCH  32  37
ENDBRANCH   4  32
TORSDOF 6
ENDMDL
MODEL 9
REMARK VINA RESULT:     -10.1      1.596      4.286
REMARK  Name = 102594479
REMARK  6 active torsions:
REMARK  status: ('A' for Active; 'I' for Inactive)
REMARK    1  A    between atoms: O_1  and  C_17
REMARK    2  A    between atoms: O_1  and  C_22
REMARK    3  A    between atoms: C_19  and  C_27
REMARK    4  A    between atoms: C_21  and  C_28
REMARK    5  A    between atoms: C_26  and  C_29
REMARK    6  A    between atoms: C_36  and  C_38
REMARK                            x       y       z     vdW  Elec       q    Type
REMARK                         _______ _______ _______ _____ _____    ______ ____
ROOT
ATOM      1  O   UNL     1     110.687 126.728 138.760  0.00  0.00    +0.000 OA
ATOM      2  O   UNL     1     112.260 128.639 138.734  0.00  0.00    +0.000 OA
ATOM      3  O   UNL     1     111.976 127.824 140.140  0.00  0.00    +0.000 OA
ATOM      4  C   UNL     1     111.353 127.772 138.049  0.00  0.00    +0.000 C 
ATOM      5  C   UNL     1     111.735 128.002 138.742  0.00  0.00    +0.000 C 
ATOM      6  C   UNL     1     110.829 127.135 138.057  0.00  0.00    +0.000 C 
ATOM      7  C   UNL     1     111.593 127.595 139.446  0.00  0.00    +0.000 C 
ATOM      8  C   UNL     1     111.069 126.958 139.455  0.00  0.00    +0.000 C 
ENDROOT
BRANCH   6  13
ATOM      9  O   UNL     1     111.589 126.068 137.046  0.00  0.00    +0.000 OA
ATOM     10  O   UNL     1     109.335 127.738 137.700  0.00  0.00    +0.000 OA
ATOM     11  O   UNL     1     109.300 126.217 135.281  0.00  0.00    +0.000 OA
ATOM     12  O   UNL     1     110.408 125.368 134.917  0.00  0.00    +0.000 OA
ATOM     13  C   UNL     1     110.447 126.906 137.364  0.00  0.00    +0.000 A 
ATOM     14  C   UNL     1     110.811 126.374 136.848  0.00  0.00    +0.000 A 
ATOM     15  C   UNL     1     109.700 127.207 137.185  0.00  0.00    +0.000 A 
ATOM     16  C   UNL     1     110.429 126.145 136.154  0.00  0.00    +0.000 A 
ATOM     17  C   UNL     1     109.317 126.977 136.490  0.00  0.00    +0.000 A 
ATOM     18  C   UNL     1     109.682 126.446 135.975  0.00  0.00    +0.000 A 
ATOM     19  C   UNL     1     110.798 125.592 135.609  0.00  0.00    +0.000 A 
ATOM     20  C   UNL     1     111.974 125.514 136.513  0.00  0.00    +0.000 A 
ATOM     21  C   UNL     1     111.576 125.274 135.789  0.00  0.00    +0.000 A 
BRANCH  20  24
ATOM     22  O   UNL     1     114.821 125.744 136.426  0.00  0.00    +0.000 OA
ATOM     23  O   UNL     1     114.962 124.314 137.238  0.00  0.00    +0.000 OA
ATOM     24  C   UNL     1     112.721 125.214 136.694  0.00  0.00    +0.000 A 
ATOM     25  C   UNL     1     113.397 125.629 136.469  0.00  0.00    +0.000 A 
ATOM     26  C   UNL     1     112.791 124.499 137.100  0.00  0.00    +0.000 A 
ATOM     27  C   UNL     1     114.145 125.329 136.651  0.00  0.00    +0.000 A 
ATOM     28  C   UNL     1     113.538 124.199 137.281  0.00  0.00    +0.000 A 
ATOM     29  C   UNL     1     114.215 124.614 137.057  0.00  0.00    +0.000 A 
ENDBRANCH  20  24
ENDBRANCH   6  13
BRANCH   8  31
ATOM     30  O   UNL     1     110.782 125.739 140.142  0.00  0.00    +0.000 OA
ATOM     31  C   UNL     1     110.927 126.550 140.158  0.00  0.00    +0.000 C 
ENDBRANCH   8  31
BRANCH   4  32
ATOM     32  O   UNL     1     111.496 128.180 137.346  0.00  0.00    +0.000 OA
BRANCH  32  37
ATOM     33  O   UNL     1     110.972 129.438 137.776  0.00  0.00    +0.000 OA
ATOM     34  O   UNL     1     112.666 128.961 136.484  0.00  0.00    +0.000 OA
ATOM     35  O   UNL     1     112.728 130.610 136.484  0.00  0.00    +0.000 OA
ATOM     36  O   UNL     1     111.620 131.477 137.344  0.00  0.00    +0.000 OA
ATOM     37  C   UNL     1     111.527 129.004 137.345  0.00  0.00    +0.000 C 
ATOM     38  C   UNL     1     112.112 129.394 136.914  0.00  0.00    +0.000 C 
ATOM     39  C   UNL     1     112.143 130.219 136.914  0.00  0.00    +0.000 C 
ATOM     40  C   UNL     1     111.589 130.653 137.344  0.00  0.00    +0.000 C 
ATOM     41  C   UNL     1     111.004 130.262 137.775  0.00  0.00    +0.000 C 
BRANCH  41  43
ATOM     42  O   UNL     1     109.653 130.681 137.985  0.00  0.00    +0.000 OA
ATOM     43  C   UNL     1     110.449 130.695 138.205  0.00  0.00    +0.000 C 
ENDBRANCH  41  43
ENDBRANCH  32  37
ENDBRANCH   4  32
TORSDOF 6
ENDMDL
MODEL 10
REMARK VINA RESULT:     -10.0      1.503      4.804
REMARK  Name = 102594479
REMARK  6 active torsions:
REMARK  status: ('A' for Active; 'I' for Inactive)
REMARK    1  A    between atoms: O_1  and  C_17
REMARK    2  A    between atoms: O_1  and  C_22
REMARK    3  A    between atoms: C_19  and  C_27
REMARK    4  A    between atoms: C_21  and  C_28
REMARK    5  A    between atoms: C_26  and  C_29
REMARK    6  A    between atoms: C_36  and  C_38
REMARK                            x       y       z     vdW  Elec       q    Type
REMARK                         _______ _______ _______ _____ _____    ______ ____
ROOT
ATOM      1  O   UNL     1     110.730 125.602 138.761  0.00  0.00    +0.000 OA
ATOM      2  O   UNL     1     110.028 127.771 137.796  0.00  0.00    +0.000 OA
ATOM      3  O   UNL     1     109.176 127.110 139.045  0.00  0.00    +0.000 OA
ATOM      4  C   UNL     1     110.921 126.656 137.815  0.00  0.00    +0.000 C 
ATOM      5  C   UNL     1     110.262 127.048 138.117  0.00  0.00    +0.000 C 
ATOM      6  C   UNL     1     111.156 125.933 138.137  0.00  0.00    +0.000 C 
ATOM      7  C   UNL     1     109.836 126.717 138.742  0.00  0.00    +0.000 C 
ATOM      8  C   UNL     1     110.069 125.995 139.064  0.00  0.00    +0.000 C 
ENDROOT
BRANCH   6  13
ATOM      9  O   UNL     1     112.653 126.324 138.723  0.00  0.00    +0.000 OA
ATOM     10  O   UNL     1     110.967 124.782 136.969  0.00  0.00    +0.000 OA
ATOM     11  O   UNL     1     113.794 124.363 136.926  0.00  0.00    +0.000 OA
ATOM     12  O   UNL     1     114.673 125.115 137.788  0.00  0.00    +0.000 OA
ATOM     13  C   UNL     1     111.815 125.541 137.834  0.00  0.00    +0.000 A 
ATOM     14  C   UNL     1     112.569 125.723 138.115  0.00  0.00    +0.000 A 
ATOM     15  C   UNL     1     111.721 124.965 137.251  0.00  0.00    +0.000 A 
ATOM     16  C   UNL     1     113.228 125.331 137.813  0.00  0.00    +0.000 A 
ATOM     17  C   UNL     1     112.381 124.572 136.948  0.00  0.00    +0.000 A 
ATOM     18  C   UNL     1     113.134 124.756 137.229  0.00  0.00    +0.000 A 
ATOM     19  C   UNL     1     114.019 125.513 138.097  0.00  0.00    +0.000 A 
ATOM     20  C   UNL     1     113.436 126.520 139.020  0.00  0.00    +0.000 A 
ATOM     21  C   UNL     1     114.124 126.111 138.705  0.00  0.00    +0.000 A 
BRANCH  20  24
ATOM     22  O   UNL     1     113.782 129.257 139.763  0.00  0.00    +0.000 OA
ATOM     23  O   UNL     1     113.801 128.823 141.355  0.00  0.00    +0.000 OA
ATOM     24  C   UNL     1     113.527 127.096 139.604  0.00  0.00    +0.000 A 
ATOM     25  C   UNL     1     113.609 127.888 139.391  0.00  0.00    +0.000 A 
ATOM     26  C   UNL     1     113.537 126.878 140.400  0.00  0.00    +0.000 A 
ATOM     27  C   UNL     1     113.700 128.465 139.975  0.00  0.00    +0.000 A 
ATOM     28  C   UNL     1     113.628 127.454 140.983  0.00  0.00    +0.000 A 
ATOM     29  C   UNL     1     113.710 128.247 140.771  0.00  0.00    +0.000 A 
ENDBRANCH  20  24
ENDBRANCH   6  13
BRANCH   8  31
ATOM     30  O   UNL     1     110.037 125.407 140.366  0.00  0.00    +0.000 OA
ATOM     31  C   UNL     1     109.643 125.664 139.688  0.00  0.00    +0.000 C 
ENDBRANCH   8  31
BRANCH   4  32
ATOM     32  O   UNL     1     111.347 126.986 137.191  0.00  0.00    +0.000 OA
BRANCH  32  37
ATOM     33  O   UNL     1     110.278 126.938 136.244  0.00  0.00    +0.000 OA
ATOM     34  O   UNL     1     111.892 128.385 136.505  0.00  0.00    +0.000 OA
ATOM     35  O   UNL     1     111.095 129.036 135.215  0.00  0.00    +0.000 OA
ATOM     36  O   UNL     1     109.754 128.289 134.612  0.00  0.00    +0.000 OA
ATOM     37  C   UNL     1     110.949 127.312 136.546  0.00  0.00    +0.000 C 
ATOM     38  C   UNL     1     111.222 128.012 136.203  0.00  0.00    +0.000 C 
ATOM     39  C   UNL     1     110.822 128.337 135.558  0.00  0.00    +0.000 C 
ATOM     40  C   UNL     1     110.152 127.963 135.256  0.00  0.00    +0.000 C 
ATOM     41  C   UNL     1     109.880 127.264 135.600  0.00  0.00    +0.000 C 
BRANCH  41  43
ATOM     42  O   UNL     1     109.272 126.138 134.964  0.00  0.00    +0.000 OA
ATOM     43  C   UNL     1     109.209 126.890 135.298  0.00  0.00    +0.000 C 
ENDBRANCH  41  43
ENDBRANCH  32  37
ENDBRANCH   4  32
TORSDOF 6
ENDMDL
