MODEL 1
REMARK VINA RESULT:     -10.3      0.000      0.000
REMARK  Name = 44259983
REMARK  7 active torsions:
REMARK  status: ('A' for Active; 'I' for Inactive)
REMARK    1  A    between atoms: O_2  and  C_23
REMARK    2  A    between atoms: O_2  and  C_27
REMARK    3  A    between atoms: O_6  and  C_26
REMARK    4  A    between atoms: O_6  and  C_30
REMARK    5  A    between atoms: O_15  and  C_41
REMARK    6  A    between atoms: C_18  and  C_27
REMARK    7  A    between atoms: C_31  and  C_35
REMARK                            x       y       z     vdW  Elec       q    Type
REMARK                         _______ _______ _______ _____ _____    ______ ____
ROOT
ATOM      1  O   UNL     1     112.928 128.377 138.156  0.00  0.00    +0.000 OA
ATOM      2  O   UNL     1     113.414 126.917 136.218  0.00  0.00    +0.000 OA
ATOM      3  O   UNL     1     113.965 128.029 135.483  0.00  0.00    +0.000 OA
ATOM      4  O   UNL     1     113.306 130.009 138.112  0.00  0.00    +0.000 OA
ATOM      5  C   UNL     1     112.900 127.088 137.541  0.00  0.00    +0.000 A 
ATOM      6  C   UNL     1     112.738 127.575 138.187  0.00  0.00    +0.000 A 
ATOM      7  C   UNL     1     113.252 127.404 136.864  0.00  0.00    +0.000 A 
ATOM      8  C   UNL     1     113.441 128.206 136.834  0.00  0.00    +0.000 A 
ATOM      9  C   UNL     1     113.279 128.693 137.480  0.00  0.00    +0.000 A 
ATOM     10  C   UNL     1     113.807 128.523 136.124  0.00  0.00    +0.000 A 
ATOM     11  C   UNL     1     113.472 129.530 137.461  0.00  0.00    +0.000 A 
ATOM     12  C   UNL     1     114.007 129.358 136.087  0.00  0.00    +0.000 A 
ATOM     13  C   UNL     1     113.838 129.865 136.759  0.00  0.00    +0.000 A 
ENDROOT
BRANCH   6  16
ATOM     14  O   UNL     1     110.437 127.220 139.844  0.00  0.00    +0.000 OA
ATOM     15  O   UNL     1     111.331 126.311 140.892  0.00  0.00    +0.000 OA
ATOM     16  C   UNL     1     112.387 127.259 138.863  0.00  0.00    +0.000 A 
ATOM     17  C   UNL     1     111.588 127.397 139.015  0.00  0.00    +0.000 A 
ATOM     18  C   UNL     1     112.834 126.805 139.387  0.00  0.00    +0.000 A 
ATOM     19  C   UNL     1     111.236 127.081 139.692  0.00  0.00    +0.000 A 
ATOM     20  C   UNL     1     112.482 126.489 140.063  0.00  0.00    +0.000 A 
ATOM     21  C   UNL     1     111.683 126.627 140.215  0.00  0.00    +0.000 A 
ENDBRANCH   6  16
BRANCH  13  22
ATOM     22  O   UNL     1     114.026 130.668 136.732  0.00  0.00    +0.000 OA
ATOM     23  C   UNL     1     114.477 130.964 136.108  0.00  0.00    +0.000 C 
ENDBRANCH  13  22
BRANCH   5  24
ATOM     24  O   UNL     1     112.711 126.286 137.570  0.00  0.00    +0.000 OA
BRANCH  24  33
ATOM     25  O   UNL     1     111.620 126.447 136.662  0.00  0.00    +0.000 OA
ATOM     26  O   UNL     1     110.603 125.003 135.379  0.00  0.00    +0.000 OA
ATOM     27  O   UNL     1     111.731 124.039 136.100  0.00  0.00    +0.000 OA
ATOM     28  O   UNL     1     112.785 124.680 137.196  0.00  0.00    +0.000 OA
ATOM     29  C   UNL     1     111.093 126.126 136.115  0.00  0.00    +0.000 C 
ATOM     30  C   UNL     1     111.130 125.324 135.927  0.00  0.00    +0.000 C 
ATOM     31  C   UNL     1     111.695 124.841 136.288  0.00  0.00    +0.000 C 
ATOM     32  C   UNL     1     112.222 125.162 136.836  0.00  0.00    +0.000 C 
ATOM     33  C   UNL     1     112.184 125.965 137.023  0.00  0.00    +0.000 C 
BRANCH  29  34
ATOM     34  C   UNL     1     110.528 126.608 135.754  0.00  0.00    +0.000 C 
BRANCH  34  35
ATOM     35  O   UNL     1     110.042 127.090 136.214  0.00  0.00    +0.000 OA
BRANCH  35  41
ATOM     36  O   UNL     1     110.251 128.289 135.465  0.00  0.00    +0.000 OA
ATOM     37  O   UNL     1     108.476 127.533 136.486  0.00  0.00    +0.000 OA
ATOM     38  O   UNL     1     107.902 128.953 135.873  0.00  0.00    +0.000 OA
ATOM     39  O   UNL     1     108.894 129.930 134.989  0.00  0.00    +0.000 OA
ATOM     40  C   UNL     1     108.972 128.021 136.044  0.00  0.00    +0.000 C 
ATOM     41  C   UNL     1     109.755 127.799 135.908  0.00  0.00    +0.000 C 
ATOM     42  C   UNL     1     108.685 128.732 135.737  0.00  0.00    +0.000 C 
ATOM     43  C   UNL     1     109.182 129.220 135.295  0.00  0.00    +0.000 C 
ATOM     44  C   UNL     1     109.965 128.998 135.159  0.00  0.00    +0.000 C 
ATOM     45  C   UNL     1     110.460 129.487 134.717  0.00  0.00    +0.000 C 
ENDBRANCH  35  41
ENDBRANCH  34  35
ENDBRANCH  29  34
ENDBRANCH  24  33
ENDBRANCH   5  24
TORSDOF 7
ENDMDL
MODEL 2
REMARK VINA RESULT:     -10.3      1.195      3.351
REMARK  Name = 44259983
REMARK  7 active torsions:
REMARK  status: ('A' for Active; 'I' for Inactive)
REMARK    1  A    between atoms: O_2  and  C_23
REMARK    2  A    between atoms: O_2  and  C_27
REMARK    3  A    between atoms: O_6  and  C_26
REMARK    4  A    between atoms: O_6  and  C_30
REMARK    5  A    between atoms: O_15  and  C_41
REMARK    6  A    between atoms: C_18  and  C_27
REMARK    7  A    between atoms: C_31  and  C_35
REMARK                            x       y       z     vdW  Elec       q    Type
REMARK                         _______ _______ _______ _____ _____    ______ ____
ROOT
ATOM      1  O   UNL     1     112.182 126.163 138.910  0.00  0.00    +0.000 OA
ATOM      2  O   UNL     1     113.560 128.103 138.227  0.00  0.00    +0.000 OA
ATOM      3  O   UNL     1     113.372 128.725 139.515  0.00  0.00    +0.000 OA
ATOM      4  O   UNL     1     111.504 126.094 140.440  0.00  0.00    +0.000 OA
ATOM      5  C   UNL     1     112.972 126.835 137.926  0.00  0.00    +0.000 A 
ATOM      6  C   UNL     1     112.513 126.188 138.154  0.00  0.00    +0.000 A 
ATOM      7  C   UNL     1     113.101 127.456 138.455  0.00  0.00    +0.000 A 
ATOM      8  C   UNL     1     112.770 127.430 139.210  0.00  0.00    +0.000 A 
ATOM      9  C   UNL     1     112.311 126.783 139.437  0.00  0.00    +0.000 A 
ATOM     10  C   UNL     1     112.911 128.082 139.751  0.00  0.00    +0.000 A 
ATOM     11  C   UNL     1     111.961 126.745 140.222  0.00  0.00    +0.000 A 
ATOM     12  C   UNL     1     112.570 128.061 140.539  0.00  0.00    +0.000 A 
ATOM     13  C   UNL     1     112.092 127.388 140.776  0.00  0.00    +0.000 A 
ENDROOT
BRANCH   6  16
ATOM     14  O   UNL     1     110.803 124.809 136.325  0.00  0.00    +0.000 OA
ATOM     15  O   UNL     1     111.997 123.706 136.041  0.00  0.00    +0.000 OA
ATOM     16  C   UNL     1     112.384 125.568 137.626  0.00  0.00    +0.000 A 
ATOM     17  C   UNL     1     111.658 125.499 137.240  0.00  0.00    +0.000 A 
ATOM     18  C   UNL     1     112.981 125.016 137.483  0.00  0.00    +0.000 A 
ATOM     19  C   UNL     1     111.529 124.878 136.711  0.00  0.00    +0.000 A 
ATOM     20  C   UNL     1     112.852 124.396 136.956  0.00  0.00    +0.000 A 
ATOM     21  C   UNL     1     112.126 124.327 136.570  0.00  0.00    +0.000 A 
ENDBRANCH   6  16
BRANCH  13  22
ATOM     22  O   UNL     1     111.760 127.359 141.531  0.00  0.00    +0.000 OA
ATOM     23  C   UNL     1     111.927 127.955 142.077  0.00  0.00    +0.000 C 
ENDBRANCH  13  22
BRANCH   5  24
ATOM     24  O   UNL     1     113.302 126.861 137.171  0.00  0.00    +0.000 OA
BRANCH  24  33
ATOM     25  O   UNL     1     112.410 127.864 136.684  0.00  0.00    +0.000 OA
ATOM     26  O   UNL     1     112.697 129.431 135.192  0.00  0.00    +0.000 OA
ATOM     27  O   UNL     1     114.180 128.709 135.175  0.00  0.00    +0.000 OA
ATOM     28  O   UNL     1     114.483 127.424 136.165  0.00  0.00    +0.000 OA
ATOM     29  C   UNL     1     112.258 128.507 136.190  0.00  0.00    +0.000 C 
ATOM     30  C   UNL     1     112.848 128.789 135.686  0.00  0.00    +0.000 C 
ATOM     31  C   UNL     1     113.591 128.427 135.679  0.00  0.00    +0.000 C 
ATOM     32  C   UNL     1     113.742 127.785 136.173  0.00  0.00    +0.000 C 
ATOM     33  C   UNL     1     113.151 127.504 136.676  0.00  0.00    +0.000 C 
BRANCH  29  34
ATOM     34  C   UNL     1     111.516 128.869 136.197  0.00  0.00    +0.000 C 
BRANCH  34  35
ATOM     35  O   UNL     1     110.839 128.423 136.046  0.00  0.00    +0.000 OA
BRANCH  35  41
ATOM     36  O   UNL     1     110.019 129.547 136.374  0.00  0.00    +0.000 OA
ATOM     37  O   UNL     1     109.502 127.593 135.548  0.00  0.00    +0.000 OA
ATOM     38  O   UNL     1     108.014 128.302 135.626  0.00  0.00    +0.000 OA
ATOM     39  O   UNL     1     107.863 129.840 136.203  0.00  0.00    +0.000 OA
ATOM     40  C   UNL     1     109.427 128.362 135.836  0.00  0.00    +0.000 C 
ATOM     41  C   UNL     1     110.095 128.777 136.085  0.00  0.00    +0.000 C 
ATOM     42  C   UNL     1     108.682 128.717 135.875  0.00  0.00    +0.000 C 
ATOM     43  C   UNL     1     108.607 129.486 136.164  0.00  0.00    +0.000 C 
ATOM     44  C   UNL     1     109.275 129.901 136.413  0.00  0.00    +0.000 C 
ATOM     45  C   UNL     1     109.199 130.669 136.701  0.00  0.00    +0.000 C 
ENDBRANCH  35  41
ENDBRANCH  34  35
ENDBRANCH  29  34
ENDBRANCH  24  33
ENDBRANCH   5  24
TORSDOF 7
ENDMDL
MODEL 3
REMARK VINA RESULT:     -10.1      1.569      3.774
REMARK  Name = 44259983
REMARK  7 active torsions:
REMARK  status: ('A' for Active; 'I' for Inactive)
REMARK    1  A    between atoms: O_2  and  C_23
REMARK    2  A    between atoms: O_2  and  C_27
REMARK    3  A    between atoms: O_6  and  C_26
REMARK    4  A    between atoms: O_6  and  C_30
REMARK    5  A    between atoms: O_15  and  C_41
REMARK    6  A    between atoms: C_18  and  C_27
REMARK    7  A    between atoms: C_31  and  C_35
REMARK                            x       y       z     vdW  Elec       q    Type
REMARK                         _______ _______ _______ _____ _____    ______ ____
ROOT
ATOM      1  O   UNL     1     112.841 126.058 138.659  0.00  0.00    +0.000 OA
ATOM      2  O   UNL     1     110.524 125.737 137.851  0.00  0.00    +0.000 OA
ATOM      3  O   UNL     1     109.991 126.200 139.108  0.00  0.00    +0.000 OA
ATOM      4  O   UNL     1     113.134 126.635 140.205  0.00  0.00    +0.000 OA
ATOM      5  C   UNL     1     111.935 125.667 137.627  0.00  0.00    +0.000 A 
ATOM      6  C   UNL     1     112.707 125.774 137.896  0.00  0.00    +0.000 A 
ATOM      7  C   UNL     1     111.297 125.844 138.120  0.00  0.00    +0.000 A 
ATOM      8  C   UNL     1     111.432 126.129 138.882  0.00  0.00    +0.000 A 
ATOM      9  C   UNL     1     112.205 126.236 139.152  0.00  0.00    +0.000 A 
ATOM     10  C   UNL     1     110.760 126.310 139.387  0.00  0.00    +0.000 A 
ATOM     11  C   UNL     1     112.358 126.532 139.944  0.00  0.00    +0.000 A 
ATOM     12  C   UNL     1     110.895 126.607 140.181  0.00  0.00    +0.000 A 
ATOM     13  C   UNL     1     111.699 126.718 140.462  0.00  0.00    +0.000 A 
ENDROOT
BRANCH   6  16
ATOM     14  O   UNL     1     114.802 126.634 136.154  0.00  0.00    +0.000 OA
ATOM     15  O   UNL     1     115.256 125.064 135.924  0.00  0.00    +0.000 OA
ATOM     16  C   UNL     1     113.343 125.596 137.404  0.00  0.00    +0.000 A 
ATOM     17  C   UNL     1     113.754 126.204 137.025  0.00  0.00    +0.000 A 
ATOM     18  C   UNL     1     113.571 124.811 137.288  0.00  0.00    +0.000 A 
ATOM     19  C   UNL     1     114.392 126.026 136.532  0.00  0.00    +0.000 A 
ATOM     20  C   UNL     1     114.207 124.634 136.796  0.00  0.00    +0.000 A 
ATOM     21  C   UNL     1     114.618 125.241 136.417  0.00  0.00    +0.000 A 
ENDBRANCH   6  16
BRANCH  13  22
ATOM     22  O   UNL     1     111.837 127.003 141.224  0.00  0.00    +0.000 OA
ATOM     23  C   UNL     1     111.214 127.310 141.669  0.00  0.00    +0.000 C 
ENDBRANCH  13  22
BRANCH   5  24
ATOM     24  O   UNL     1     111.799 125.382 136.865  0.00  0.00    +0.000 OA
BRANCH  24  33
ATOM     25  O   UNL     1     111.372 126.655 136.378  0.00  0.00    +0.000 OA
ATOM     26  O   UNL     1     110.062 127.183 134.714  0.00  0.00    +0.000 OA
ATOM     27  O   UNL     1     110.046 125.537 134.612  0.00  0.00    +0.000 OA
ATOM     28  O   UNL     1     110.915 124.636 135.688  0.00  0.00    +0.000 OA
ATOM     29  C   UNL     1     110.938 127.105 135.840  0.00  0.00    +0.000 C 
ATOM     30  C   UNL     1     110.496 126.733 135.251  0.00  0.00    +0.000 C 
ATOM     31  C   UNL     1     110.488 125.909 135.201  0.00  0.00    +0.000 C 
ATOM     32  C   UNL     1     110.923 125.459 135.739  0.00  0.00    +0.000 C 
ATOM     33  C   UNL     1     111.364 125.832 136.327  0.00  0.00    +0.000 C 
BRANCH  29  34
ATOM     34  C   UNL     1     110.945 127.930 135.890  0.00  0.00    +0.000 C 
BRANCH  34  35
ATOM     35  O   UNL     1     111.664 128.335 135.915  0.00  0.00    +0.000 OA
BRANCH  35  41
ATOM     36  O   UNL     1     111.194 129.214 136.940  0.00  0.00    +0.000 OA
ATOM     37  O   UNL     1     112.830 129.429 135.511  0.00  0.00    +0.000 OA
ATOM     38  O   UNL     1     112.944 130.855 136.333  0.00  0.00    +0.000 OA
ATOM     39  O   UNL     1     111.892 131.187 137.559  0.00  0.00    +0.000 OA
ATOM     40  C   UNL     1     112.304 129.595 136.124  0.00  0.00    +0.000 C 
ATOM     41  C   UNL     1     111.720 129.047 136.326  0.00  0.00    +0.000 C 
ATOM     42  C   UNL     1     112.361 130.308 136.535  0.00  0.00    +0.000 C 
ATOM     43  C   UNL     1     111.835 130.473 137.148  0.00  0.00    +0.000 C 
ATOM     44  C   UNL     1     111.251 129.926 137.350  0.00  0.00    +0.000 C 
ATOM     45  C   UNL     1     110.726 130.092 137.963  0.00  0.00    +0.000 C 
ENDBRANCH  35  41
ENDBRANCH  34  35
ENDBRANCH  29  34
ENDBRANCH  24  33
ENDBRANCH   5  24
TORSDOF 7
ENDMDL
MODEL 4
REMARK VINA RESULT:     -10.0      1.583      3.288
REMARK  Name = 44259983
REMARK  7 active torsions:
REMARK  status: ('A' for Active; 'I' for Inactive)
REMARK    1  A    between atoms: O_2  and  C_23
REMARK    2  A    between atoms: O_2  and  C_27
REMARK    3  A    between atoms: O_6  and  C_26
REMARK    4  A    between atoms: O_6  and  C_30
REMARK    5  A    between atoms: O_15  and  C_41
REMARK    6  A    between atoms: C_18  and  C_27
REMARK    7  A    between atoms: C_31  and  C_35
REMARK                            x       y       z     vdW  Elec       q    Type
REMARK                         _______ _______ _______ _____ _____    ______ ____
ROOT
ATOM      1  O   UNL     1     112.570 128.160 135.675  0.00  0.00    +0.000 OA
ATOM      2  O   UNL     1     112.463 128.693 138.089  0.00  0.00    +0.000 OA
ATOM      3  O   UNL     1     113.478 129.707 137.939  0.00  0.00    +0.000 OA
ATOM      4  O   UNL     1     113.623 128.985 134.664  0.00  0.00    +0.000 OA
ATOM      5  C   UNL     1     112.013 127.927 136.970  0.00  0.00    +0.000 A 
ATOM      6  C   UNL     1     112.049 127.749 136.165  0.00  0.00    +0.000 A 
ATOM      7  C   UNL     1     112.499 128.516 137.285  0.00  0.00    +0.000 A 
ATOM      8  C   UNL     1     113.020 128.926 136.794  0.00  0.00    +0.000 A 
ATOM      9  C   UNL     1     113.055 128.748 135.989  0.00  0.00    +0.000 A 
ATOM     10  C   UNL     1     113.520 129.537 137.133  0.00  0.00    +0.000 A 
ATOM     11  C   UNL     1     113.594 129.169 135.468  0.00  0.00    +0.000 A 
ATOM     12  C   UNL     1     114.065 129.968 136.628  0.00  0.00    +0.000 A 
ATOM     13  C   UNL     1     114.102 129.783 135.790  0.00  0.00    +0.000 A 
ENDROOT
BRANCH   6  16
ATOM     14  O   UNL     1     109.766 126.986 134.624  0.00  0.00    +0.000 OA
ATOM     15  O   UNL     1     110.107 125.396 134.907  0.00  0.00    +0.000 OA
ATOM     16  C   UNL     1     111.564 127.161 135.851  0.00  0.00    +0.000 A 
ATOM     17  C   UNL     1     110.908 127.368 135.395  0.00  0.00    +0.000 A 
ATOM     18  C   UNL     1     111.734 126.366 135.992  0.00  0.00    +0.000 A 
ATOM     19  C   UNL     1     110.422 126.779 135.080  0.00  0.00    +0.000 A 
ATOM     20  C   UNL     1     111.249 125.778 135.678  0.00  0.00    +0.000 A 
ATOM     21  C   UNL     1     110.593 125.985 135.222  0.00  0.00    +0.000 A 
ENDBRANCH   6  16
BRANCH  13  22
ATOM     22  O   UNL     1     114.622 130.192 135.297  0.00  0.00    +0.000 OA
ATOM     23  C   UNL     1     115.015 130.862 135.577  0.00  0.00    +0.000 C 
ENDBRANCH  13  22
BRANCH   5  24
ATOM     24  O   UNL     1     111.493 127.516 137.460  0.00  0.00    +0.000 OA
BRANCH  24  33
ATOM     25  O   UNL     1     110.579 128.609 137.572  0.00  0.00    +0.000 OA
ATOM     26  O   UNL     1     109.191 129.155 139.166  0.00  0.00    +0.000 OA
ATOM     27  O   UNL     1     109.869 127.789 139.796  0.00  0.00    +0.000 OA
ATOM     28  O   UNL     1     111.019 126.970 138.944  0.00  0.00    +0.000 OA
ATOM     29  C   UNL     1     110.004 129.018 137.998  0.00  0.00    +0.000 C 
ATOM     30  C   UNL     1     109.767 128.745 138.739  0.00  0.00    +0.000 C 
ATOM     31  C   UNL     1     110.106 128.062 139.055  0.00  0.00    +0.000 C 
ATOM     32  C   UNL     1     110.681 127.652 138.628  0.00  0.00    +0.000 C 
ATOM     33  C   UNL     1     110.917 127.926 137.887  0.00  0.00    +0.000 C 
BRANCH  29  34
ATOM     34  C   UNL     1     109.664 129.702 137.683  0.00  0.00    +0.000 C 
BRANCH  34  35
ATOM     35  O   UNL     1     109.326 129.685 136.931  0.00  0.00    +0.000 OA
BRANCH  35  41
ATOM     36  O   UNL     1     109.599 131.071 136.714  0.00  0.00    +0.000 OA
ATOM     37  O   UNL     1     108.149 129.737 135.775  0.00  0.00    +0.000 OA
ATOM     38  O   UNL     1     107.834 131.149 134.981  0.00  0.00    +0.000 OA
ATOM     39  O   UNL     1     108.696 132.507 135.342  0.00  0.00    +0.000 OA
ATOM     40  C   UNL     1     108.580 130.416 135.956  0.00  0.00    +0.000 C 
ATOM     41  C   UNL     1     109.168 130.391 136.534  0.00  0.00    +0.000 C 
ATOM     42  C   UNL     1     108.422 131.123 135.559  0.00  0.00    +0.000 C 
ATOM     43  C   UNL     1     108.854 131.802 135.739  0.00  0.00    +0.000 C 
ATOM     44  C   UNL     1     109.442 131.776 136.317  0.00  0.00    +0.000 C 
ATOM     45  C   UNL     1     109.873 132.456 136.497  0.00  0.00    +0.000 C 
ENDBRANCH  35  41
ENDBRANCH  34  35
ENDBRANCH  29  34
ENDBRANCH  24  33
ENDBRANCH   5  24
TORSDOF 7
ENDMDL
MODEL 5
REMARK VINA RESULT:     -10.0      1.089      4.945
REMARK  Name = 44259983
REMARK  7 active torsions:
REMARK  status: ('A' for Active; 'I' for Inactive)
REMARK    1  A    between atoms: O_2  and  C_23
REMARK    2  A    between atoms: O_2  and  C_27
REMARK    3  A    between atoms: O_6  and  C_26
REMARK    4  A    between atoms: O_6  and  C_30
REMARK    5  A    between atoms: O_15  and  C_41
REMARK    6  A    between atoms: C_18  and  C_27
REMARK    7  A    between atoms: C_31  and  C_35
REMARK                            x       y       z     vdW  Elec       q    Type
REMARK                         _______ _______ _______ _____ _____    ______ ____
ROOT
ATOM      1  O   UNL     1     111.091 126.415 135.952  0.00  0.00    +0.000 OA
ATOM      2  O   UNL     1     113.337 127.208 136.626  0.00  0.00    +0.000 OA
ATOM      3  O   UNL     1     113.779 125.854 136.850  0.00  0.00    +0.000 OA
ATOM      4  O   UNL     1     110.733 124.778 135.936  0.00  0.00    +0.000 OA
ATOM      5  C   UNL     1     112.007 127.487 136.182  0.00  0.00    +0.000 A 
ATOM      6  C   UNL     1     111.258 127.223 135.957  0.00  0.00    +0.000 A 
ATOM      7  C   UNL     1     112.588 126.944 136.402  0.00  0.00    +0.000 A 
ATOM      8  C   UNL     1     112.420 126.136 136.396  0.00  0.00    +0.000 A 
ATOM      9  C   UNL     1     111.671 125.872 136.171  0.00  0.00    +0.000 A 
ATOM     10  C   UNL     1     113.033 125.580 136.627  0.00  0.00    +0.000 A 
ATOM     11  C   UNL     1     111.485 125.033 136.162  0.00  0.00    +0.000 A 
ATOM     12  C   UNL     1     112.865 124.738 136.623  0.00  0.00    +0.000 A 
ATOM     13  C   UNL     1     112.085 124.462 136.389  0.00  0.00    +0.000 A 
ENDROOT
BRANCH   6  16
ATOM     14  O   UNL     1     108.837 128.627 136.537  0.00  0.00    +0.000 OA
ATOM     15  O   UNL     1     108.935 129.396 135.080  0.00  0.00    +0.000 OA
ATOM     16  C   UNL     1     110.678 127.766 135.738  0.00  0.00    +0.000 A 
ATOM     17  C   UNL     1     110.048 127.924 136.247  0.00  0.00    +0.000 A 
ATOM     18  C   UNL     1     110.726 128.151 135.010  0.00  0.00    +0.000 A 
ATOM     19  C   UNL     1     109.467 128.468 136.028  0.00  0.00    +0.000 A 
ATOM     20  C   UNL     1     110.146 128.694 134.791  0.00  0.00    +0.000 A 
ATOM     21  C   UNL     1     109.517 128.853 135.300  0.00  0.00    +0.000 A 
ENDBRANCH   6  16
BRANCH  13  22
ATOM     22  O   UNL     1     111.915 123.655 136.383  0.00  0.00    +0.000 OA
ATOM     23  C   UNL     1     112.196 123.169 136.988  0.00  0.00    +0.000 C 
ENDBRANCH  13  22
BRANCH   5  24
ATOM     24  O   UNL     1     112.175 128.295 136.188  0.00  0.00    +0.000 OA
BRANCH  24  33
ATOM     25  O   UNL     1     112.093 128.452 137.605  0.00  0.00    +0.000 OA
ATOM     26  O   UNL     1     113.203 129.749 138.965  0.00  0.00    +0.000 OA
ATOM     27  O   UNL     1     113.881 130.161 137.519  0.00  0.00    +0.000 OA
ATOM     28  O   UNL     1     113.367 129.434 136.130  0.00  0.00    +0.000 OA
ATOM     29  C   UNL     1     112.350 128.816 138.299  0.00  0.00    +0.000 C 
ATOM     30  C   UNL     1     112.946 129.386 138.271  0.00  0.00    +0.000 C 
ATOM     31  C   UNL     1     113.285 129.592 137.547  0.00  0.00    +0.000 C 
ATOM     32  C   UNL     1     113.028 129.228 136.852  0.00  0.00    +0.000 C 
ATOM     33  C   UNL     1     112.432 128.658 136.882  0.00  0.00    +0.000 C 
BRANCH  29  34
ATOM     34  C   UNL     1     112.011 128.610 139.023  0.00  0.00    +0.000 C 
BRANCH  34  35
ATOM     35  O   UNL     1     111.922 127.815 139.226  0.00  0.00    +0.000 OA
BRANCH  35  41
ATOM     36  O   UNL     1     110.948 128.142 140.219  0.00  0.00    +0.000 OA
ATOM     37  O   UNL     1     112.116 126.325 139.907  0.00  0.00    +0.000 OA
ATOM     38  O   UNL     1     111.239 125.907 141.241  0.00  0.00    +0.000 OA
ATOM     39  O   UNL     1     110.169 126.979 141.893  0.00  0.00    +0.000 OA
ATOM     40  C   UNL     1     111.581 126.861 140.233  0.00  0.00    +0.000 C 
ATOM     41  C   UNL     1     111.484 127.607 139.892  0.00  0.00    +0.000 C 
ATOM     42  C   UNL     1     111.142 126.652 140.900  0.00  0.00    +0.000 C 
ATOM     43  C   UNL     1     110.607 127.189 141.226  0.00  0.00    +0.000 C 
ATOM     44  C   UNL     1     110.510 127.934 140.886  0.00  0.00    +0.000 C 
ATOM     45  C   UNL     1     109.975 128.469 141.212  0.00  0.00    +0.000 C 
ENDBRANCH  35  41
ENDBRANCH  34  35
ENDBRANCH  29  34
ENDBRANCH  24  33
ENDBRANCH   5  24
TORSDOF 7
ENDMDL
MODEL 6
REMARK VINA RESULT:      -9.9      1.055      3.718
REMARK  Name = 44259983
REMARK  7 active torsions:
REMARK  status: ('A' for Active; 'I' for Inactive)
REMARK    1  A    between atoms: O_2  and  C_23
REMARK    2  A    between atoms: O_2  and  C_27
REMARK    3  A    between atoms: O_6  and  C_26
REMARK    4  A    between atoms: O_6  and  C_30
REMARK    5  A    between atoms: O_15  and  C_41
REMARK    6  A    between atoms: C_18  and  C_27
REMARK    7  A    between atoms: C_31  and  C_35
REMARK                            x       y       z     vdW  Elec       q    Type
REMARK                         _______ _______ _______ _____ _____    ______ ____
ROOT
ATOM      1  O   UNL     1     111.797 129.293 136.109  0.00  0.00    +0.000 OA
ATOM      2  O   UNL     1     112.863 127.104 135.664  0.00  0.00    +0.000 OA
ATOM      3  O   UNL     1     114.176 127.683 135.806  0.00  0.00    +0.000 OA
ATOM      4  O   UNL     1     112.731 130.652 136.410  0.00  0.00    +0.000 OA
ATOM      5  C   UNL     1     111.684 127.900 135.814  0.00  0.00    +0.000 A 
ATOM      6  C   UNL     1     111.329 128.629 135.962  0.00  0.00    +0.000 A 
ATOM      7  C   UNL     1     112.507 127.834 135.813  0.00  0.00    +0.000 A 
ATOM      8  C   UNL     1     112.974 128.498 135.960  0.00  0.00    +0.000 A 
ATOM      9  C   UNL     1     112.619 129.227 136.108  0.00  0.00    +0.000 A 
ATOM     10  C   UNL     1     113.830 128.417 135.955  0.00  0.00    +0.000 A 
ATOM     11  C   UNL     1     113.095 129.926 136.262  0.00  0.00    +0.000 A 
ATOM     12  C   UNL     1     114.322 129.104 136.108  0.00  0.00    +0.000 A 
ATOM     13  C   UNL     1     113.952 129.864 136.262  0.00  0.00    +0.000 A 
ENDROOT
BRANCH   6  16
ATOM     14  O   UNL     1     108.870 128.884 137.395  0.00  0.00    +0.000 OA
ATOM     15  O   UNL     1     108.040 128.892 135.969  0.00  0.00    +0.000 OA
ATOM     16  C   UNL     1     110.508 128.695 135.964  0.00  0.00    +0.000 A 
ATOM     17  C   UNL     1     110.100 128.757 136.679  0.00  0.00    +0.000 A 
ATOM     18  C   UNL     1     110.092 128.699 135.251  0.00  0.00    +0.000 A 
ATOM     19  C   UNL     1     109.277 128.822 136.680  0.00  0.00    +0.000 A 
ATOM     20  C   UNL     1     109.270 128.765 135.252  0.00  0.00    +0.000 A 
ATOM     21  C   UNL     1     108.863 128.827 135.967  0.00  0.00    +0.000 A 
ENDBRANCH   6  16
BRANCH  13  22
ATOM     22  O   UNL     1     114.417 130.529 136.409  0.00  0.00    +0.000 OA
ATOM     23  C   UNL     1     115.139 130.622 136.022  0.00  0.00    +0.000 C 
ENDBRANCH  13  22
BRANCH   5  24
ATOM     24  O   UNL     1     111.218 127.236 135.667  0.00  0.00    +0.000 OA
BRANCH  24  33
ATOM     25  O   UNL     1     111.484 126.634 136.935  0.00  0.00    +0.000 OA
ATOM     26  O   UNL     1     111.550 124.537 137.537  0.00  0.00    +0.000 OA
ATOM     27  O   UNL     1     111.183 124.390 135.935  0.00  0.00    +0.000 OA
ATOM     28  O   UNL     1     111.017 125.740 135.000  0.00  0.00    +0.000 OA
ATOM     29  C   UNL     1     111.567 125.959 137.402  0.00  0.00    +0.000 C 
ATOM     30  C   UNL     1     111.467 125.211 137.069  0.00  0.00    +0.000 C 
ATOM     31  C   UNL     1     111.283 125.138 136.268  0.00  0.00    +0.000 C 
ATOM     32  C   UNL     1     111.200 125.813 135.800  0.00  0.00    +0.000 C 
ATOM     33  C   UNL     1     111.301 126.561 136.135  0.00  0.00    +0.000 C 
BRANCH  29  34
ATOM     34  C   UNL     1     111.751 126.032 138.204  0.00  0.00    +0.000 C 
BRANCH  34  35
ATOM     35  O   UNL     1     111.288 126.511 138.691  0.00  0.00    +0.000 OA
BRANCH  35  41
ATOM     36  O   UNL     1     112.344 126.766 139.620  0.00  0.00    +0.000 OA
ATOM     37  O   UNL     1     110.181 126.695 139.901  0.00  0.00    +0.000 OA
ATOM     38  O   UNL     1     110.684 127.042 141.434  0.00  0.00    +0.000 OA
ATOM     39  O   UNL     1     112.293 127.204 141.757  0.00  0.00    +0.000 OA
ATOM     40  C   UNL     1     110.986 126.776 140.062  0.00  0.00    +0.000 C 
ATOM     41  C   UNL     1     111.539 126.684 139.457  0.00  0.00    +0.000 C 
ATOM     42  C   UNL     1     111.237 126.950 140.829  0.00  0.00    +0.000 C 
ATOM     43  C   UNL     1     112.042 127.031 140.990  0.00  0.00    +0.000 C 
ATOM     44  C   UNL     1     112.596 126.939 140.385  0.00  0.00    +0.000 C 
ATOM     45  C   UNL     1     113.400 127.020 140.547  0.00  0.00    +0.000 C 
ENDBRANCH  35  41
ENDBRANCH  34  35
ENDBRANCH  29  34
ENDBRANCH  24  33
ENDBRANCH   5  24
TORSDOF 7
ENDMDL
MODEL 7
REMARK VINA RESULT:      -9.9      2.007      5.252
REMARK  Name = 44259983
REMARK  7 active torsions:
REMARK  status: ('A' for Active; 'I' for Inactive)
REMARK    1  A    between atoms: O_2  and  C_23
REMARK    2  A    between atoms: O_2  and  C_27
REMARK    3  A    between atoms: O_6  and  C_26
REMARK    4  A    between atoms: O_6  and  C_30
REMARK    5  A    between atoms: O_15  and  C_41
REMARK    6  A    between atoms: C_18  and  C_27
REMARK    7  A    between atoms: C_31  and  C_35
REMARK                            x       y       z     vdW  Elec       q    Type
REMARK                         _______ _______ _______ _____ _____    ______ ____
ROOT
ATOM      1  O   UNL     1     111.991 130.723 136.736  0.00  0.00    +0.000 OA
ATOM      2  O   UNL     1     112.222 131.044 139.179  0.00  0.00    +0.000 OA
ATOM      3  O   UNL     1     110.812 131.316 139.305  0.00  0.00    +0.000 OA
ATOM      4  O   UNL     1     110.498 130.882 135.991  0.00  0.00    +0.000 OA
ATOM      5  C   UNL     1     112.807 130.750 137.908  0.00  0.00    +0.000 A 
ATOM      6  C   UNL     1     112.730 130.643 137.094  0.00  0.00    +0.000 A 
ATOM      7  C   UNL     1     112.145 130.937 138.364  0.00  0.00    +0.000 A 
ATOM      8  C   UNL     1     111.407 131.017 138.005  0.00  0.00    +0.000 A 
ATOM      9  C   UNL     1     111.330 130.910 137.191  0.00  0.00    +0.000 A 
ATOM     10  C   UNL     1     110.725 131.211 138.491  0.00  0.00    +0.000 A 
ATOM     11  C   UNL     1     110.565 130.990 136.806  0.00  0.00    +0.000 A 
ATOM     12  C   UNL     1     109.953 131.296 138.124  0.00  0.00    +0.000 A 
ATOM     13  C   UNL     1     109.873 131.185 137.276  0.00  0.00    +0.000 A 
ENDROOT
BRANCH   6  16
ATOM     14  O   UNL     1     114.244 128.741 135.592  0.00  0.00    +0.000 OA
ATOM     15  O   UNL     1     115.377 129.896 135.270  0.00  0.00    +0.000 OA
ATOM     16  C   UNL     1     113.392 130.457 136.638  0.00  0.00    +0.000 A 
ATOM     17  C   UNL     1     113.487 129.692 136.343  0.00  0.00    +0.000 A 
ATOM     18  C   UNL     1     113.959 131.034 136.477  0.00  0.00    +0.000 A 
ATOM     19  C   UNL     1     114.149 129.505 135.887  0.00  0.00    +0.000 A 
ATOM     20  C   UNL     1     114.620 130.848 136.021  0.00  0.00    +0.000 A 
ATOM     21  C   UNL     1     114.715 130.083 135.726  0.00  0.00    +0.000 A 
ENDBRANCH   6  16
BRANCH  13  22
ATOM     22  O   UNL     1     109.135 131.264 136.915  0.00  0.00    +0.000 OA
ATOM     23  C   UNL     1     108.550 131.725 137.269  0.00  0.00    +0.000 C 
ENDBRANCH  13  22
BRANCH   5  24
ATOM     24  O   UNL     1     113.546 130.670 138.267  0.00  0.00    +0.000 OA
BRANCH  24  33
ATOM     25  O   UNL     1     113.271 129.398 138.854  0.00  0.00    +0.000 OA
ATOM     26  O   UNL     1     113.964 128.505 140.722  0.00  0.00    +0.000 OA
ATOM     27  O   UNL     1     114.724 129.969 140.775  0.00  0.00    +0.000 OA
ATOM     28  O   UNL     1     114.514 131.052 139.547  0.00  0.00    +0.000 OA
ATOM     29  C   UNL     1     113.376 128.856 139.468  0.00  0.00    +0.000 C 
ATOM     30  C   UNL     1     113.860 129.047 140.108  0.00  0.00    +0.000 C 
ATOM     31  C   UNL     1     114.240 129.779 140.134  0.00  0.00    +0.000 C 
ATOM     32  C   UNL     1     114.135 130.321 139.521  0.00  0.00    +0.000 C 
ATOM     33  C   UNL     1     113.650 130.129 138.881  0.00  0.00    +0.000 C 
BRANCH  29  34
ATOM     34  C   UNL     1     112.996 128.124 139.441  0.00  0.00    +0.000 C 
BRANCH  34  35
ATOM     35  O   UNL     1     113.084 127.637 138.781  0.00  0.00    +0.000 OA
BRANCH  35  41
ATOM     36  O   UNL     1     111.871 126.939 139.073  0.00  0.00    +0.000 OA
ATOM     37  O   UNL     1     113.580 126.379 137.835  0.00  0.00    +0.000 OA
ATOM     38  O   UNL     1     112.615 125.053 137.654  0.00  0.00    +0.000 OA
ATOM     39  O   UNL     1     111.155 124.985 138.419  0.00  0.00    +0.000 OA
ATOM     40  C   UNL     1     112.850 126.345 138.218  0.00  0.00    +0.000 C 
ATOM     41  C   UNL     1     112.602 126.974 138.691  0.00  0.00    +0.000 C 
ATOM     42  C   UNL     1     112.367 125.682 138.127  0.00  0.00    +0.000 C 
ATOM     43  C   UNL     1     111.637 125.648 138.510  0.00  0.00    +0.000 C 
ATOM     44  C   UNL     1     111.389 126.277 138.983  0.00  0.00    +0.000 C 
ATOM     45  C   UNL     1     110.660 126.242 139.365  0.00  0.00    +0.000 C 
ENDBRANCH  35  41
ENDBRANCH  34  35
ENDBRANCH  29  34
ENDBRANCH  24  33
ENDBRANCH   5  24
TORSDOF 7
ENDMDL
MODEL 8
REMARK VINA RESULT:      -9.8      1.265      4.244
REMARK  Name = 44259983
REMARK  7 active torsions:
REMARK  status: ('A' for Active; 'I' for Inactive)
REMARK    1  A    between atoms: O_2  and  C_23
REMARK    2  A    between atoms: O_2  and  C_27
REMARK    3  A    between atoms: O_6  and  C_26
REMARK    4  A    between atoms: O_6  and  C_30
REMARK    5  A    between atoms: O_15  and  C_41
REMARK    6  A    between atoms: C_18  and  C_27
REMARK    7  A    between atoms: C_31  and  C_35
REMARK                            x       y       z     vdW  Elec       q    Type
REMARK                         _______ _______ _______ _____ _____    ______ ____
ROOT
ATOM      1  O   UNL     1     111.849 129.331 135.858  0.00  0.00    +0.000 OA
ATOM      2  O   UNL     1     112.550 129.593 138.217  0.00  0.00    +0.000 OA
ATOM      3  O   UNL     1     113.903 129.884 137.812  0.00  0.00    +0.000 OA
ATOM      4  O   UNL     1     112.952 129.528 134.612  0.00  0.00    +0.000 OA
ATOM      5  C   UNL     1     111.532 129.319 137.251  0.00  0.00    +0.000 A 
ATOM      6  C   UNL     1     111.299 129.232 136.465  0.00  0.00    +0.000 A 
ATOM      7  C   UNL     1     112.316 129.506 137.431  0.00  0.00    +0.000 A 
ATOM      8  C   UNL     1     112.866 129.605 136.823  0.00  0.00    +0.000 A 
ATOM      9  C   UNL     1     112.632 129.517 136.037  0.00  0.00    +0.000 A 
ATOM     10  C   UNL     1     113.679 129.799 137.022  0.00  0.00    +0.000 A 
ATOM     11  C   UNL     1     113.196 129.618 135.395  0.00  0.00    +0.000 A 
ATOM     12  C   UNL     1     114.256 129.903 136.395  0.00  0.00    +0.000 A 
ATOM     13  C   UNL     1     114.013 129.812 135.576  0.00  0.00    +0.000 A 
ENDROOT
BRANCH   6  16
ATOM     14  O   UNL     1     109.342 127.339 135.594  0.00  0.00    +0.000 OA
ATOM     15  O   UNL     1     108.165 128.485 135.749  0.00  0.00    +0.000 OA
ATOM     16  C   UNL     1     110.516 129.045 136.286  0.00  0.00    +0.000 A 
ATOM     17  C   UNL     1     110.321 128.286 136.029  0.00  0.00    +0.000 A 
ATOM     18  C   UNL     1     109.927 129.618 136.363  0.00  0.00    +0.000 A 
ATOM     19  C   UNL     1     109.537 128.099 135.850  0.00  0.00    +0.000 A 
ATOM     20  C   UNL     1     109.144 129.432 136.184  0.00  0.00    +0.000 A 
ATOM     21  C   UNL     1     108.949 128.672 135.928  0.00  0.00    +0.000 A 
ENDBRANCH   6  16
BRANCH  13  22
ATOM     22  O   UNL     1     114.560 129.910 134.967  0.00  0.00    +0.000 OA
ATOM     23  C   UNL     1     115.265 130.316 135.107  0.00  0.00    +0.000 C 
ENDBRANCH  13  22
BRANCH   5  24
ATOM     24  O   UNL     1     110.983 129.220 137.859  0.00  0.00    +0.000 OA
BRANCH  24  33
ATOM     25  O   UNL     1     111.480 127.939 138.247  0.00  0.00    +0.000 OA
ATOM     26  O   UNL     1     111.487 126.936 140.186  0.00  0.00    +0.000 OA
ATOM     27  O   UNL     1     110.745 128.358 140.573  0.00  0.00    +0.000 OA
ATOM     28  O   UNL     1     110.493 129.501 139.409  0.00  0.00    +0.000 OA
ATOM     29  C   UNL     1     111.606 127.368 138.829  0.00  0.00    +0.000 C 
ATOM     30  C   UNL     1     111.361 127.507 139.604  0.00  0.00    +0.000 C 
ATOM     31  C   UNL     1     110.990 128.219 139.798  0.00  0.00    +0.000 C 
ATOM     32  C   UNL     1     110.864 128.790 139.216  0.00  0.00    +0.000 C 
ATOM     33  C   UNL     1     111.109 128.649 138.440  0.00  0.00    +0.000 C 
BRANCH  29  34
ATOM     34  C   UNL     1     111.977 126.656 138.635  0.00  0.00    +0.000 C 
BRANCH  34  35
ATOM     35  O   UNL     1     111.683 126.191 138.020  0.00  0.00    +0.000 OA
BRANCH  35  41
ATOM     36  O   UNL     1     112.983 125.677 137.722  0.00  0.00    +0.000 OA
ATOM     37  O   UNL     1     110.997 124.914 137.233  0.00  0.00    +0.000 OA
ATOM     38  O   UNL     1     111.953 123.761 136.541  0.00  0.00    +0.000 OA
ATOM     39  O   UNL     1     113.595 123.885 136.637  0.00  0.00    +0.000 OA
ATOM     40  C   UNL     1     111.818 124.977 137.281  0.00  0.00    +0.000 C 
ATOM     41  C   UNL     1     112.161 125.615 137.675  0.00  0.00    +0.000 C 
ATOM     42  C   UNL     1     112.296 124.399 136.935  0.00  0.00    +0.000 C 
ATOM     43  C   UNL     1     113.117 124.462 136.983  0.00  0.00    +0.000 C 
ATOM     44  C   UNL     1     113.461 125.101 137.377  0.00  0.00    +0.000 C 
ATOM     45  C   UNL     1     114.281 125.163 137.424  0.00  0.00    +0.000 C 
ENDBRANCH  35  41
ENDBRANCH  34  35
ENDBRANCH  29  34
ENDBRANCH  24  33
ENDBRANCH   5  24
TORSDOF 7
ENDMDL
MODEL 9
REMARK VINA RESULT:      -9.8      1.901      4.221
REMARK  Name = 44259983
REMARK  7 active torsions:
REMARK  status: ('A' for Active; 'I' for Inactive)
REMARK    1  A    between atoms: O_2  and  C_23
REMARK    2  A    between atoms: O_2  and  C_27
REMARK    3  A    between atoms: O_6  and  C_26
REMARK    4  A    between atoms: O_6  and  C_30
REMARK    5  A    between atoms: O_15  and  C_41
REMARK    6  A    between atoms: C_18  and  C_27
REMARK    7  A    between atoms: C_31  and  C_35
REMARK                            x       y       z     vdW  Elec       q    Type
REMARK                         _______ _______ _______ _____ _____    ______ ____
ROOT
ATOM      1  O   UNL     1     112.429 130.758 136.682  0.00  0.00    +0.000 OA
ATOM      2  O   UNL     1     111.163 129.279 135.154  0.00  0.00    +0.000 OA
ATOM      3  O   UNL     1     112.388 128.740 134.616  0.00  0.00    +0.000 OA
ATOM      4  O   UNL     1     114.104 130.747 136.689  0.00  0.00    +0.000 OA
ATOM      5  C   UNL     1     111.182 130.277 136.176  0.00  0.00    +0.000 A 
ATOM      6  C   UNL     1     111.603 130.771 136.686  0.00  0.00    +0.000 A 
ATOM      7  C   UNL     1     111.585 129.772 135.663  0.00  0.00    +0.000 A 
ATOM      8  C   UNL     1     112.410 129.760 135.660  0.00  0.00    +0.000 A 
ATOM      9  C   UNL     1     112.832 130.253 136.170  0.00  0.00    +0.000 A 
ATOM     10  C   UNL     1     112.819 129.229 135.122  0.00  0.00    +0.000 A 
ATOM     11  C   UNL     1     113.691 130.250 136.176  0.00  0.00    +0.000 A 
ATOM     12  C   UNL     1     113.677 129.212 135.114  0.00  0.00    +0.000 A 
ATOM     13  C   UNL     1     114.116 129.726 135.644  0.00  0.00    +0.000 A 
ENDROOT
BRANCH   6  16
ATOM     14  O   UNL     1     110.690 131.414 139.317  0.00  0.00    +0.000 OA
ATOM     15  O   UNL     1     109.990 132.791 138.737  0.00  0.00    +0.000 OA
ATOM     16  C   UNL     1     111.201 131.275 137.198  0.00  0.00    +0.000 A 
ATOM     17  C   UNL     1     111.147 131.092 138.001  0.00  0.00    +0.000 A 
ATOM     18  C   UNL     1     110.850 131.964 136.909  0.00  0.00    +0.000 A 
ATOM     19  C   UNL     1     110.744 131.597 138.514  0.00  0.00    +0.000 A 
ATOM     20  C   UNL     1     110.447 132.469 137.421  0.00  0.00    +0.000 A 
ATOM     21  C   UNL     1     110.394 132.285 138.224  0.00  0.00    +0.000 A 
ENDBRANCH   6  16
BRANCH  13  22
ATOM     22  O   UNL     1     114.941 129.716 135.643  0.00  0.00    +0.000 OA
ATOM     23  C   UNL     1     115.352 129.656 134.930  0.00  0.00    +0.000 C 
ENDBRANCH  13  22
BRANCH   5  24
ATOM     24  O   UNL     1     110.357 130.289 136.179  0.00  0.00    +0.000 OA
BRANCH  24  33
ATOM     25  O   UNL     1     110.247 129.006 136.798  0.00  0.00    +0.000 OA
ATOM     26  O   UNL     1     108.667 127.503 136.701  0.00  0.00    +0.000 OA
ATOM     27  O   UNL     1     108.042 128.677 135.725  0.00  0.00    +0.000 OA
ATOM     28  O   UNL     1     108.886 130.070 135.464  0.00  0.00    +0.000 OA
ATOM     29  C   UNL     1     109.825 128.310 136.928  0.00  0.00    +0.000 C 
ATOM     30  C   UNL     1     109.090 128.199 136.571  0.00  0.00    +0.000 C 
ATOM     31  C   UNL     1     108.777 128.787 136.082  0.00  0.00    +0.000 C 
ATOM     32  C   UNL     1     109.199 129.483 135.952  0.00  0.00    +0.000 C 
ATOM     33  C   UNL     1     109.935 129.592 136.310  0.00  0.00    +0.000 C 
BRANCH  29  34
ATOM     34  C   UNL     1     110.138 127.722 137.417  0.00  0.00    +0.000 C 
BRANCH  34  35
ATOM     35  O   UNL     1     110.376 127.908 138.185  0.00  0.00    +0.000 OA
BRANCH  35  41
ATOM     36  O   UNL     1     111.681 127.326 138.171  0.00  0.00    +0.000 OA
ATOM     37  O   UNL     1     110.113 127.283 139.689  0.00  0.00    +0.000 OA
ATOM     38  O   UNL     1     111.286 126.388 140.427  0.00  0.00    +0.000 OA
ATOM     39  O   UNL     1     112.722 126.119 139.661  0.00  0.00    +0.000 OA
ATOM     40  C   UNL     1     110.831 127.148 139.305  0.00  0.00    +0.000 C 
ATOM     41  C   UNL     1     110.962 127.461 138.553  0.00  0.00    +0.000 C 
ATOM     42  C   UNL     1     111.418 126.701 139.675  0.00  0.00    +0.000 C 
ATOM     43  C   UNL     1     112.136 126.566 139.292  0.00  0.00    +0.000 C 
ATOM     44  C   UNL     1     112.267 126.879 138.540  0.00  0.00    +0.000 C 
ATOM     45  C   UNL     1     112.985 126.744 138.157  0.00  0.00    +0.000 C 
ENDBRANCH  35  41
ENDBRANCH  34  35
ENDBRANCH  29  34
ENDBRANCH  24  33
ENDBRANCH   5  24
TORSDOF 7
ENDMDL
MODEL 10
REMARK VINA RESULT:      -9.7      1.731      3.683
REMARK  Name = 44259983
REMARK  7 active torsions:
REMARK  status: ('A' for Active; 'I' for Inactive)
REMARK    1  A    between atoms: O_2  and  C_23
REMARK    2  A    between atoms: O_2  and  C_27
REMARK    3  A    between atoms: O_6  and  C_26
REMARK    4  A    between atoms: O_6  and  C_30
REMARK    5  A    between atoms: O_15  and  C_41
REMARK    6  A    between atoms: C_18  and  C_27
REMARK    7  A    between atoms: C_31  and  C_35
REMARK                            x       y       z     vdW  Elec       q    Type
REMARK                         _______ _______ _______ _____ _____    ______ ____
ROOT
ATOM      1  O   UNL     1     111.418 126.077 139.080  0.00  0.00    +0.000 OA
ATOM      2  O   UNL     1     113.238 127.708 138.688  0.00  0.00    +0.000 OA
ATOM      3  O   UNL     1     113.761 126.907 137.609  0.00  0.00    +0.000 OA
ATOM      4  O   UNL     1     111.292 124.695 138.140  0.00  0.00    +0.000 OA
ATOM      5  C   UNL     1     112.078 127.299 139.417  0.00  0.00    +0.000 A 
ATOM      6  C   UNL     1     111.472 126.755 139.548  0.00  0.00    +0.000 A 
ATOM      7  C   UNL     1     112.631 127.164 138.819  0.00  0.00    +0.000 A 
ATOM      8  C   UNL     1     112.576 126.487 138.352  0.00  0.00    +0.000 A 
ATOM      9  C   UNL     1     111.969 125.943 138.483  0.00  0.00    +0.000 A 
ATOM     10  C   UNL     1     113.158 126.358 137.732  0.00  0.00    +0.000 A 
ATOM     11  C   UNL     1     111.902 125.233 138.002  0.00  0.00    +0.000 A 
ATOM     12  C   UNL     1     113.106 125.654 137.242  0.00  0.00    +0.000 A 
ATOM     13  C   UNL     1     112.474 125.088 137.378  0.00  0.00    +0.000 A 
ENDROOT
BRANCH   6  16
ATOM     14  O   UNL     1     108.847 127.542 140.362  0.00  0.00    +0.000 OA
ATOM     15  O   UNL     1     109.262 127.293 141.940  0.00  0.00    +0.000 OA
ATOM     16  C   UNL     1     110.920 126.889 140.145  0.00  0.00    +0.000 A 
ATOM     17  C   UNL     1     110.160 127.148 139.955  0.00  0.00    +0.000 A 
ATOM     18  C   UNL     1     111.127 126.765 140.935  0.00  0.00    +0.000 A 
ATOM     19  C   UNL     1     109.607 127.283 140.553  0.00  0.00    +0.000 A 
ATOM     20  C   UNL     1     110.575 126.899 141.532  0.00  0.00    +0.000 A 
ATOM     21  C   UNL     1     109.815 127.158 141.341  0.00  0.00    +0.000 A 
ENDBRANCH   6  16
BRANCH  13  22
ATOM     22  O   UNL     1     112.417 124.410 136.912  0.00  0.00    +0.000 OA
ATOM     23  C   UNL     1     113.102 124.040 136.636  0.00  0.00    +0.000 C 
ENDBRANCH  13  22
BRANCH   5  24
ATOM     24  O   UNL     1     112.133 127.976 139.884  0.00  0.00    +0.000 OA
BRANCH  24  33
ATOM     25  O   UNL     1     111.682 128.847 138.846  0.00  0.00    +0.000 OA
ATOM     26  O   UNL     1     112.083 130.961 138.476  0.00  0.00    +0.000 OA
ATOM     27  O   UNL     1     112.962 130.711 139.851  0.00  0.00    +0.000 OA
ATOM     28  O   UNL     1     112.987 129.219 140.554  0.00  0.00    +0.000 OA
ATOM     29  C   UNL     1     111.669 129.593 138.494  0.00  0.00    +0.000 C 
ATOM     30  C   UNL     1     112.096 130.215 138.828  0.00  0.00    +0.000 C 
ATOM     31  C   UNL     1     112.535 130.090 139.516  0.00  0.00    +0.000 C 
ATOM     32  C   UNL     1     112.548 129.344 139.868  0.00  0.00    +0.000 C 
ATOM     33  C   UNL     1     112.121 128.722 139.532  0.00  0.00    +0.000 C 
BRANCH  29  34
ATOM     34  C   UNL     1     111.229 129.718 137.806  0.00  0.00    +0.000 C 
BRANCH  34  35
ATOM     35  O   UNL     1     110.438 129.489 137.775  0.00  0.00    +0.000 OA
BRANCH  35  41
ATOM     36  O   UNL     1     110.463 129.327 136.356  0.00  0.00    +0.000 OA
ATOM     37  O   UNL     1     108.805 129.725 137.719  0.00  0.00    +0.000 OA
ATOM     38  O   UNL     1     108.015 129.681 136.271  0.00  0.00    +0.000 OA
ATOM     39  O   UNL     1     108.856 129.402 134.881  0.00  0.00    +0.000 OA
ATOM     40  C   UNL     1     109.227 129.585 137.024  0.00  0.00    +0.000 C 
ATOM     41  C   UNL     1     110.043 129.467 137.052  0.00  0.00    +0.000 C 
ATOM     42  C   UNL     1     108.831 129.563 136.300  0.00  0.00    +0.000 C 
ATOM     43  C   UNL     1     109.252 129.423 135.604  0.00  0.00    +0.000 C 
ATOM     44  C   UNL     1     110.068 129.306 135.632  0.00  0.00    +0.000 C 
ATOM     45  C   UNL     1     110.489 129.166 134.937  0.00  0.00    +0.000 C 
ENDBRANCH  35  41
ENDBRANCH  34  35
ENDBRANCH  29  34
ENDBRANCH  24  33
ENDBRANCH   5  24
TORSDOF 7
ENDMDL
