MODEL 1
REMARK VINA RESULT:      -8.8      0.000      0.000
REMARK  Name = 44258355
REMARK  9 active torsions:
REMARK  status: ('A' for Active; 'I' for Inactive)
REMARK    1  A    between atoms: O_2  and  C_18
REMARK    2  A    between atoms: O_2  and  C_20
REMARK    3  A    between atoms: O_6  and  C_19
REMARK    4  A    between atoms: O_6  and  C_24
REMARK    5  A    between atoms: O_8  and  C_25
REMARK    6  A    between atoms: C_16  and  C_19
REMARK    7  A    between atoms: C_24  and  C_28
REMARK    8  A    between atoms: C_28  and  C_32
REMARK    9  A    between atoms: C_30  and  C_31
REMARK                            x       y       z     vdW  Elec       q    Type
REMARK                         _______ _______ _______ _____ _____    ______ ____
ROOT
ATOM      1  O   UNL     1     113.515 127.294 136.235  0.00  0.00    +0.000 OA
ATOM      2  O   UNL     1     112.362 128.515 138.052  0.00  0.00    +0.000 OA
ATOM      3  C   UNL     1     112.949 129.374 136.762  0.00  0.00    +0.000 A 
ATOM      4  C   UNL     1     113.045 128.520 136.797  0.00  0.00    +0.000 A 
ATOM      5  C   UNL     1     113.257 129.809 136.089  0.00  0.00    +0.000 A 
ATOM      6  C   UNL     1     113.429 128.114 136.191  0.00  0.00    +0.000 A 
ATOM      7  C   UNL     1     113.658 129.384 135.458  0.00  0.00    +0.000 A 
ATOM      8  C   UNL     1     112.746 128.109 137.446  0.00  0.00    +0.000 A 
ATOM      9  C   UNL     1     113.744 128.531 135.509  0.00  0.00    +0.000 A 
ATOM     10  C   UNL     1     112.833 127.288 137.490  0.00  0.00    +0.000 A 
ATOM     11  C   UNL     1     113.218 126.882 136.884  0.00  0.00    +0.000 A 
ENDROOT
BRANCH  11  13
ATOM     12  O   UNL     1     113.562 123.604 137.058  0.00  0.00    +0.000 OA
ATOM     13  C   UNL     1     113.304 126.063 136.927  0.00  0.00    +0.000 A 
ATOM     14  C   UNL     1     112.707 125.569 136.644  0.00  0.00    +0.000 A 
ATOM     15  C   UNL     1     113.988 125.737 137.255  0.00  0.00    +0.000 A 
ATOM     16  C   UNL     1     112.793 124.750 136.688  0.00  0.00    +0.000 A 
ATOM     17  C   UNL     1     114.074 124.918 137.298  0.00  0.00    +0.000 A 
ATOM     18  C   UNL     1     113.477 124.424 137.015  0.00  0.00    +0.000 A 
ENDBRANCH  11  13
BRANCH   7  19
ATOM     19  O   UNL     1     113.957 129.794 134.807  0.00  0.00    +0.000 OA
ATOM     20  C   UNL     1     114.752 130.015 134.789  0.00  0.00    +0.000 C 
ENDBRANCH   7  19
BRANCH   3  21
ATOM     21  O   UNL     1     112.563 129.773 137.373  0.00  0.00    +0.000 OA
BRANCH  21  30
ATOM     22  O   UNL     1     111.304 130.067 136.764  0.00  0.00    +0.000 OA
ATOM     23  O   UNL     1     110.158 131.923 136.679  0.00  0.00    +0.000 OA
ATOM     24  O   UNL     1     111.473 132.409 137.549  0.00  0.00    +0.000 OA
ATOM     25  O   UNL     1     112.675 131.333 137.896  0.00  0.00    +0.000 OA
ATOM     26  C   UNL     1     110.759 131.386 136.852  0.00  0.00    +0.000 C 
ATOM     27  C   UNL     1     111.416 131.628 137.287  0.00  0.00    +0.000 C 
ATOM     28  C   UNL     1     110.703 130.605 136.591  0.00  0.00    +0.000 C 
ATOM     29  C   UNL     1     112.018 131.091 137.461  0.00  0.00    +0.000 C 
ATOM     30  C   UNL     1     111.962 130.311 137.200  0.00  0.00    +0.000 C 
BRANCH  28  31
ATOM     31  C   UNL     1     110.045 130.362 136.155  0.00  0.00    +0.000 C 
BRANCH  31  32
ATOM     32  O   UNL     1     109.727 129.610 136.275  0.00  0.00    +0.000 OA
BRANCH  32  34
ATOM     33  O   UNL     1     108.521 129.777 135.526  0.00  0.00    +0.000 OA
ATOM     34  C   UNL     1     109.165 129.312 135.749  0.00  0.00    +0.000 C 
BRANCH  34  35
ATOM     35  C   UNL     1     109.249 128.549 135.446  0.00  0.00    +0.000 C 
BRANCH  35  38
ATOM     36  O   UNL     1     108.007 127.907 135.742  0.00  0.00    +0.000 OA
ATOM     37  O   UNL     1     109.237 127.316 136.167  0.00  0.00    +0.000 OA
ATOM     38  C   UNL     1     108.832 127.924 135.785  0.00  0.00    +0.000 C 
ENDBRANCH  35  38
ENDBRANCH  34  35
ENDBRANCH  32  34
ENDBRANCH  31  32
ENDBRANCH  28  31
ENDBRANCH  21  30
ENDBRANCH   3  21
TORSDOF 9
ENDMDL
MODEL 2
REMARK VINA RESULT:      -8.8      7.692      9.683
REMARK  Name = 44258355
REMARK  9 active torsions:
REMARK  status: ('A' for Active; 'I' for Inactive)
REMARK    1  A    between atoms: O_2  and  C_18
REMARK    2  A    between atoms: O_2  and  C_20
REMARK    3  A    between atoms: O_6  and  C_19
REMARK    4  A    between atoms: O_6  and  C_24
REMARK    5  A    between atoms: O_8  and  C_25
REMARK    6  A    between atoms: C_16  and  C_19
REMARK    7  A    between atoms: C_24  and  C_28
REMARK    8  A    between atoms: C_28  and  C_32
REMARK    9  A    between atoms: C_30  and  C_31
REMARK                            x       y       z     vdW  Elec       q    Type
REMARK                         _______ _______ _______ _____ _____    ______ ____
ROOT
ATOM      1  O   UNL     1     105.186 123.923 139.709  0.00  0.00    +0.000 OA
ATOM      2  O   UNL     1     105.042 126.305 140.362  0.00  0.00    +0.000 OA
ATOM      3  C   UNL     1     106.271 125.384 140.980  0.00  0.00    +0.000 A 
ATOM      4  C   UNL     1     105.696 125.038 140.443  0.00  0.00    +0.000 A 
ATOM      5  C   UNL     1     106.904 124.896 141.295  0.00  0.00    +0.000 A 
ATOM      6  C   UNL     1     105.745 124.244 140.226  0.00  0.00    +0.000 A 
ATOM      7  C   UNL     1     106.955 124.068 141.068  0.00  0.00    +0.000 A 
ATOM      8  C   UNL     1     105.091 125.512 140.145  0.00  0.00    +0.000 A 
ATOM      9  C   UNL     1     106.371 123.740 140.530  0.00  0.00    +0.000 A 
ATOM     10  C   UNL     1     104.532 125.190 139.628  0.00  0.00    +0.000 A 
ATOM     11  C   UNL     1     104.581 124.395 139.411  0.00  0.00    +0.000 A 
ENDROOT
BRANCH  11  13
ATOM     12  O   UNL     1     102.350 123.112 137.345  0.00  0.00    +0.000 OA
ATOM     13  C   UNL     1     104.023 124.075 138.895  0.00  0.00    +0.000 A 
ATOM     14  C   UNL     1     104.247 123.852 138.132  0.00  0.00    +0.000 A 
ATOM     15  C   UNL     1     103.242 123.976 139.141  0.00  0.00    +0.000 A 
ATOM     16  C   UNL     1     103.689 123.531 137.616  0.00  0.00    +0.000 A 
ATOM     17  C   UNL     1     102.684 123.655 138.625  0.00  0.00    +0.000 A 
ATOM     18  C   UNL     1     102.907 123.433 137.862  0.00  0.00    +0.000 A 
ENDBRANCH  11  13
BRANCH   7  19
ATOM     19  O   UNL     1     107.560 123.593 141.366  0.00  0.00    +0.000 OA
ATOM     20  C   UNL     1     108.301 123.595 141.003  0.00  0.00    +0.000 C 
ENDBRANCH   7  19
BRANCH   3  21
ATOM     21  O   UNL     1     106.215 126.179 141.192  0.00  0.00    +0.000 OA
BRANCH  21  30
ATOM     22  O   UNL     1     106.089 126.131 142.615  0.00  0.00    +0.000 OA
ATOM     23  O   UNL     1     107.200 127.164 144.184  0.00  0.00    +0.000 OA
ATOM     24  O   UNL     1     107.945 127.753 142.835  0.00  0.00    +0.000 OA
ATOM     25  O   UNL     1     107.453 127.260 141.339  0.00  0.00    +0.000 OA
ATOM     26  C   UNL     1     106.954 126.918 143.436  0.00  0.00    +0.000 C 
ATOM     27  C   UNL     1     107.326 127.212 142.761  0.00  0.00    +0.000 C 
ATOM     28  C   UNL     1     106.335 126.377 143.362  0.00  0.00    +0.000 C 
ATOM     29  C   UNL     1     107.081 126.966 142.013  0.00  0.00    +0.000 C 
ATOM     30  C   UNL     1     106.462 126.426 141.940  0.00  0.00    +0.000 C 
BRANCH  28  31
ATOM     31  C   UNL     1     105.962 126.082 144.037  0.00  0.00    +0.000 C 
BRANCH  31  32
ATOM     32  O   UNL     1     105.555 125.366 144.003  0.00  0.00    +0.000 OA
BRANCH  32  34
ATOM     33  O   UNL     1     104.804 125.515 145.211  0.00  0.00    +0.000 OA
ATOM     34  C   UNL     1     105.235 125.041 144.691  0.00  0.00    +0.000 C 
BRANCH  34  35
ATOM     35  C   UNL     1     105.345 124.241 144.858  0.00  0.00    +0.000 C 
BRANCH  35  38
ATOM     36  O   UNL     1     104.657 123.594 145.930  0.00  0.00    +0.000 OA
ATOM     37  O   UNL     1     104.137 123.522 144.600  0.00  0.00    +0.000 OA
ATOM     38  C   UNL     1     104.713 123.786 145.128  0.00  0.00    +0.000 C 
ENDBRANCH  35  38
ENDBRANCH  34  35
ENDBRANCH  32  34
ENDBRANCH  31  32
ENDBRANCH  28  31
ENDBRANCH  21  30
ENDBRANCH   3  21
TORSDOF 9
ENDMDL
MODEL 3
REMARK VINA RESULT:      -8.7      1.421      3.156
REMARK  Name = 44258355
REMARK  9 active torsions:
REMARK  status: ('A' for Active; 'I' for Inactive)
REMARK    1  A    between atoms: O_2  and  C_18
REMARK    2  A    between atoms: O_2  and  C_20
REMARK    3  A    between atoms: O_6  and  C_19
REMARK    4  A    between atoms: O_6  and  C_24
REMARK    5  A    between atoms: O_8  and  C_25
REMARK    6  A    between atoms: C_16  and  C_19
REMARK    7  A    between atoms: C_24  and  C_28
REMARK    8  A    between atoms: C_28  and  C_32
REMARK    9  A    between atoms: C_30  and  C_31
REMARK                            x       y       z     vdW  Elec       q    Type
REMARK                         _______ _______ _______ _____ _____    ______ ____
ROOT
ATOM      1  O   UNL     1     113.914 127.261 136.239  0.00  0.00    +0.000 OA
ATOM      2  O   UNL     1     111.602 127.934 136.807  0.00  0.00    +0.000 OA
ATOM      3  C   UNL     1     112.583 129.025 136.039  0.00  0.00    +0.000 A 
ATOM      4  C   UNL     1     112.874 128.241 136.236  0.00  0.00    +0.000 A 
ATOM      5  C   UNL     1     113.100 129.583 135.641  0.00  0.00    +0.000 A 
ATOM      6  C   UNL     1     113.645 128.017 136.046  0.00  0.00    +0.000 A 
ATOM      7  C   UNL     1     113.904 129.349 135.444  0.00  0.00    +0.000 A 
ATOM      8  C   UNL     1     112.372 127.710 136.618  0.00  0.00    +0.000 A 
ATOM      9  C   UNL     1     114.178 128.561 135.647  0.00  0.00    +0.000 A 
ATOM     10  C   UNL     1     112.642 126.954 136.811  0.00  0.00    +0.000 A 
ATOM     11  C   UNL     1     113.413 126.730 136.621  0.00  0.00    +0.000 A 
ENDROOT
BRANCH  11  13
ATOM     12  O   UNL     1     114.489 123.707 137.394  0.00  0.00    +0.000 OA
ATOM     13  C   UNL     1     113.682 125.975 136.815  0.00  0.00    +0.000 A 
ATOM     14  C   UNL     1     113.413 125.320 136.391  0.00  0.00    +0.000 A 
ATOM     15  C   UNL     1     114.221 125.873 137.432  0.00  0.00    +0.000 A 
ATOM     16  C   UNL     1     113.682 124.564 136.584  0.00  0.00    +0.000 A 
ATOM     17  C   UNL     1     114.490 125.118 137.625  0.00  0.00    +0.000 A 
ATOM     18  C   UNL     1     114.221 124.463 137.201  0.00  0.00    +0.000 A 
ENDBRANCH  11  13
BRANCH   7  19
ATOM     19  O   UNL     1     114.408 129.879 135.061  0.00  0.00    +0.000 OA
ATOM     20  C   UNL     1     114.966 130.303 135.496  0.00  0.00    +0.000 C 
ENDBRANCH   7  19
BRANCH   3  21
ATOM     21  O   UNL     1     111.810 129.241 136.233  0.00  0.00    +0.000 OA
BRANCH  21  30
ATOM     22  O   UNL     1     112.061 130.057 137.379  0.00  0.00    +0.000 OA
ATOM     23  O   UNL     1     111.248 131.999 137.956  0.00  0.00    +0.000 OA
ATOM     24  O   UNL     1     110.465 131.745 136.525  0.00  0.00    +0.000 OA
ATOM     25  O   UNL     1     110.746 130.367 135.664  0.00  0.00    +0.000 OA
ATOM     26  C   UNL     1     111.388 131.309 137.524  0.00  0.00    +0.000 C 
ATOM     27  C   UNL     1     110.997 131.183 136.810  0.00  0.00    +0.000 C 
ATOM     28  C   UNL     1     111.920 130.746 137.809  0.00  0.00    +0.000 C 
ATOM     29  C   UNL     1     111.137 130.493 136.378  0.00  0.00    +0.000 C 
ATOM     30  C   UNL     1     111.669 129.930 136.663  0.00  0.00    +0.000 C 
BRANCH  28  31
ATOM     31  C   UNL     1     112.311 130.873 138.525  0.00  0.00    +0.000 C 
BRANCH  31  32
ATOM     32  O   UNL     1     112.952 130.397 138.733  0.00  0.00    +0.000 OA
BRANCH  32  34
ATOM     33  O   UNL     1     112.968 130.708 140.128  0.00  0.00    +0.000 OA
ATOM     34  C   UNL     1     113.373 130.553 139.426  0.00  0.00    +0.000 C 
BRANCH  34  35
ATOM     35  C   UNL     1     114.197 130.553 139.416  0.00  0.00    +0.000 C 
BRANCH  35  38
ATOM     36  O   UNL     1     114.881 131.247 140.462  0.00  0.00    +0.000 OA
ATOM     37  O   UNL     1     114.773 129.822 140.501  0.00  0.00    +0.000 OA
ATOM     38  C   UNL     1     114.617 130.540 140.126  0.00  0.00    +0.000 C 
ENDBRANCH  35  38
ENDBRANCH  34  35
ENDBRANCH  32  34
ENDBRANCH  31  32
ENDBRANCH  28  31
ENDBRANCH  21  30
ENDBRANCH   3  21
TORSDOF 9
ENDMDL
MODEL 4
REMARK VINA RESULT:      -8.7      6.835      8.849
REMARK  Name = 44258355
REMARK  9 active torsions:
REMARK  status: ('A' for Active; 'I' for Inactive)
REMARK    1  A    between atoms: O_2  and  C_18
REMARK    2  A    between atoms: O_2  and  C_20
REMARK    3  A    between atoms: O_6  and  C_19
REMARK    4  A    between atoms: O_6  and  C_24
REMARK    5  A    between atoms: O_8  and  C_25
REMARK    6  A    between atoms: C_16  and  C_19
REMARK    7  A    between atoms: C_24  and  C_28
REMARK    8  A    between atoms: C_28  and  C_32
REMARK    9  A    between atoms: C_30  and  C_31
REMARK                            x       y       z     vdW  Elec       q    Type
REMARK                         _______ _______ _______ _____ _____    ______ ____
ROOT
ATOM      1  O   UNL     1     104.807 124.069 140.269  0.00  0.00    +0.000 OA
ATOM      2  O   UNL     1     106.753 125.333 139.411  0.00  0.00    +0.000 OA
ATOM      3  C   UNL     1     106.699 124.952 141.022  0.00  0.00    +0.000 A 
ATOM      4  C   UNL     1     106.062 124.714 140.497  0.00  0.00    +0.000 A 
ATOM      5  C   UNL     1     106.661 124.748 141.855  0.00  0.00    +0.000 A 
ATOM      6  C   UNL     1     105.413 124.292 140.784  0.00  0.00    +0.000 A 
ATOM      7  C   UNL     1     105.984 124.309 142.154  0.00  0.00    +0.000 A 
ATOM      8  C   UNL     1     106.105 124.912 139.698  0.00  0.00    +0.000 A 
ATOM      9  C   UNL     1     105.357 124.079 141.614  0.00  0.00    +0.000 A 
ATOM     10  C   UNL     1     105.498 124.689 139.184  0.00  0.00    +0.000 A 
ATOM     11  C   UNL     1     104.849 124.268 139.471  0.00  0.00    +0.000 A 
ENDROOT
BRANCH  11  13
ATOM     12  O   UNL     1     102.425 123.376 137.417  0.00  0.00    +0.000 OA
ATOM     13  C   UNL     1     104.243 124.045 138.957  0.00  0.00    +0.000 A 
ATOM     14  C   UNL     1     103.480 124.338 139.067  0.00  0.00    +0.000 A 
ATOM     15  C   UNL     1     104.400 123.527 138.333  0.00  0.00    +0.000 A 
ATOM     16  C   UNL     1     102.875 124.116 138.554  0.00  0.00    +0.000 A 
ATOM     17  C   UNL     1     103.795 123.305 137.820  0.00  0.00    +0.000 A 
ATOM     18  C   UNL     1     103.031 123.598 137.930  0.00  0.00    +0.000 A 
ENDBRANCH  11  13
BRANCH   7  19
ATOM     19  O   UNL     1     105.939 124.109 142.953  0.00  0.00    +0.000 OA
ATOM     20  C   UNL     1     105.581 124.626 143.487  0.00  0.00    +0.000 C 
ENDBRANCH   7  19
BRANCH   3  21
ATOM     21  O   UNL     1     107.344 125.373 140.727  0.00  0.00    +0.000 OA
BRANCH  21  30
ATOM     22  O   UNL     1     107.083 126.666 141.277  0.00  0.00    +0.000 OA
ATOM     23  O   UNL     1     108.401 128.082 142.288  0.00  0.00    +0.000 OA
ATOM     24  O   UNL     1     109.452 126.851 141.969  0.00  0.00    +0.000 OA
ATOM     25  O   UNL     1     108.924 125.496 141.188  0.00  0.00    +0.000 OA
ATOM     26  C   UNL     1     108.137 127.404 141.898  0.00  0.00    +0.000 C 
ATOM     27  C   UNL     1     108.662 126.789 141.738  0.00  0.00    +0.000 C 
ATOM     28  C   UNL     1     107.347 127.342 141.667  0.00  0.00    +0.000 C 
ATOM     29  C   UNL     1     108.399 126.111 141.348  0.00  0.00    +0.000 C 
ATOM     30  C   UNL     1     107.609 126.050 141.117  0.00  0.00    +0.000 C 
BRANCH  28  31
ATOM     31  C   UNL     1     106.821 127.958 141.827  0.00  0.00    +0.000 C 
BRANCH  31  32
ATOM     32  O   UNL     1     106.085 127.977 141.456  0.00  0.00    +0.000 OA
BRANCH  32  34
ATOM     33  O   UNL     1     105.753 129.364 141.551  0.00  0.00    +0.000 OA
ATOM     34  C   UNL     1     105.544 128.572 141.644  0.00  0.00    +0.000 C 
BRANCH  34  35
ATOM     35  C   UNL     1     104.794 128.373 141.925  0.00  0.00    +0.000 C 
BRANCH  35  38
ATOM     36  O   UNL     1     103.958 128.255 140.773  0.00  0.00    +0.000 OA
ATOM     37  O   UNL     1     103.617 129.175 141.812  0.00  0.00    +0.000 OA
ATOM     38  C   UNL     1     104.123 128.602 141.504  0.00  0.00    +0.000 C 
ENDBRANCH  35  38
ENDBRANCH  34  35
ENDBRANCH  32  34
ENDBRANCH  31  32
ENDBRANCH  28  31
ENDBRANCH  21  30
ENDBRANCH   3  21
TORSDOF 9
ENDMDL
MODEL 5
REMARK VINA RESULT:      -8.7     10.766     12.282
REMARK  Name = 44258355
REMARK  9 active torsions:
REMARK  status: ('A' for Active; 'I' for Inactive)
REMARK    1  A    between atoms: O_2  and  C_18
REMARK    2  A    between atoms: O_2  and  C_20
REMARK    3  A    between atoms: O_6  and  C_19
REMARK    4  A    between atoms: O_6  and  C_24
REMARK    5  A    between atoms: O_8  and  C_25
REMARK    6  A    between atoms: C_16  and  C_19
REMARK    7  A    between atoms: C_24  and  C_28
REMARK    8  A    between atoms: C_28  and  C_32
REMARK    9  A    between atoms: C_30  and  C_31
REMARK                            x       y       z     vdW  Elec       q    Type
REMARK                         _______ _______ _______ _____ _____    ______ ____
ROOT
ATOM      1  O   UNL     1     105.472 128.104 144.543  0.00  0.00    +0.000 OA
ATOM      2  O   UNL     1     106.840 126.054 144.763  0.00  0.00    +0.000 OA
ATOM      3  C   UNL     1     106.597 126.997 146.103  0.00  0.00    +0.000 A 
ATOM      4  C   UNL     1     106.253 127.218 145.347  0.00  0.00    +0.000 A 
ATOM      5  C   UNL     1     106.465 127.493 146.791  0.00  0.00    +0.000 A 
ATOM      6  C   UNL     1     105.797 127.902 145.275  0.00  0.00    +0.000 A 
ATOM      7  C   UNL     1     105.989 128.205 146.715  0.00  0.00    +0.000 A 
ATOM      8  C   UNL     1     106.384 126.737 144.690  0.00  0.00    +0.000 A 
ATOM      9  C   UNL     1     105.653 128.411 145.952  0.00  0.00    +0.000 A 
ATOM     10  C   UNL     1     106.059 126.941 143.959  0.00  0.00    +0.000 A 
ATOM     11  C   UNL     1     105.603 127.624 143.886  0.00  0.00    +0.000 A 
ENDROOT
BRANCH  11  13
ATOM     12  O   UNL     1     104.302 128.436 140.964  0.00  0.00    +0.000 OA
ATOM     13  C   UNL     1     105.278 127.827 143.156  0.00  0.00    +0.000 A 
ATOM     14  C   UNL     1     104.787 128.487 143.091  0.00  0.00    +0.000 A 
ATOM     15  C   UNL     1     105.443 127.369 142.489  0.00  0.00    +0.000 A 
ATOM     16  C   UNL     1     104.462 128.690 142.361  0.00  0.00    +0.000 A 
ATOM     17  C   UNL     1     105.118 127.572 141.759  0.00  0.00    +0.000 A 
ATOM     18  C   UNL     1     104.628 128.232 141.694  0.00  0.00    +0.000 A 
ENDBRANCH  11  13
BRANCH   7  19
ATOM     19  O   UNL     1     105.857 128.688 147.372  0.00  0.00    +0.000 OA
ATOM     20  C   UNL     1     105.103 128.732 147.705  0.00  0.00    +0.000 C 
ENDBRANCH   7  19
BRANCH   3  21
ATOM     21  O   UNL     1     107.052 126.311 146.167  0.00  0.00    +0.000 OA
BRANCH  21  30
ATOM     22  O   UNL     1     106.158 125.448 146.873  0.00  0.00    +0.000 OA
ATOM     23  O   UNL     1     106.481 124.173 148.615  0.00  0.00    +0.000 OA
ATOM     24  O   UNL     1     107.983 124.831 148.427  0.00  0.00    +0.000 OA
ATOM     25  O   UNL     1     108.268 125.900 147.203  0.00  0.00    +0.000 OA
ATOM     26  C   UNL     1     106.625 124.708 148.003  0.00  0.00    +0.000 C 
ATOM     27  C   UNL     1     107.375 125.036 147.909  0.00  0.00    +0.000 C 
ATOM     28  C   UNL     1     106.016 124.914 147.485  0.00  0.00    +0.000 C 
ATOM     29  C   UNL     1     107.518 125.571 147.297  0.00  0.00    +0.000 C 
ATOM     30  C   UNL     1     106.910 125.777 146.779  0.00  0.00    +0.000 C 
BRANCH  28  31
ATOM     31  C   UNL     1     105.265 124.585 147.579  0.00  0.00    +0.000 C 
BRANCH  31  32
ATOM     32  O   UNL     1     104.780 124.472 146.921  0.00  0.00    +0.000 OA
BRANCH  32  34
ATOM     33  O   UNL     1     103.553 124.463 147.654  0.00  0.00    +0.000 OA
ATOM     34  C   UNL     1     104.008 124.195 147.021  0.00  0.00    +0.000 C 
BRANCH  34  35
ATOM     35  C   UNL     1     103.694 123.651 146.487  0.00  0.00    +0.000 C 
BRANCH  35  38
ATOM     36  O   UNL     1     102.491 122.960 146.830  0.00  0.00    +0.000 OA
ATOM     37  O   UNL     1     102.444 124.083 145.946  0.00  0.00    +0.000 OA
ATOM     38  C   UNL     1     102.876 123.565 146.420  0.00  0.00    +0.000 C 
ENDBRANCH  35  38
ENDBRANCH  34  35
ENDBRANCH  32  34
ENDBRANCH  31  32
ENDBRANCH  28  31
ENDBRANCH  21  30
ENDBRANCH   3  21
TORSDOF 9
ENDMDL
MODEL 6
REMARK VINA RESULT:      -8.6      1.184      2.143
REMARK  Name = 44258355
REMARK  9 active torsions:
REMARK  status: ('A' for Active; 'I' for Inactive)
REMARK    1  A    between atoms: O_2  and  C_18
REMARK    2  A    between atoms: O_2  and  C_20
REMARK    3  A    between atoms: O_6  and  C_19
REMARK    4  A    between atoms: O_6  and  C_24
REMARK    5  A    between atoms: O_8  and  C_25
REMARK    6  A    between atoms: C_16  and  C_19
REMARK    7  A    between atoms: C_24  and  C_28
REMARK    8  A    between atoms: C_28  and  C_32
REMARK    9  A    between atoms: C_30  and  C_31
REMARK                            x       y       z     vdW  Elec       q    Type
REMARK                         _______ _______ _______ _____ _____    ______ ____
ROOT
ATOM      1  O   UNL     1     112.744 126.366 138.114  0.00  0.00    +0.000 OA
ATOM      2  O   UNL     1     113.176 127.876 136.202  0.00  0.00    +0.000 OA
ATOM      3  C   UNL     1     113.187 128.507 137.733  0.00  0.00    +0.000 A 
ATOM      4  C   UNL     1     113.034 127.671 137.608  0.00  0.00    +0.000 A 
ATOM      5  C   UNL     1     113.190 128.824 138.531  0.00  0.00    +0.000 A 
ATOM      6  C   UNL     1     112.890 127.168 138.246  0.00  0.00    +0.000 A 
ATOM      7  C   UNL     1     113.040 128.299 139.196  0.00  0.00    +0.000 A 
ATOM      8  C   UNL     1     113.032 127.373 136.839  0.00  0.00    +0.000 A 
ATOM      9  C   UNL     1     112.889 127.466 139.052  0.00  0.00    +0.000 A 
ATOM     10  C   UNL     1     112.886 126.571 136.708  0.00  0.00    +0.000 A 
ATOM     11  C   UNL     1     112.742 126.068 137.346  0.00  0.00    +0.000 A 
ENDROOT
BRANCH  11  13
ATOM     12  O   UNL     1     112.159 122.863 136.819  0.00  0.00    +0.000 OA
ATOM     13  C   UNL     1     112.597 125.267 137.214  0.00  0.00    +0.000 A 
ATOM     14  C   UNL     1     111.822 124.985 137.204  0.00  0.00    +0.000 A 
ATOM     15  C   UNL     1     113.227 124.748 137.093  0.00  0.00    +0.000 A 
ATOM     16  C   UNL     1     111.676 124.184 137.072  0.00  0.00    +0.000 A 
ATOM     17  C   UNL     1     113.081 123.947 136.962  0.00  0.00    +0.000 A 
ATOM     18  C   UNL     1     112.306 123.664 136.951  0.00  0.00    +0.000 A 
ENDBRANCH  11  13
BRANCH   7  19
ATOM     19  O   UNL     1     113.041 128.595 139.967  0.00  0.00    +0.000 OA
ATOM     20  C   UNL     1     113.725 128.548 140.425  0.00  0.00    +0.000 C 
ENDBRANCH   7  19
BRANCH   3  21
ATOM     21  O   UNL     1     113.330 129.003 137.089  0.00  0.00    +0.000 OA
BRANCH  21  30
ATOM     22  O   UNL     1     112.122 129.765 137.031  0.00  0.00    +0.000 OA
ATOM     23  O   UNL     1     111.798 131.919 136.879  0.00  0.00    +0.000 OA
ATOM     24  O   UNL     1     113.446 131.852 136.889  0.00  0.00    +0.000 OA
ATOM     25  O   UNL     1     114.212 130.394 136.995  0.00  0.00    +0.000 OA
ATOM     26  C   UNL     1     112.181 131.190 136.931  0.00  0.00    +0.000 C 
ATOM     27  C   UNL     1     113.005 131.156 136.937  0.00  0.00    +0.000 C 
ATOM     28  C   UNL     1     111.740 130.494 136.979  0.00  0.00    +0.000 C 
ATOM     29  C   UNL     1     113.389 130.428 136.989  0.00  0.00    +0.000 C 
ATOM     30  C   UNL     1     112.947 129.732 137.037  0.00  0.00    +0.000 C 
BRANCH  28  31
ATOM     31  C   UNL     1     110.915 130.528 136.973  0.00  0.00    +0.000 C 
BRANCH  31  32
ATOM     32  O   UNL     1     110.479 129.882 136.703  0.00  0.00    +0.000 OA
BRANCH  32  34
ATOM     33  O   UNL     1     109.236 130.160 137.353  0.00  0.00    +0.000 OA
ATOM     34  C   UNL     1     109.654 129.921 136.683  0.00  0.00    +0.000 C 
BRANCH  34  35
ATOM     35  C   UNL     1     109.249 129.722 135.993  0.00  0.00    +0.000 C 
BRANCH  35  38
ATOM     36  O   UNL     1     107.821 129.670 136.009  0.00  0.00    +0.000 OA
ATOM     37  O   UNL     1     108.581 128.463 136.109  0.00  0.00    +0.000 OA
ATOM     38  C   UNL     1     108.551 129.285 136.037  0.00  0.00    +0.000 C 
ENDBRANCH  35  38
ENDBRANCH  34  35
ENDBRANCH  32  34
ENDBRANCH  31  32
ENDBRANCH  28  31
ENDBRANCH  21  30
ENDBRANCH   3  21
TORSDOF 9
ENDMDL
MODEL 7
REMARK VINA RESULT:      -8.6      3.086      4.361
REMARK  Name = 44258355
REMARK  9 active torsions:
REMARK  status: ('A' for Active; 'I' for Inactive)
REMARK    1  A    between atoms: O_2  and  C_18
REMARK    2  A    between atoms: O_2  and  C_20
REMARK    3  A    between atoms: O_6  and  C_19
REMARK    4  A    between atoms: O_6  and  C_24
REMARK    5  A    between atoms: O_8  and  C_25
REMARK    6  A    between atoms: C_16  and  C_19
REMARK    7  A    between atoms: C_24  and  C_28
REMARK    8  A    between atoms: C_28  and  C_32
REMARK    9  A    between atoms: C_30  and  C_31
REMARK                            x       y       z     vdW  Elec       q    Type
REMARK                         _______ _______ _______ _____ _____    ______ ____
ROOT
ATOM      1  O   UNL     1     113.627 126.521 138.867  0.00  0.00    +0.000 OA
ATOM      2  O   UNL     1     111.380 125.506 139.076  0.00  0.00    +0.000 OA
ATOM      3  C   UNL     1     111.896 126.550 140.255  0.00  0.00    +0.000 A 
ATOM      4  C   UNL     1     112.401 126.366 139.584  0.00  0.00    +0.000 A 
ATOM      5  C   UNL     1     112.173 127.092 140.860  0.00  0.00    +0.000 A 
ATOM      6  C   UNL     1     113.150 126.705 139.515  0.00  0.00    +0.000 A 
ATOM      7  C   UNL     1     112.954 127.445 140.787  0.00  0.00    +0.000 A 
ATOM      8  C   UNL     1     112.129 125.845 139.007  0.00  0.00    +0.000 A 
ATOM      9  C   UNL     1     113.446 127.250 140.110  0.00  0.00    +0.000 A 
ATOM     10  C   UNL     1     112.606 125.661 138.358  0.00  0.00    +0.000 A 
ATOM     11  C   UNL     1     113.355 126.000 138.289  0.00  0.00    +0.000 A 
ENDROOT
BRANCH  11  13
ATOM     12  O   UNL     1     115.263 125.266 135.698  0.00  0.00    +0.000 OA
ATOM     13  C   UNL     1     113.832 125.817 137.642  0.00  0.00    +0.000 A 
ATOM     14  C   UNL     1     114.331 125.160 137.669  0.00  0.00    +0.000 A 
ATOM     15  C   UNL     1     113.810 126.290 136.966  0.00  0.00    +0.000 A 
ATOM     16  C   UNL     1     114.807 124.976 137.021  0.00  0.00    +0.000 A 
ATOM     17  C   UNL     1     114.287 126.107 136.318  0.00  0.00    +0.000 A 
ATOM     18  C   UNL     1     114.786 125.450 136.345  0.00  0.00    +0.000 A 
ENDBRANCH  11  13
BRANCH   7  19
ATOM     19  O   UNL     1     113.229 127.967 141.365  0.00  0.00    +0.000 OA
ATOM     20  C   UNL     1     113.253 128.777 141.209  0.00  0.00    +0.000 C 
ENDBRANCH   7  19
BRANCH   3  21
ATOM     21  O   UNL     1     111.148 126.207 140.316  0.00  0.00    +0.000 OA
BRANCH  21  30
ATOM     22  O   UNL     1     110.326 127.341 140.034  0.00  0.00    +0.000 OA
ATOM     23  O   UNL     1     108.524 128.081 141.020  0.00  0.00    +0.000 OA
ATOM     24  O   UNL     1     108.857 126.749 141.936  0.00  0.00    +0.000 OA
ATOM     25  O   UNL     1     110.169 125.812 141.584  0.00  0.00    +0.000 OA
ATOM     26  C   UNL     1     109.180 127.612 140.844  0.00  0.00    +0.000 C 
ATOM     27  C   UNL     1     109.346 126.947 141.302  0.00  0.00    +0.000 C 
ATOM     28  C   UNL     1     109.670 127.809 140.210  0.00  0.00    +0.000 C 
ATOM     29  C   UNL     1     110.002 126.478 141.127  0.00  0.00    +0.000 C 
ATOM     30  C   UNL     1     110.492 126.675 140.493  0.00  0.00    +0.000 C 
BRANCH  28  31
ATOM     31  C   UNL     1     109.504 128.475 139.752  0.00  0.00    +0.000 C 
BRANCH  31  32
ATOM     32  O   UNL     1     109.863 128.568 139.015  0.00  0.00    +0.000 OA
BRANCH  32  34
ATOM     33  O   UNL     1     109.061 129.570 138.385  0.00  0.00    +0.000 OA
ATOM     34  C   UNL     1     109.801 129.287 138.614  0.00  0.00    +0.000 C 
BRANCH  34  35
ATOM     35  C   UNL     1     110.480 129.723 138.442  0.00  0.00    +0.000 C 
BRANCH  35  38
ATOM     36  O   UNL     1     111.328 129.207 137.414  0.00  0.00    +0.000 OA
ATOM     37  O   UNL     1     110.485 130.331 137.149  0.00  0.00    +0.000 OA
ATOM     38  C   UNL     1     110.764 129.754 137.669  0.00  0.00    +0.000 C 
ENDBRANCH  35  38
ENDBRANCH  34  35
ENDBRANCH  32  34
ENDBRANCH  31  32
ENDBRANCH  28  31
ENDBRANCH  21  30
ENDBRANCH   3  21
TORSDOF 9
ENDMDL
MODEL 8
REMARK VINA RESULT:      -8.6      1.636      2.680
REMARK  Name = 44258355
REMARK  9 active torsions:
REMARK  status: ('A' for Active; 'I' for Inactive)
REMARK    1  A    between atoms: O_2  and  C_18
REMARK    2  A    between atoms: O_2  and  C_20
REMARK    3  A    between atoms: O_6  and  C_19
REMARK    4  A    between atoms: O_6  and  C_24
REMARK    5  A    between atoms: O_8  and  C_25
REMARK    6  A    between atoms: C_16  and  C_19
REMARK    7  A    between atoms: C_24  and  C_28
REMARK    8  A    between atoms: C_28  and  C_32
REMARK    9  A    between atoms: C_30  and  C_31
REMARK                            x       y       z     vdW  Elec       q    Type
REMARK                         _______ _______ _______ _____ _____    ______ ____
ROOT
ATOM      1  O   UNL     1     113.400 127.726 136.762  0.00  0.00    +0.000 OA
ATOM      2  O   UNL     1     111.149 127.348 135.806  0.00  0.00    +0.000 OA
ATOM      3  C   UNL     1     111.691 128.904 135.977  0.00  0.00    +0.000 A 
ATOM      4  C   UNL     1     112.184 128.242 136.216  0.00  0.00    +0.000 A 
ATOM      5  C   UNL     1     111.982 129.706 136.069  0.00  0.00    +0.000 A 
ATOM      6  C   UNL     1     112.935 128.369 136.535  0.00  0.00    +0.000 A 
ATOM      7  C   UNL     1     112.764 129.837 136.401  0.00  0.00    +0.000 A 
ATOM      8  C   UNL     1     111.899 127.474 136.125  0.00  0.00    +0.000 A 
ATOM      9  C   UNL     1     113.244 129.164 136.636  0.00  0.00    +0.000 A 
ATOM     10  C   UNL     1     112.364 126.831 136.352  0.00  0.00    +0.000 A 
ATOM     11  C   UNL     1     113.115 126.958 136.670  0.00  0.00    +0.000 A 
ENDROOT
BRANCH  11  13
ATOM     12  O   UNL     1     114.975 124.387 137.578  0.00  0.00    +0.000 OA
ATOM     13  C   UNL     1     113.580 126.315 136.897  0.00  0.00    +0.000 A 
ATOM     14  C   UNL     1     113.524 126.015 137.664  0.00  0.00    +0.000 A 
ATOM     15  C   UNL     1     114.101 125.972 136.357  0.00  0.00    +0.000 A 
ATOM     16  C   UNL     1     113.989 125.373 137.891  0.00  0.00    +0.000 A 
ATOM     17  C   UNL     1     114.566 125.330 136.584  0.00  0.00    +0.000 A 
ATOM     18  C   UNL     1     114.510 125.030 137.351  0.00  0.00    +0.000 A 
ENDBRANCH  11  13
BRANCH   7  19
ATOM     19  O   UNL     1     113.052 130.606 136.494  0.00  0.00    +0.000 OA
ATOM     20  C   UNL     1     113.118 130.932 137.249  0.00  0.00    +0.000 C 
ENDBRANCH   7  19
BRANCH   3  21
ATOM     21  O   UNL     1     110.941 128.768 135.659  0.00  0.00    +0.000 OA
BRANCH  21  30
ATOM     22  O   UNL     1     110.144 129.209 136.760  0.00  0.00    +0.000 OA
ATOM     23  O   UNL     1     108.333 130.427 136.815  0.00  0.00    +0.000 OA
ATOM     24  O   UNL     1     108.623 130.373 135.192  0.00  0.00    +0.000 OA
ATOM     25  O   UNL     1     109.927 129.544 134.614  0.00  0.00    +0.000 OA
ATOM     26  C   UNL     1     108.985 130.012 136.526  0.00  0.00    +0.000 C 
ATOM     27  C   UNL     1     109.130 129.985 135.715  0.00  0.00    +0.000 C 
ATOM     28  C   UNL     1     109.492 129.624 137.048  0.00  0.00    +0.000 C 
ATOM     29  C   UNL     1     109.782 129.571 135.425  0.00  0.00    +0.000 C 
ATOM     30  C   UNL     1     110.289 129.183 135.947  0.00  0.00    +0.000 C 
BRANCH  28  31
ATOM     31  C   UNL     1     109.347 129.651 137.861  0.00  0.00    +0.000 C 
BRANCH  31  32
ATOM     32  O   UNL     1     109.810 129.203 138.376  0.00  0.00    +0.000 OA
BRANCH  32  34
ATOM     33  O   UNL     1     109.018 129.200 139.566  0.00  0.00    +0.000 OA
ATOM     34  C   UNL     1     109.744 129.315 139.192  0.00  0.00    +0.000 C 
BRANCH  34  35
ATOM     35  C   UNL     1     110.404 129.541 139.632  0.00  0.00    +0.000 C 
BRANCH  35  38
ATOM     36  O   UNL     1     111.393 128.524 139.801  0.00  0.00    +0.000 OA
ATOM     37  O   UNL     1     110.565 128.907 140.902  0.00  0.00    +0.000 OA
ATOM     38  C   UNL     1     110.787 128.991 140.112  0.00  0.00    +0.000 C 
ENDBRANCH  35  38
ENDBRANCH  34  35
ENDBRANCH  32  34
ENDBRANCH  31  32
ENDBRANCH  28  31
ENDBRANCH  21  30
ENDBRANCH   3  21
TORSDOF 9
ENDMDL
MODEL 9
REMARK VINA RESULT:      -8.5      1.760      3.831
REMARK  Name = 44258355
REMARK  9 active torsions:
REMARK  status: ('A' for Active; 'I' for Inactive)
REMARK    1  A    between atoms: O_2  and  C_18
REMARK    2  A    between atoms: O_2  and  C_20
REMARK    3  A    between atoms: O_6  and  C_19
REMARK    4  A    between atoms: O_6  and  C_24
REMARK    5  A    between atoms: O_8  and  C_25
REMARK    6  A    between atoms: C_16  and  C_19
REMARK    7  A    between atoms: C_24  and  C_28
REMARK    8  A    between atoms: C_28  and  C_32
REMARK    9  A    between atoms: C_30  and  C_31
REMARK                            x       y       z     vdW  Elec       q    Type
REMARK                         _______ _______ _______ _____ _____    ______ ____
ROOT
ATOM      1  O   UNL     1     111.917 126.486 136.240  0.00  0.00    +0.000 OA
ATOM      2  O   UNL     1     114.271 127.245 136.274  0.00  0.00    +0.000 OA
ATOM      3  C   UNL     1     113.102 128.298 135.754  0.00  0.00    +0.000 A 
ATOM      4  C   UNL     1     112.892 127.503 136.007  0.00  0.00    +0.000 A 
ATOM      5  C   UNL     1     112.488 128.835 135.487  0.00  0.00    +0.000 A 
ATOM      6  C   UNL     1     112.107 127.251 135.995  0.00  0.00    +0.000 A 
ATOM      7  C   UNL     1     111.670 128.571 135.475  0.00  0.00    +0.000 A 
ATOM      8  C   UNL     1     113.487 126.993 136.262  0.00  0.00    +0.000 A 
ATOM      9  C   UNL     1     111.478 127.773 135.731  0.00  0.00    +0.000 A 
ATOM     10  C   UNL     1     113.296 126.227 136.507  0.00  0.00    +0.000 A 
ATOM     11  C   UNL     1     112.511 125.975 136.496  0.00  0.00    +0.000 A 
ENDROOT
BRANCH  11  13
ATOM     12  O   UNL     1     111.749 122.916 137.475  0.00  0.00    +0.000 OA
ATOM     13  C   UNL     1     112.321 125.210 136.741  0.00  0.00    +0.000 A 
ATOM     14  C   UNL     1     111.806 125.096 137.375  0.00  0.00    +0.000 A 
ATOM     15  C   UNL     1     112.645 124.559 136.350  0.00  0.00    +0.000 A 
ATOM     16  C   UNL     1     111.616 124.332 137.620  0.00  0.00    +0.000 A 
ATOM     17  C   UNL     1     112.455 123.795 136.595  0.00  0.00    +0.000 A 
ATOM     18  C   UNL     1     111.940 123.681 137.230  0.00  0.00    +0.000 A 
ENDBRANCH  11  13
BRANCH   7  19
ATOM     19  O   UNL     1     111.073 129.081 135.220  0.00  0.00    +0.000 OA
ATOM     20  C   UNL     1     110.548 129.406 135.766  0.00  0.00    +0.000 C 
ENDBRANCH   7  19
BRANCH   3  21
ATOM     21  O   UNL     1     113.890 128.542 135.769  0.00  0.00    +0.000 OA
BRANCH  21  30
ATOM     22  O   UNL     1     113.890 129.598 136.731  0.00  0.00    +0.000 OA
ATOM     23  O   UNL     1     114.640 131.644 136.608  0.00  0.00    +0.000 OA
ATOM     24  O   UNL     1     115.016 131.083 135.103  0.00  0.00    +0.000 OA
ATOM     25  O   UNL     1     114.641 129.532 134.683  0.00  0.00    +0.000 OA
ATOM     26  C   UNL     1     114.453 130.869 136.398  0.00  0.00    +0.000 C 
ATOM     27  C   UNL     1     114.641 130.588 135.646  0.00  0.00    +0.000 C 
ATOM     28  C   UNL     1     114.078 130.374 136.941  0.00  0.00    +0.000 C 
ATOM     29  C   UNL     1     114.453 129.813 135.435  0.00  0.00    +0.000 C 
ATOM     30  C   UNL     1     114.078 129.318 135.978  0.00  0.00    +0.000 C 
BRANCH  28  31
ATOM     31  C   UNL     1     113.890 130.654 137.694  0.00  0.00    +0.000 C 
BRANCH  31  32
ATOM     32  O   UNL     1     114.014 130.176 138.354  0.00  0.00    +0.000 OA
BRANCH  32  34
ATOM     33  O   UNL     1     113.095 130.758 139.283  0.00  0.00    +0.000 OA
ATOM     34  C   UNL     1     113.847 130.465 139.110  0.00  0.00    +0.000 C 
BRANCH  34  35
ATOM     35  C   UNL     1     114.432 130.460 139.691  0.00  0.00    +0.000 C 
BRANCH  35  38
ATOM     36  O   UNL     1     114.137 129.574 140.773  0.00  0.00    +0.000 OA
ATOM     37  O   UNL     1     114.111 130.989 140.979  0.00  0.00    +0.000 OA
ATOM     38  C   UNL     1     114.227 130.342 140.481  0.00  0.00    +0.000 C 
ENDBRANCH  35  38
ENDBRANCH  34  35
ENDBRANCH  32  34
ENDBRANCH  31  32
ENDBRANCH  28  31
ENDBRANCH  21  30
ENDBRANCH   3  21
TORSDOF 9
ENDMDL
MODEL 10
REMARK VINA RESULT:      -8.5      3.250      5.151
REMARK  Name = 44258355
REMARK  9 active torsions:
REMARK  status: ('A' for Active; 'I' for Inactive)
REMARK    1  A    between atoms: O_2  and  C_18
REMARK    2  A    between atoms: O_2  and  C_20
REMARK    3  A    between atoms: O_6  and  C_19
REMARK    4  A    between atoms: O_6  and  C_24
REMARK    5  A    between atoms: O_8  and  C_25
REMARK    6  A    between atoms: C_16  and  C_19
REMARK    7  A    between atoms: C_24  and  C_28
REMARK    8  A    between atoms: C_28  and  C_32
REMARK    9  A    between atoms: C_30  and  C_31
REMARK                            x       y       z     vdW  Elec       q    Type
REMARK                         _______ _______ _______ _____ _____    ______ ____
ROOT
ATOM      1  O   UNL     1     112.483 126.621 137.976  0.00  0.00    +0.000 OA
ATOM      2  O   UNL     1     113.093 126.430 140.366  0.00  0.00    +0.000 OA
ATOM      3  C   UNL     1     111.662 127.161 139.965  0.00  0.00    +0.000 A 
ATOM      4  C   UNL     1     112.180 126.855 139.352  0.00  0.00    +0.000 A 
ATOM      5  C   UNL     1     110.922 127.538 139.746  0.00  0.00    +0.000 A 
ATOM      6  C   UNL     1     111.976 126.919 138.556  0.00  0.00    +0.000 A 
ATOM      7  C   UNL     1     110.710 127.605 138.915  0.00  0.00    +0.000 A 
ATOM      8  C   UNL     1     112.889 126.494 139.570  0.00  0.00    +0.000 A 
ATOM      9  C   UNL     1     111.241 127.293 138.316  0.00  0.00    +0.000 A 
ATOM     10  C   UNL     1     113.395 126.196 138.989  0.00  0.00    +0.000 A 
ATOM     11  C   UNL     1     113.191 126.260 138.192  0.00  0.00    +0.000 A 
ENDROOT
BRANCH  11  13
ATOM     12  O   UNL     1     115.214 125.070 135.872  0.00  0.00    +0.000 OA
ATOM     13  C   UNL     1     113.696 125.962 137.612  0.00  0.00    +0.000 A 
ATOM     14  C   UNL     1     113.940 126.445 136.989  0.00  0.00    +0.000 A 
ATOM     15  C   UNL     1     113.959 125.181 137.655  0.00  0.00    +0.000 A 
ATOM     16  C   UNL     1     114.445 126.148 136.409  0.00  0.00    +0.000 A 
ATOM     17  C   UNL     1     114.465 124.884 137.075  0.00  0.00    +0.000 A 
ATOM     18  C   UNL     1     114.708 125.367 136.452  0.00  0.00    +0.000 A 
ENDBRANCH  11  13
BRANCH   7  19
ATOM     19  O   UNL     1     110.001 127.967 138.696  0.00  0.00    +0.000 OA
ATOM     20  C   UNL     1     110.011 128.713 138.345  0.00  0.00    +0.000 C 
ENDBRANCH   7  19
BRANCH   3  21
ATOM     21  O   UNL     1     111.873 127.093 140.760  0.00  0.00    +0.000 OA
BRANCH  21  30
ATOM     22  O   UNL     1     112.216 128.438 141.097  0.00  0.00    +0.000 OA
ATOM     23  O   UNL     1     111.598 129.694 142.772  0.00  0.00    +0.000 OA
ATOM     24  O   UNL     1     110.774 128.304 143.104  0.00  0.00    +0.000 OA
ATOM     25  O   UNL     1     110.912 127.003 142.098  0.00  0.00    +0.000 OA
ATOM     26  C   UNL     1     111.666 129.043 142.269  0.00  0.00    +0.000 C 
ATOM     27  C   UNL     1     111.255 128.349 142.435  0.00  0.00    +0.000 C 
ATOM     28  C   UNL     1     112.147 129.088 141.600  0.00  0.00    +0.000 C 
ATOM     29  C   UNL     1     111.323 127.698 141.932  0.00  0.00    +0.000 C 
ATOM     30  C   UNL     1     111.804 127.743 141.263  0.00  0.00    +0.000 C 
BRANCH  28  31
ATOM     31  C   UNL     1     112.559 129.784 141.434  0.00  0.00    +0.000 C 
BRANCH  31  32
ATOM     32  O   UNL     1     113.333 129.746 141.151  0.00  0.00    +0.000 OA
BRANCH  32  34
ATOM     33  O   UNL     1     113.388 130.855 140.250  0.00  0.00    +0.000 OA
ATOM     34  C   UNL     1     113.707 130.431 140.881  0.00  0.00    +0.000 C 
BRANCH  34  35
ATOM     35  C   UNL     1     114.401 130.692 141.244  0.00  0.00    +0.000 C 
BRANCH  35  38
ATOM     36  O   UNL     1     115.183 131.747 140.682  0.00  0.00    +0.000 OA
ATOM     37  O   UNL     1     115.529 130.384 140.423  0.00  0.00    +0.000 OA
ATOM     38  C   UNL     1     115.038 130.941 140.783  0.00  0.00    +0.000 C 
ENDBRANCH  35  38
ENDBRANCH  34  35
ENDBRANCH  32  34
ENDBRANCH  31  32
ENDBRANCH  28  31
ENDBRANCH  21  30
ENDBRANCH   3  21
TORSDOF 9
ENDMDL
