MODEL 1
REMARK VINA RESULT:     -11.3      0.000      0.000
REMARK  Name = 131752283
REMARK  14 active torsions:
REMARK  status: ('A' for Active; 'I' for Inactive)
REMARK    1  A    between atoms: O_1  and  C_24
REMARK    2  A    between atoms: O_1  and  C_29
REMARK    3  A    between atoms: O_10  and  C_36
REMARK    4  A    between atoms: O_10  and  C_51
REMARK    5  A    between atoms: O_15  and  C_46
REMARK    6  A    between atoms: O_15  and  C_53
REMARK    7  A    between atoms: O_22  and  C_63
REMARK    8  A    between atoms: C_26  and  C_34
REMARK    9  A    between atoms: C_28  and  C_35
REMARK   10  A    between atoms: C_33  and  C_36
REMARK   11  A    between atoms: C_45  and  C_48
REMARK   12  A    between atoms: C_49  and  C_52
REMARK   13  A    between atoms: C_51  and  C_58
REMARK   14  A    between atoms: C_59  and  C_60
REMARK                            x       y       z     vdW  Elec       q    Type
REMARK                         _______ _______ _______ _____ _____    ______ ____
ROOT
ATOM      1  O   UNL     1     112.860 129.351 136.758  0.00  0.00    +0.000 OA
ATOM      2  O   UNL     1     110.984 129.809 135.211  0.00  0.00    +0.000 OA
ATOM      3  O   UNL     1     112.487 129.482 134.612  0.00  0.00    +0.000 OA
ATOM      4  C   UNL     1     111.484 129.667 136.542  0.00  0.00    +0.000 C 
ATOM      5  C   UNL     1     111.609 129.657 135.726  0.00  0.00    +0.000 C 
ATOM      6  C   UNL     1     112.108 129.515 137.058  0.00  0.00    +0.000 C 
ATOM      7  C   UNL     1     112.360 129.493 135.427  0.00  0.00    +0.000 C 
ATOM      8  C   UNL     1     112.986 129.340 135.943  0.00  0.00    +0.000 C 
ENDROOT
BRANCH   6  13
ATOM      9  O   UNL     1     111.950 128.097 137.888  0.00  0.00    +0.000 OA
ATOM     10  O   UNL     1     112.016 130.954 137.858  0.00  0.00    +0.000 OA
ATOM     11  O   UNL     1     111.603 129.573 140.353  0.00  0.00    +0.000 OA
ATOM     12  O   UNL     1     111.746 127.368 139.116  0.00  0.00    +0.000 OA
ATOM     13  C   UNL     1     111.983 129.525 137.873  0.00  0.00    +0.000 A 
ATOM     14  C   UNL     1     111.904 128.817 138.288  0.00  0.00    +0.000 A 
ATOM     15  C   UNL     1     111.937 130.245 138.274  0.00  0.00    +0.000 A 
ATOM     16  C   UNL     1     111.779 128.828 139.104  0.00  0.00    +0.000 A 
ATOM     17  C   UNL     1     111.812 130.257 139.089  0.00  0.00    +0.000 A 
ATOM     18  C   UNL     1     111.733 129.547 139.504  0.00  0.00    +0.000 A 
ATOM     19  C   UNL     1     111.698 128.083 139.524  0.00  0.00    +0.000 A 
ATOM     20  C   UNL     1     111.520 128.838 140.791  0.00  0.00    +0.000 A 
ATOM     21  C   UNL     1     111.568 128.088 140.374  0.00  0.00    +0.000 A 
BRANCH  20  22
ATOM     22  C   UNL     1     111.394 128.852 141.607  0.00  0.00    +0.000 A 
ATOM     23  C   UNL     1     111.143 128.883 143.236  0.00  0.00    +0.000 A 
ATOM     24  C   UNL     1     112.034 128.786 142.123  0.00  0.00    +0.000 A 
ATOM     25  C   UNL     1     110.629 128.934 141.904  0.00  0.00    +0.000 A 
ATOM     26  C   UNL     1     111.908 128.801 142.938  0.00  0.00    +0.000 A 
ATOM     27  C   UNL     1     110.504 128.949 142.719  0.00  0.00    +0.000 A 
BRANCH  23  28
ATOM     28  O   UNL     1     111.017 128.898 144.051  0.00  0.00    +0.000 OA
BRANCH  28  37
ATOM     29  O   UNL     1     111.014 130.310 144.264  0.00  0.00    +0.000 OA
ATOM     30  O   UNL     1     112.423 130.011 146.277  0.00  0.00    +0.000 OA
ATOM     31  O   UNL     1     111.950 131.524 145.818  0.00  0.00    +0.000 OA
ATOM     32  O   UNL     1     111.957 128.697 145.393  0.00  0.00    +0.000 OA
ATOM     33  C   UNL     1     111.953 130.110 145.606  0.00  0.00    +0.000 C 
ATOM     34  C   UNL     1     111.717 130.867 145.377  0.00  0.00    +0.000 C 
ATOM     35  C   UNL     1     111.720 129.454 145.164  0.00  0.00    +0.000 C 
ATOM     36  C   UNL     1     111.247 130.967 144.707  0.00  0.00    +0.000 C 
ATOM     37  C   UNL     1     111.250 129.553 144.493  0.00  0.00    +0.000 C 
BRANCH  36  39
ATOM     38  O   UNL     1     110.241 131.851 144.209  0.00  0.00    +0.000 OA
ATOM     39  C   UNL     1     111.011 131.723 144.478  0.00  0.00    +0.000 C 
ENDBRANCH  36  39
ENDBRANCH  28  37
ENDBRANCH  23  28
ENDBRANCH  20  22
ENDBRANCH   6  13
BRANCH   8  41
ATOM     40  O   UNL     1     114.406 129.478 136.022  0.00  0.00    +0.000 OA
ATOM     41  C   UNL     1     113.737 129.177 135.644  0.00  0.00    +0.000 C 
ENDBRANCH   8  41
BRANCH   4  42
ATOM     42  O   UNL     1     110.733 129.831 136.841  0.00  0.00    +0.000 OA
BRANCH  42  47
ATOM     43  O   UNL     1     110.136 128.688 136.225  0.00  0.00    +0.000 OA
ATOM     44  O   UNL     1     109.279 130.611 136.801  0.00  0.00    +0.000 OA
ATOM     45  O   UNL     1     107.956 129.858 136.165  0.00  0.00    +0.000 OA
ATOM     46  O   UNL     1     108.086 128.326 135.568  0.00  0.00    +0.000 OA
ATOM     47  C   UNL     1     110.070 129.454 136.523  0.00  0.00    +0.000 C 
ATOM     48  C   UNL     1     109.344 129.844 136.503  0.00  0.00    +0.000 C 
ATOM     49  C   UNL     1     108.683 129.468 136.185  0.00  0.00    +0.000 C 
ATOM     50  C   UNL     1     108.747 128.702 135.886  0.00  0.00    +0.000 C 
ATOM     51  C   UNL     1     109.473 128.312 135.906  0.00  0.00    +0.000 C 
BRANCH  51  52
ATOM     52  C   UNL     1     109.539 127.545 135.608  0.00  0.00    +0.000 C 
BRANCH  52  53
ATOM     53  O   UNL     1     109.823 126.938 136.091  0.00  0.00    +0.000 OA
BRANCH  53  55
ATOM     54  O   UNL     1     109.743 125.863 135.152  0.00  0.00    +0.000 OA
ATOM     55  C   UNL     1     110.148 126.260 135.751  0.00  0.00    +0.000 C 
BRANCH  55  56
ATOM     56  C   UNL     1     110.879 125.979 136.012  0.00  0.00    +0.000 C 
ATOM     57  C   UNL     1     111.037 125.170 136.000  0.00  0.00    +0.000 C 
BRANCH  57  59
ATOM     58  O   UNL     1     113.960 124.046 137.041  0.00  0.00    +0.000 OA
ATOM     59  C   UNL     1     111.768 124.888 136.261  0.00  0.00    +0.000 A 
ATOM     60  C   UNL     1     111.825 124.139 136.601  0.00  0.00    +0.000 A 
ATOM     61  C   UNL     1     112.442 125.357 136.180  0.00  0.00    +0.000 A 
ATOM     62  C   UNL     1     112.555 123.858 136.861  0.00  0.00    +0.000 A 
ATOM     63  C   UNL     1     113.172 125.076 136.441  0.00  0.00    +0.000 A 
ATOM     64  C   UNL     1     113.229 124.326 136.781  0.00  0.00    +0.000 A 
BRANCH  62  65
ATOM     65  O   UNL     1     112.611 123.109 137.201  0.00  0.00    +0.000 OA
ATOM     66  C   UNL     1     111.937 122.739 137.500  0.00  0.00    +0.000 C 
ENDBRANCH  62  65
ENDBRANCH  57  59
ENDBRANCH  55  56
ENDBRANCH  53  55
ENDBRANCH  52  53
ENDBRANCH  51  52
ENDBRANCH  42  47
ENDBRANCH   4  42
TORSDOF 14
ENDMDL
MODEL 2
REMARK VINA RESULT:     -10.8      1.386      2.122
REMARK  Name = 131752283
REMARK  14 active torsions:
REMARK  status: ('A' for Active; 'I' for Inactive)
REMARK    1  A    between atoms: O_1  and  C_24
REMARK    2  A    between atoms: O_1  and  C_29
REMARK    3  A    between atoms: O_10  and  C_36
REMARK    4  A    between atoms: O_10  and  C_51
REMARK    5  A    between atoms: O_15  and  C_46
REMARK    6  A    between atoms: O_15  and  C_53
REMARK    7  A    between atoms: O_22  and  C_63
REMARK    8  A    between atoms: C_26  and  C_34
REMARK    9  A    between atoms: C_28  and  C_35
REMARK   10  A    between atoms: C_33  and  C_36
REMARK   11  A    between atoms: C_45  and  C_48
REMARK   12  A    between atoms: C_49  and  C_52
REMARK   13  A    between atoms: C_51  and  C_58
REMARK   14  A    between atoms: C_59  and  C_60
REMARK                            x       y       z     vdW  Elec       q    Type
REMARK                         _______ _______ _______ _____ _____    ______ ____
ROOT
ATOM      1  O   UNL     1     112.956 128.814 137.284  0.00  0.00    +0.000 OA
ATOM      2  O   UNL     1     112.044 130.274 135.507  0.00  0.00    +0.000 OA
ATOM      3  O   UNL     1     112.860 128.897 135.106  0.00  0.00    +0.000 OA
ATOM      4  C   UNL     1     112.245 129.989 136.893  0.00  0.00    +0.000 C 
ATOM      5  C   UNL     1     112.348 129.788 136.099  0.00  0.00    +0.000 C 
ATOM      6  C   UNL     1     112.548 129.502 137.485  0.00  0.00    +0.000 C 
ATOM      7  C   UNL     1     112.756 129.099 135.899  0.00  0.00    +0.000 C 
ATOM      8  C   UNL     1     113.060 128.612 136.491  0.00  0.00    +0.000 C 
ENDROOT
BRANCH   6  13
ATOM      9  O   UNL     1     111.376 128.761 138.379  0.00  0.00    +0.000 OA
ATOM     10  O   UNL     1     113.515 130.646 138.178  0.00  0.00    +0.000 OA
ATOM     11  O   UNL     1     112.142 130.324 140.691  0.00  0.00    +0.000 OA
ATOM     12  O   UNL     1     110.663 128.570 139.619  0.00  0.00    +0.000 OA
ATOM     13  C   UNL     1     112.445 129.703 138.279  0.00  0.00    +0.000 A 
ATOM     14  C   UNL     1     111.859 129.333 138.725  0.00  0.00    +0.000 A 
ATOM     15  C   UNL     1     112.928 130.275 138.625  0.00  0.00    +0.000 A 
ATOM     16  C   UNL     1     111.756 129.534 139.519  0.00  0.00    +0.000 A 
ATOM     17  C   UNL     1     112.826 130.477 139.419  0.00  0.00    +0.000 A 
ATOM     18  C   UNL     1     112.239 130.106 139.866  0.00  0.00    +0.000 A 
ATOM     19  C   UNL     1     111.142 129.141 139.974  0.00  0.00    +0.000 A 
ATOM     20  C   UNL     1     111.533 129.942 141.162  0.00  0.00    +0.000 A 
ATOM     21  C   UNL     1     111.030 129.346 140.801  0.00  0.00    +0.000 A 
BRANCH  20  22
ATOM     22  C   UNL     1     111.432 130.146 141.955  0.00  0.00    +0.000 A 
ATOM     23  C   UNL     1     111.233 130.552 143.541  0.00  0.00    +0.000 A 
ATOM     24  C   UNL     1     110.784 130.601 142.185  0.00  0.00    +0.000 A 
ATOM     25  C   UNL     1     111.981 129.894 142.518  0.00  0.00    +0.000 A 
ATOM     26  C   UNL     1     110.685 130.804 142.979  0.00  0.00    +0.000 A 
ATOM     27  C   UNL     1     111.881 130.097 143.310  0.00  0.00    +0.000 A 
BRANCH  23  28
ATOM     28  O   UNL     1     111.134 130.756 144.334  0.00  0.00    +0.000 OA
BRANCH  28  37
ATOM     29  O   UNL     1     111.923 131.946 144.346  0.00  0.00    +0.000 OA
ATOM     30  O   UNL     1     110.233 133.055 145.773  0.00  0.00    +0.000 OA
ATOM     31  O   UNL     1     111.587 133.876 145.309  0.00  0.00    +0.000 OA
ATOM     32  O   UNL     1     110.006 131.495 145.286  0.00  0.00    +0.000 OA
ATOM     33  C   UNL     1     110.796 132.685 145.297  0.00  0.00    +0.000 C 
ATOM     34  C   UNL     1     111.473 133.096 145.065  0.00  0.00    +0.000 C 
ATOM     35  C   UNL     1     110.683 131.905 145.054  0.00  0.00    +0.000 C 
ATOM     36  C   UNL     1     112.037 132.727 144.590  0.00  0.00    +0.000 C 
ATOM     37  C   UNL     1     111.246 131.535 144.578  0.00  0.00    +0.000 C 
BRANCH  36  39
ATOM     38  O   UNL     1     113.459 132.863 144.581  0.00  0.00    +0.000 OA
ATOM     39  C   UNL     1     112.713 133.137 144.358  0.00  0.00    +0.000 C 
ENDBRANCH  36  39
ENDBRANCH  28  37
ENDBRANCH  23  28
ENDBRANCH  20  22
ENDBRANCH   6  13
BRANCH   8  41
ATOM     40  O   UNL     1     113.729 127.412 136.883  0.00  0.00    +0.000 OA
ATOM     41  C   UNL     1     113.468 127.923 136.291  0.00  0.00    +0.000 C 
ENDBRANCH   8  41
BRANCH   4  42
ATOM     42  O   UNL     1     111.837 130.677 137.094  0.00  0.00    +0.000 OA
BRANCH  42  47
ATOM     43  O   UNL     1     110.624 130.227 136.487  0.00  0.00    +0.000 OA
ATOM     44  O   UNL     1     111.355 132.243 136.896  0.00  0.00    +0.000 OA
ATOM     45  O   UNL     1     109.901 132.575 136.191  0.00  0.00    +0.000 OA
ATOM     46  O   UNL     1     108.929 131.343 135.683  0.00  0.00    +0.000 OA
ATOM     47  C   UNL     1     111.109 130.844 136.741  0.00  0.00    +0.000 C 
ATOM     48  C   UNL     1     110.868 131.627 136.642  0.00  0.00    +0.000 C 
ATOM     49  C   UNL     1     110.142 131.793 136.290  0.00  0.00    +0.000 C 
ATOM     50  C   UNL     1     109.655 131.177 136.035  0.00  0.00    +0.000 C 
ATOM     51  C   UNL     1     109.896 130.394 136.134  0.00  0.00    +0.000 C 
BRANCH  51  52
ATOM     52  C   UNL     1     109.411 129.777 135.881  0.00  0.00    +0.000 C 
BRANCH  52  53
ATOM     53  O   UNL     1     109.266 129.135 136.379  0.00  0.00    +0.000 OA
BRANCH  53  55
ATOM     54  O   UNL     1     108.175 128.352 135.890  0.00  0.00    +0.000 OA
ATOM     55  C   UNL     1     108.977 128.428 136.067  0.00  0.00    +0.000 C 
BRANCH  55  56
ATOM     56  C   UNL     1     109.492 127.797 135.931  0.00  0.00    +0.000 C 
ATOM     57  C   UNL     1     109.346 127.064 136.281  0.00  0.00    +0.000 C 
BRANCH  57  59
ATOM     58  O   UNL     1     111.404 124.542 135.737  0.00  0.00    +0.000 OA
ATOM     59  C   UNL     1     109.861 126.433 136.145  0.00  0.00    +0.000 A 
ATOM     60  C   UNL     1     110.290 126.109 136.770  0.00  0.00    +0.000 A 
ATOM     61  C   UNL     1     109.946 126.128 135.383  0.00  0.00    +0.000 A 
ATOM     62  C   UNL     1     110.804 125.479 136.635  0.00  0.00    +0.000 A 
ATOM     63  C   UNL     1     110.461 125.497 135.248  0.00  0.00    +0.000 A 
ATOM     64  C   UNL     1     110.890 125.173 135.874  0.00  0.00    +0.000 A 
BRANCH  62  65
ATOM     65  O   UNL     1     111.233 125.154 137.260  0.00  0.00    +0.000 OA
ATOM     66  C   UNL     1     111.049 125.360 138.037  0.00  0.00    +0.000 C 
ENDBRANCH  62  65
ENDBRANCH  57  59
ENDBRANCH  55  56
ENDBRANCH  53  55
ENDBRANCH  52  53
ENDBRANCH  51  52
ENDBRANCH  42  47
ENDBRANCH   4  42
TORSDOF 14
ENDMDL
MODEL 3
REMARK VINA RESULT:     -10.7      8.106     12.178
REMARK  Name = 131752283
REMARK  14 active torsions:
REMARK  status: ('A' for Active; 'I' for Inactive)
REMARK    1  A    between atoms: O_1  and  C_24
REMARK    2  A    between atoms: O_1  and  C_29
REMARK    3  A    between atoms: O_10  and  C_36
REMARK    4  A    between atoms: O_10  and  C_51
REMARK    5  A    between atoms: O_15  and  C_46
REMARK    6  A    between atoms: O_15  and  C_53
REMARK    7  A    between atoms: O_22  and  C_63
REMARK    8  A    between atoms: C_26  and  C_34
REMARK    9  A    between atoms: C_28  and  C_35
REMARK   10  A    between atoms: C_33  and  C_36
REMARK   11  A    between atoms: C_45  and  C_48
REMARK   12  A    between atoms: C_49  and  C_52
REMARK   13  A    between atoms: C_51  and  C_58
REMARK   14  A    between atoms: C_59  and  C_60
REMARK                            x       y       z     vdW  Elec       q    Type
REMARK                         _______ _______ _______ _____ _____    ______ ____
ROOT
ATOM      1  O   UNL     1     106.837 125.875 146.656  0.00  0.00    +0.000 OA
ATOM      2  O   UNL     1     105.331 124.012 147.277  0.00  0.00    +0.000 OA
ATOM      3  O   UNL     1     106.709 124.282 148.143  0.00  0.00    +0.000 OA
ATOM      4  C   UNL     1     105.646 125.119 146.430  0.00  0.00    +0.000 C 
ATOM      5  C   UNL     1     105.832 124.633 147.070  0.00  0.00    +0.000 C 
ATOM      6  C   UNL     1     106.148 125.740 146.224  0.00  0.00    +0.000 C 
ATOM      7  C   UNL     1     106.522 124.767 147.503  0.00  0.00    +0.000 C 
ATOM      8  C   UNL     1     107.024 125.389 147.296  0.00  0.00    +0.000 C 
ENDROOT
BRANCH   6  13
ATOM      9  O   UNL     1     105.521 127.244 146.484  0.00  0.00    +0.000 OA
ATOM     10  O   UNL     1     106.402 125.208 144.682  0.00  0.00    +0.000 OA
ATOM     11  O   UNL     1     105.399 127.695 143.629  0.00  0.00    +0.000 OA
ATOM     12  O   UNL     1     105.012 128.503 145.997  0.00  0.00    +0.000 OA
ATOM     13  C   UNL     1     105.961 126.226 145.584  0.00  0.00    +0.000 A 
ATOM     14  C   UNL     1     105.648 126.978 145.714  0.00  0.00    +0.000 A 
ATOM     15  C   UNL     1     106.088 125.960 144.813  0.00  0.00    +0.000 A 
ATOM     16  C   UNL     1     105.461 127.464 145.074  0.00  0.00    +0.000 A 
ATOM     17  C   UNL     1     105.902 126.446 144.173  0.00  0.00    +0.000 A 
ATOM     18  C   UNL     1     105.588 127.198 144.303  0.00  0.00    +0.000 A 
ATOM     19  C   UNL     1     105.136 128.245 145.223  0.00  0.00    +0.000 A 
ATOM     20  C   UNL     1     105.072 128.479 143.758  0.00  0.00    +0.000 A 
ATOM     21  C   UNL     1     104.940 128.756 144.560  0.00  0.00    +0.000 A 
BRANCH  20  22
ATOM     22  C   UNL     1     104.887 128.963 143.115  0.00  0.00    +0.000 A 
ATOM     23  C   UNL     1     104.518 129.930 141.831  0.00  0.00    +0.000 A 
ATOM     24  C   UNL     1     104.303 128.732 142.580  0.00  0.00    +0.000 A 
ATOM     25  C   UNL     1     105.286 129.677 143.008  0.00  0.00    +0.000 A 
ATOM     26  C   UNL     1     104.118 129.216 141.938  0.00  0.00    +0.000 A 
ATOM     27  C   UNL     1     105.102 130.160 142.367  0.00  0.00    +0.000 A 
BRANCH  23  28
ATOM     28  O   UNL     1     104.333 130.414 141.189  0.00  0.00    +0.000 OA
BRANCH  28  37
ATOM     29  O   UNL     1     103.114 130.996 141.652  0.00  0.00    +0.000 OA
ATOM     30  O   UNL     1     103.891 133.223 140.902  0.00  0.00    +0.000 OA
ATOM     31  O   UNL     1     102.411 133.062 141.615  0.00  0.00    +0.000 OA
ATOM     32  O   UNL     1     104.852 131.899 140.689  0.00  0.00    +0.000 OA
ATOM     33  C   UNL     1     103.632 132.481 141.152  0.00  0.00    +0.000 C 
ATOM     34  C   UNL     1     102.892 132.400 141.508  0.00  0.00    +0.000 C 
ATOM     35  C   UNL     1     104.112 131.818 141.045  0.00  0.00    +0.000 C 
ATOM     36  C   UNL     1     102.633 131.659 141.758  0.00  0.00    +0.000 C 
ATOM     37  C   UNL     1     103.853 131.076 141.295  0.00  0.00    +0.000 C 
BRANCH  36  39
ATOM     38  O   UNL     1     101.318 131.100 141.767  0.00  0.00    +0.000 OA
ATOM     39  C   UNL     1     101.893 131.579 142.114  0.00  0.00    +0.000 C 
ENDBRANCH  36  39
ENDBRANCH  28  37
ENDBRANCH  23  28
ENDBRANCH  20  22
ENDBRANCH   6  13
BRANCH   8  41
ATOM     40  O   UNL     1     108.440 125.577 147.341  0.00  0.00    +0.000 OA
ATOM     41  C   UNL     1     107.714 125.524 147.729  0.00  0.00    +0.000 C 
ENDBRANCH   8  41
BRANCH   4  42
ATOM     42  O   UNL     1     104.957 124.984 145.997  0.00  0.00    +0.000 OA
BRANCH  42  47
ATOM     43  O   UNL     1     104.029 125.322 147.030  0.00  0.00    +0.000 OA
ATOM     44  O   UNL     1     103.959 123.769 145.499  0.00  0.00    +0.000 OA
ATOM     45  O   UNL     1     102.532 123.499 146.282  0.00  0.00    +0.000 OA
ATOM     46  O   UNL     1     102.103 124.444 147.564  0.00  0.00    +0.000 OA
ATOM     47  C   UNL     1     104.243 124.849 146.389  0.00  0.00    +0.000 C 
ATOM     48  C   UNL     1     103.744 124.241 146.140  0.00  0.00    +0.000 C 
ATOM     49  C   UNL     1     103.031 124.107 146.531  0.00  0.00    +0.000 C 
ATOM     50  C   UNL     1     102.816 124.579 147.173  0.00  0.00    +0.000 C 
ATOM     51  C   UNL     1     103.315 125.187 147.422  0.00  0.00    +0.000 C 
BRANCH  51  52
ATOM     52  C   UNL     1     103.101 125.660 148.063  0.00  0.00    +0.000 C 
BRANCH  52  53
ATOM     53  O   UNL     1     103.126 126.482 147.995  0.00  0.00    +0.000 OA
BRANCH  53  55
ATOM     54  O   UNL     1     103.255 126.760 149.391  0.00  0.00    +0.000 OA
ATOM     55  C   UNL     1     102.953 126.955 148.648  0.00  0.00    +0.000 C 
BRANCH  55  56
ATOM     56  C   UNL     1     102.477 127.624 148.559  0.00  0.00    +0.000 C 
ATOM     57  C   UNL     1     102.789 128.374 148.707  0.00  0.00    +0.000 C 
BRANCH  57  59
ATOM     58  O   UNL     1     100.888 131.047 148.350  0.00  0.00    +0.000 OA
ATOM     59  C   UNL     1     102.313 129.043 148.618  0.00  0.00    +0.000 A 
ATOM     60  C   UNL     1     102.603 129.704 148.219  0.00  0.00    +0.000 A 
ATOM     61  C   UNL     1     101.549 129.049 148.927  0.00  0.00    +0.000 A 
ATOM     62  C   UNL     1     102.128 130.372 148.130  0.00  0.00    +0.000 A 
ATOM     63  C   UNL     1     101.074 129.718 148.838  0.00  0.00    +0.000 A 
ATOM     64  C   UNL     1     101.364 130.379 148.439  0.00  0.00    +0.000 A 
BRANCH  62  65
ATOM     65  O   UNL     1     102.417 131.034 147.731  0.00  0.00    +0.000 OA
ATOM     66  C   UNL     1     103.231 131.148 147.657  0.00  0.00    +0.000 C 
ENDBRANCH  62  65
ENDBRANCH  57  59
ENDBRANCH  55  56
ENDBRANCH  53  55
ENDBRANCH  52  53
ENDBRANCH  51  52
ENDBRANCH  42  47
ENDBRANCH   4  42
TORSDOF 14
ENDMDL
MODEL 4
REMARK VINA RESULT:     -10.5      2.769      3.804
REMARK  Name = 131752283
REMARK  14 active torsions:
REMARK  status: ('A' for Active; 'I' for Inactive)
REMARK    1  A    between atoms: O_1  and  C_24
REMARK    2  A    between atoms: O_1  and  C_29
REMARK    3  A    between atoms: O_10  and  C_36
REMARK    4  A    between atoms: O_10  and  C_51
REMARK    5  A    between atoms: O_15  and  C_46
REMARK    6  A    between atoms: O_15  and  C_53
REMARK    7  A    between atoms: O_22  and  C_63
REMARK    8  A    between atoms: C_26  and  C_34
REMARK    9  A    between atoms: C_28  and  C_35
REMARK   10  A    between atoms: C_33  and  C_36
REMARK   11  A    between atoms: C_45  and  C_48
REMARK   12  A    between atoms: C_49  and  C_52
REMARK   13  A    between atoms: C_51  and  C_58
REMARK   14  A    between atoms: C_59  and  C_60
REMARK                            x       y       z     vdW  Elec       q    Type
REMARK                         _______ _______ _______ _____ _____    ______ ____
ROOT
ATOM      1  O   UNL     1     112.697 130.367 138.811  0.00  0.00    +0.000 OA
ATOM      2  O   UNL     1     112.072 131.374 136.639  0.00  0.00    +0.000 OA
ATOM      3  O   UNL     1     113.661 131.261 137.069  0.00  0.00    +0.000 OA
ATOM      4  C   UNL     1     111.694 130.759 137.873  0.00  0.00    +0.000 C 
ATOM      5  C   UNL     1     112.280 131.038 137.363  0.00  0.00    +0.000 C 
ATOM      6  C   UNL     1     111.903 130.423 138.596  0.00  0.00    +0.000 C 
ATOM      7  C   UNL     1     113.075 130.982 137.577  0.00  0.00    +0.000 C 
ATOM      8  C   UNL     1     113.284 130.646 138.302  0.00  0.00    +0.000 C 
ENDROOT
BRANCH   6  13
ATOM      9  O   UNL     1     111.609 128.803 138.708  0.00  0.00    +0.000 OA
ATOM     10  O   UNL     1     111.026 131.486 139.504  0.00  0.00    +0.000 OA
ATOM     11  O   UNL     1     109.534 129.309 140.661  0.00  0.00    +0.000 OA
ATOM     12  O   UNL     1     110.885 127.685 139.264  0.00  0.00    +0.000 OA
ATOM     13  C   UNL     1     111.317 130.144 139.106  0.00  0.00    +0.000 A 
ATOM     14  C   UNL     1     111.171 129.335 139.162  0.00  0.00    +0.000 A 
ATOM     15  C   UNL     1     110.879 130.675 139.560  0.00  0.00    +0.000 A 
ATOM     16  C   UNL     1     110.585 129.055 139.672  0.00  0.00    +0.000 A 
ATOM     17  C   UNL     1     110.293 130.397 140.070  0.00  0.00    +0.000 A 
ATOM     18  C   UNL     1     110.146 129.586 140.126  0.00  0.00    +0.000 A 
ATOM     19  C   UNL     1     110.442 128.210 139.721  0.00  0.00    +0.000 A 
ATOM     20  C   UNL     1     109.376 128.466 140.724  0.00  0.00    +0.000 A 
ATOM     21  C   UNL     1     109.833 127.913 140.251  0.00  0.00    +0.000 A 
BRANCH  20  22
ATOM     22  C   UNL     1     108.790 128.190 141.235  0.00  0.00    +0.000 A 
ATOM     23  C   UNL     1     107.619 127.639 142.257  0.00  0.00    +0.000 A 
ATOM     24  C   UNL     1     108.040 128.534 141.226  0.00  0.00    +0.000 A 
ATOM     25  C   UNL     1     108.954 127.571 141.755  0.00  0.00    +0.000 A 
ATOM     26  C   UNL     1     107.454 128.258 141.737  0.00  0.00    +0.000 A 
ATOM     27  C   UNL     1     108.369 127.296 142.266  0.00  0.00    +0.000 A 
BRANCH  23  28
ATOM     28  O   UNL     1     107.033 127.363 142.769  0.00  0.00    +0.000 OA
BRANCH  28  37
ATOM     29  O   UNL     1     106.382 126.454 141.881  0.00  0.00    +0.000 OA
ATOM     30  O   UNL     1     106.183 124.804 143.714  0.00  0.00    +0.000 OA
ATOM     31  O   UNL     1     105.597 124.444 142.214  0.00  0.00    +0.000 OA
ATOM     32  O   UNL     1     106.901 126.264 143.992  0.00  0.00    +0.000 OA
ATOM     33  C   UNL     1     106.249 125.354 143.103  0.00  0.00    +0.000 C 
ATOM     34  C   UNL     1     105.956 125.174 142.353  0.00  0.00    +0.000 C 
ATOM     35  C   UNL     1     106.608 126.084 143.242  0.00  0.00    +0.000 C 
ATOM     36  C   UNL     1     106.022 125.723 141.742  0.00  0.00    +0.000 C 
ATOM     37  C   UNL     1     106.674 126.634 142.631  0.00  0.00    +0.000 C 
BRANCH  36  39
ATOM     38  O   UNL     1     106.244 125.497 140.349  0.00  0.00    +0.000 OA
ATOM     39  C   UNL     1     105.730 125.544 140.992  0.00  0.00    +0.000 C 
ENDBRANCH  36  39
ENDBRANCH  28  37
ENDBRANCH  23  28
ENDBRANCH  20  22
ENDBRANCH   6  13
BRANCH   8  41
ATOM     40  O   UNL     1     114.323 130.844 139.263  0.00  0.00    +0.000 OA
ATOM     41  C   UNL     1     114.078 130.589 138.517  0.00  0.00    +0.000 C 
ENDBRANCH   8  41
BRANCH   4  42
ATOM     42  O   UNL     1     110.900 130.815 137.658  0.00  0.00    +0.000 OA
BRANCH  42  47
ATOM     43  O   UNL     1     111.000 129.907 136.559  0.00  0.00    +0.000 OA
ATOM     44  O   UNL     1     109.728 131.657 136.856  0.00  0.00    +0.000 OA
ATOM     45  O   UNL     1     109.242 131.169 135.357  0.00  0.00    +0.000 OA
ATOM     46  O   UNL     1     109.928 129.840 134.659  0.00  0.00    +0.000 OA
ATOM     47  C   UNL     1     110.657 130.572 136.908  0.00  0.00    +0.000 C 
ATOM     48  C   UNL     1     110.071 130.992 136.507  0.00  0.00    +0.000 C 
ATOM     49  C   UNL     1     109.828 130.749 135.758  0.00  0.00    +0.000 C 
ATOM     50  C   UNL     1     110.170 130.084 135.408  0.00  0.00    +0.000 C 
ATOM     51  C   UNL     1     110.756 129.664 135.809  0.00  0.00    +0.000 C 
BRANCH  51  52
ATOM     52  C   UNL     1     111.099 128.999 135.460  0.00  0.00    +0.000 C 
BRANCH  52  53
ATOM     53  O   UNL     1     111.154 128.293 135.885  0.00  0.00    +0.000 OA
BRANCH  53  55
ATOM     54  O   UNL     1     112.280 127.892 135.101  0.00  0.00    +0.000 OA
ATOM     55  C   UNL     1     111.690 127.712 135.650  0.00  0.00    +0.000 C 
BRANCH  55  56
ATOM     56  C   UNL     1     111.637 126.951 135.965  0.00  0.00    +0.000 C 
ATOM     57  C   UNL     1     112.274 126.431 135.894  0.00  0.00    +0.000 C 
BRANCH  57  59
ATOM     58  O   UNL     1     112.060 123.387 137.152  0.00  0.00    +0.000 OA
ATOM     59  C   UNL     1     112.220 125.669 136.209  0.00  0.00    +0.000 A 
ATOM     60  C   UNL     1     112.878 125.324 136.569  0.00  0.00    +0.000 A 
ATOM     61  C   UNL     1     111.509 125.254 136.164  0.00  0.00    +0.000 A 
ATOM     62  C   UNL     1     112.825 124.564 136.883  0.00  0.00    +0.000 A 
ATOM     63  C   UNL     1     111.457 124.493 136.479  0.00  0.00    +0.000 A 
ATOM     64  C   UNL     1     112.114 124.148 136.838  0.00  0.00    +0.000 A 
BRANCH  62  65
ATOM     65  O   UNL     1     113.482 124.219 137.242  0.00  0.00    +0.000 OA
ATOM     66  C   UNL     1     114.208 124.610 137.237  0.00  0.00    +0.000 C 
ENDBRANCH  62  65
ENDBRANCH  57  59
ENDBRANCH  55  56
ENDBRANCH  53  55
ENDBRANCH  52  53
ENDBRANCH  51  52
ENDBRANCH  42  47
ENDBRANCH   4  42
TORSDOF 14
ENDMDL
MODEL 5
REMARK VINA RESULT:     -10.5      3.434      6.166
REMARK  Name = 131752283
REMARK  14 active torsions:
REMARK  status: ('A' for Active; 'I' for Inactive)
REMARK    1  A    between atoms: O_1  and  C_24
REMARK    2  A    between atoms: O_1  and  C_29
REMARK    3  A    between atoms: O_10  and  C_36
REMARK    4  A    between atoms: O_10  and  C_51
REMARK    5  A    between atoms: O_15  and  C_46
REMARK    6  A    between atoms: O_15  and  C_53
REMARK    7  A    between atoms: O_22  and  C_63
REMARK    8  A    between atoms: C_26  and  C_34
REMARK    9  A    between atoms: C_28  and  C_35
REMARK   10  A    between atoms: C_33  and  C_36
REMARK   11  A    between atoms: C_45  and  C_48
REMARK   12  A    between atoms: C_49  and  C_52
REMARK   13  A    between atoms: C_51  and  C_58
REMARK   14  A    between atoms: C_59  and  C_60
REMARK                            x       y       z     vdW  Elec       q    Type
REMARK                         _______ _______ _______ _____ _____    ______ ____
ROOT
ATOM      1  O   UNL     1     113.263 125.698 137.471  0.00  0.00    +0.000 OA
ATOM      2  O   UNL     1     113.478 127.671 135.994  0.00  0.00    +0.000 OA
ATOM      3  O   UNL     1     114.732 126.609 136.140  0.00  0.00    +0.000 OA
ATOM      4  C   UNL     1     112.707 126.886 136.906  0.00  0.00    +0.000 C 
ATOM      5  C   UNL     1     113.406 127.014 136.486  0.00  0.00    +0.000 C 
ATOM      6  C   UNL     1     112.635 126.229 137.398  0.00  0.00    +0.000 C 
ATOM      7  C   UNL     1     114.033 126.482 136.559  0.00  0.00    +0.000 C 
ATOM      8  C   UNL     1     113.962 125.824 137.052  0.00  0.00    +0.000 C 
ENDROOT
BRANCH   6  13
ATOM      9  O   UNL     1     112.573 126.551 139.016  0.00  0.00    +0.000 OA
ATOM     10  O   UNL     1     111.300 125.651 136.620  0.00  0.00    +0.000 OA
ATOM     11  O   UNL     1     109.805 125.709 139.082  0.00  0.00    +0.000 OA
ATOM     12  O   UNL     1     111.859 126.594 140.269  0.00  0.00    +0.000 OA
ATOM     13  C   UNL     1     111.937 126.101 137.819  0.00  0.00    +0.000 A 
ATOM     14  C   UNL     1     111.905 126.262 138.626  0.00  0.00    +0.000 A 
ATOM     15  C   UNL     1     111.269 125.812 137.429  0.00  0.00    +0.000 A 
ATOM     16  C   UNL     1     111.207 126.134 139.046  0.00  0.00    +0.000 A 
ATOM     17  C   UNL     1     110.570 125.685 137.848  0.00  0.00    +0.000 A 
ATOM     18  C   UNL     1     110.539 125.846 138.657  0.00  0.00    +0.000 A 
ATOM     19  C   UNL     1     111.187 126.306 139.888  0.00  0.00    +0.000 A 
ATOM     20  C   UNL     1     109.766 125.874 139.925  0.00  0.00    +0.000 A 
ATOM     21  C   UNL     1     110.462 126.175 140.331  0.00  0.00    +0.000 A 
BRANCH  20  22
ATOM     22  C   UNL     1     109.065 125.745 140.342  0.00  0.00    +0.000 A 
ATOM     23  C   UNL     1     107.665 125.487 141.174  0.00  0.00    +0.000 A 
ATOM     24  C   UNL     1     108.551 126.374 140.487  0.00  0.00    +0.000 A 
ATOM     25  C   UNL     1     108.880 124.988 140.612  0.00  0.00    +0.000 A 
ATOM     26  C   UNL     1     107.850 126.244 140.903  0.00  0.00    +0.000 A 
ATOM     27  C   UNL     1     108.180 124.859 141.028  0.00  0.00    +0.000 A 
BRANCH  23  28
ATOM     28  O   UNL     1     106.965 125.357 141.590  0.00  0.00    +0.000 OA
BRANCH  28  37
ATOM     29  O   UNL     1     106.162 125.000 140.464  0.00  0.00    +0.000 OA
ATOM     30  O   UNL     1     104.972 123.324 141.842  0.00  0.00    +0.000 OA
ATOM     31  O   UNL     1     104.566 123.525 140.256  0.00  0.00    +0.000 OA
ATOM     32  O   UNL     1     106.171 124.240 142.510  0.00  0.00    +0.000 OA
ATOM     33  C   UNL     1     105.369 123.882 141.383  0.00  0.00    +0.000 C 
ATOM     34  C   UNL     1     105.166 123.983 140.590  0.00  0.00    +0.000 C 
ATOM     35  C   UNL     1     105.968 124.340 141.717  0.00  0.00    +0.000 C 
ATOM     36  C   UNL     1     105.562 124.541 140.130  0.00  0.00    +0.000 C 
ATOM     37  C   UNL     1     106.365 124.899 141.257  0.00  0.00    +0.000 C 
BRANCH  36  39
ATOM     38  O   UNL     1     105.056 125.364 139.077  0.00  0.00    +0.000 OA
ATOM     39  C   UNL     1     105.359 124.642 139.337  0.00  0.00    +0.000 C 
ENDBRANCH  36  39
ENDBRANCH  28  37
ENDBRANCH  23  28
ENDBRANCH  20  22
ENDBRANCH   6  13
BRANCH   8  41
ATOM     40  O   UNL     1     114.466 124.557 137.478  0.00  0.00    +0.000 OA
ATOM     41  C   UNL     1     114.589 125.293 137.125  0.00  0.00    +0.000 C 
ENDBRANCH   8  41
BRANCH   4  42
ATOM     42  O   UNL     1     112.080 127.417 136.833  0.00  0.00    +0.000 OA
BRANCH  42  47
ATOM     43  O   UNL     1     112.652 128.532 137.521  0.00  0.00    +0.000 OA
ATOM     44  O   UNL     1     111.490 128.434 135.676  0.00  0.00    +0.000 OA
ATOM     45  O   UNL     1     111.766 130.057 135.785  0.00  0.00    +0.000 OA
ATOM     46  O   UNL     1     112.633 130.663 137.051  0.00  0.00    +0.000 OA
ATOM     47  C   UNL     1     112.218 128.229 136.888  0.00  0.00    +0.000 C 
ATOM     48  C   UNL     1     111.923 128.738 136.309  0.00  0.00    +0.000 C 
ATOM     49  C   UNL     1     112.061 129.549 136.364  0.00  0.00    +0.000 C 
ATOM     50  C   UNL     1     112.495 129.852 136.997  0.00  0.00    +0.000 C 
ATOM     51  C   UNL     1     112.790 129.344 137.576  0.00  0.00    +0.000 C 
BRANCH  51  52
ATOM     52  C   UNL     1     113.223 129.646 138.209  0.00  0.00    +0.000 C 
BRANCH  52  53
ATOM     53  O   UNL     1     113.040 129.417 138.981  0.00  0.00    +0.000 OA
BRANCH  53  55
ATOM     54  O   UNL     1     114.284 129.778 139.584  0.00  0.00    +0.000 OA
ATOM     55  C   UNL     1     113.461 129.734 139.615  0.00  0.00    +0.000 C 
BRANCH  55  56
ATOM     56  C   UNL     1     113.058 130.007 140.282  0.00  0.00    +0.000 C 
ATOM     57  C   UNL     1     113.209 129.671 141.021  0.00  0.00    +0.000 C 
BRANCH  57  59
ATOM     58  O   UNL     1     111.599 130.761 143.687  0.00  0.00    +0.000 OA
ATOM     59  C   UNL     1     112.807 129.944 141.688  0.00  0.00    +0.000 A 
ATOM     60  C   UNL     1     112.335 129.427 142.125  0.00  0.00    +0.000 A 
ATOM     61  C   UNL     1     112.876 130.733 141.917  0.00  0.00    +0.000 A 
ATOM     62  C   UNL     1     111.933 129.699 142.791  0.00  0.00    +0.000 A 
ATOM     63  C   UNL     1     112.473 131.005 142.583  0.00  0.00    +0.000 A 
ATOM     64  C   UNL     1     112.002 130.488 143.020  0.00  0.00    +0.000 A 
BRANCH  62  65
ATOM     65  O   UNL     1     111.461 129.183 143.228  0.00  0.00    +0.000 OA
ATOM     66  C   UNL     1     110.876 128.740 142.852  0.00  0.00    +0.000 C 
ENDBRANCH  62  65
ENDBRANCH  57  59
ENDBRANCH  55  56
ENDBRANCH  53  55
ENDBRANCH  52  53
ENDBRANCH  51  52
ENDBRANCH  42  47
ENDBRANCH   4  42
TORSDOF 14
ENDMDL
MODEL 6
REMARK VINA RESULT:     -10.4      1.545      4.225
REMARK  Name = 131752283
REMARK  14 active torsions:
REMARK  status: ('A' for Active; 'I' for Inactive)
REMARK    1  A    between atoms: O_1  and  C_24
REMARK    2  A    between atoms: O_1  and  C_29
REMARK    3  A    between atoms: O_10  and  C_36
REMARK    4  A    between atoms: O_10  and  C_51
REMARK    5  A    between atoms: O_15  and  C_46
REMARK    6  A    between atoms: O_15  and  C_53
REMARK    7  A    between atoms: O_22  and  C_63
REMARK    8  A    between atoms: C_26  and  C_34
REMARK    9  A    between atoms: C_28  and  C_35
REMARK   10  A    between atoms: C_33  and  C_36
REMARK   11  A    between atoms: C_45  and  C_48
REMARK   12  A    between atoms: C_49  and  C_52
REMARK   13  A    between atoms: C_51  and  C_58
REMARK   14  A    between atoms: C_59  and  C_60
REMARK                            x       y       z     vdW  Elec       q    Type
REMARK                         _______ _______ _______ _____ _____    ______ ____
ROOT
ATOM      1  O   UNL     1     113.542 125.956 137.960  0.00  0.00    +0.000 OA
ATOM      2  O   UNL     1     111.929 125.499 136.140  0.00  0.00    +0.000 OA
ATOM      3  O   UNL     1     113.514 125.075 135.964  0.00  0.00    +0.000 OA
ATOM      4  C   UNL     1     112.212 126.015 137.442  0.00  0.00    +0.000 C 
ATOM      5  C   UNL     1     112.466 125.651 136.746  0.00  0.00    +0.000 C 
ATOM      6  C   UNL     1     112.749 126.168 138.048  0.00  0.00    +0.000 C 
ATOM      7  C   UNL     1     113.259 125.439 136.658  0.00  0.00    +0.000 C 
ATOM      8  C   UNL     1     113.797 125.592 137.265  0.00  0.00    +0.000 C 
ENDROOT
BRANCH   6  13
ATOM      9  O   UNL     1     113.163 127.735 138.359  0.00  0.00    +0.000 OA
ATOM     10  O   UNL     1     111.827 125.328 139.128  0.00  0.00    +0.000 OA
ATOM     11  O   UNL     1     111.715 127.627 140.862  0.00  0.00    +0.000 OA
ATOM     12  O   UNL     1     113.131 128.908 139.199  0.00  0.00    +0.000 OA
ATOM     13  C   UNL     1     112.495 126.532 138.744  0.00  0.00    +0.000 A 
ATOM     14  C   UNL     1     112.702 127.315 138.899  0.00  0.00    +0.000 A 
ATOM     15  C   UNL     1     112.034 126.112 139.284  0.00  0.00    +0.000 A 
ATOM     16  C   UNL     1     112.447 127.679 139.595  0.00  0.00    +0.000 A 
ATOM     17  C   UNL     1     111.779 126.475 139.979  0.00  0.00    +0.000 A 
ATOM     18  C   UNL     1     111.986 127.259 140.135  0.00  0.00    +0.000 A 
ATOM     19  C   UNL     1     112.669 128.495 139.745  0.00  0.00    +0.000 A 
ATOM     20  C   UNL     1     111.927 128.443 141.030  0.00  0.00    +0.000 A 
ATOM     21  C   UNL     1     112.407 128.880 140.468  0.00  0.00    +0.000 A 
BRANCH  20  22
ATOM     22  C   UNL     1     111.671 128.803 141.727  0.00  0.00    +0.000 A 
ATOM     23  C   UNL     1     111.160 129.524 143.120  0.00  0.00    +0.000 A 
ATOM     24  C   UNL     1     110.970 129.239 141.732  0.00  0.00    +0.000 A 
ATOM     25  C   UNL     1     112.116 128.728 142.418  0.00  0.00    +0.000 A 
ATOM     26  C   UNL     1     110.715 129.599 142.429  0.00  0.00    +0.000 A 
ATOM     27  C   UNL     1     111.860 129.088 143.114  0.00  0.00    +0.000 A 
BRANCH  23  28
ATOM     28  O   UNL     1     110.904 129.884 143.817  0.00  0.00    +0.000 OA
BRANCH  28  37
ATOM     29  O   UNL     1     111.509 131.157 143.588  0.00  0.00    +0.000 OA
ATOM     30  O   UNL     1     112.040 131.340 145.998  0.00  0.00    +0.000 OA
ATOM     31  O   UNL     1     112.467 132.553 144.965  0.00  0.00    +0.000 OA
ATOM     32  O   UNL     1     111.258 130.005 145.424  0.00  0.00    +0.000 OA
ATOM     33  C   UNL     1     111.863 131.279 145.195  0.00  0.00    +0.000 C 
ATOM     34  C   UNL     1     112.077 131.886 144.678  0.00  0.00    +0.000 C 
ATOM     35  C   UNL     1     111.472 130.611 144.908  0.00  0.00    +0.000 C 
ATOM     36  C   UNL     1     111.900 131.825 143.875  0.00  0.00    +0.000 C 
ATOM     37  C   UNL     1     111.295 130.550 144.104  0.00  0.00    +0.000 C 
BRANCH  36  39
ATOM     38  O   UNL     1     111.545 132.779 142.872  0.00  0.00    +0.000 OA
ATOM     39  C   UNL     1     112.114 132.432 143.359  0.00  0.00    +0.000 C 
ENDBRANCH  36  39
ENDBRANCH  28  37
ENDBRANCH  23  28
ENDBRANCH  20  22
ENDBRANCH   6  13
BRANCH   8  41
ATOM     40  O   UNL     1     114.985 124.999 137.793  0.00  0.00    +0.000 OA
ATOM     41  C   UNL     1     114.589 125.380 137.177  0.00  0.00    +0.000 C 
ENDBRANCH   8  41
BRANCH   4  42
ATOM     42  O   UNL     1     111.419 126.227 137.530  0.00  0.00    +0.000 OA
BRANCH  42  47
ATOM     43  O   UNL     1     111.343 127.356 136.657  0.00  0.00    +0.000 OA
ATOM     44  O   UNL     1     110.029 125.626 136.875  0.00  0.00    +0.000 OA
ATOM     45  O   UNL     1     109.258 126.454 135.675  0.00  0.00    +0.000 OA
ATOM     46  O   UNL     1     109.876 127.883 135.129  0.00  0.00    +0.000 OA
ATOM     47  C   UNL     1     111.033 126.641 136.929  0.00  0.00    +0.000 C 
ATOM     48  C   UNL     1     110.338 126.341 136.602  0.00  0.00    +0.000 C 
ATOM     49  C   UNL     1     109.953 126.755 136.002  0.00  0.00    +0.000 C 
ATOM     50  C   UNL     1     110.262 127.470 135.729  0.00  0.00    +0.000 C 
ATOM     51  C   UNL     1     110.957 127.770 136.056  0.00  0.00    +0.000 C 
BRANCH  51  52
ATOM     52  C   UNL     1     111.267 128.484 135.784  0.00  0.00    +0.000 C 
BRANCH  52  53
ATOM     53  O   UNL     1     111.439 129.090 136.318  0.00  0.00    +0.000 OA
BRANCH  53  55
ATOM     54  O   UNL     1     112.313 129.871 135.502  0.00  0.00    +0.000 OA
ATOM     55  C   UNL     1     111.690 129.824 136.041  0.00  0.00    +0.000 C 
BRANCH  55  56
ATOM     56  C   UNL     1     111.319 130.513 136.304  0.00  0.00    +0.000 C 
ATOM     57  C   UNL     1     111.540 130.851 137.024  0.00  0.00    +0.000 C 
BRANCH  57  59
ATOM     58  O   UNL     1     110.056 133.605 138.075  0.00  0.00    +0.000 OA
ATOM     59  C   UNL     1     111.169 131.540 137.287  0.00  0.00    +0.000 A 
ATOM     60  C   UNL     1     110.777 131.546 138.014  0.00  0.00    +0.000 A 
ATOM     61  C   UNL     1     111.189 132.222 136.823  0.00  0.00    +0.000 A 
ATOM     62  C   UNL     1     110.407 132.234 138.276  0.00  0.00    +0.000 A 
ATOM     63  C   UNL     1     110.818 132.910 137.087  0.00  0.00    +0.000 A 
ATOM     64  C   UNL     1     110.427 132.916 137.813  0.00  0.00    +0.000 A 
BRANCH  62  65
ATOM     65  O   UNL     1     110.016 132.241 139.002  0.00  0.00    +0.000 OA
ATOM     66  C   UNL     1     110.084 131.597 139.514  0.00  0.00    +0.000 C 
ENDBRANCH  62  65
ENDBRANCH  57  59
ENDBRANCH  55  56
ENDBRANCH  53  55
ENDBRANCH  52  53
ENDBRANCH  51  52
ENDBRANCH  42  47
ENDBRANCH   4  42
TORSDOF 14
ENDMDL
MODEL 7
REMARK VINA RESULT:     -10.4      5.909      8.247
REMARK  Name = 131752283
REMARK  14 active torsions:
REMARK  status: ('A' for Active; 'I' for Inactive)
REMARK    1  A    between atoms: O_1  and  C_24
REMARK    2  A    between atoms: O_1  and  C_29
REMARK    3  A    between atoms: O_10  and  C_36
REMARK    4  A    between atoms: O_10  and  C_51
REMARK    5  A    between atoms: O_15  and  C_46
REMARK    6  A    between atoms: O_15  and  C_53
REMARK    7  A    between atoms: O_22  and  C_63
REMARK    8  A    between atoms: C_26  and  C_34
REMARK    9  A    between atoms: C_28  and  C_35
REMARK   10  A    between atoms: C_33  and  C_36
REMARK   11  A    between atoms: C_45  and  C_48
REMARK   12  A    between atoms: C_49  and  C_52
REMARK   13  A    between atoms: C_51  and  C_58
REMARK   14  A    between atoms: C_59  and  C_60
REMARK                            x       y       z     vdW  Elec       q    Type
REMARK                         _______ _______ _______ _____ _____    ______ ____
ROOT
ATOM      1  O   UNL     1     104.852 129.818 142.554  0.00  0.00    +0.000 OA
ATOM      2  O   UNL     1     105.290 127.745 141.276  0.00  0.00    +0.000 OA
ATOM      3  O   UNL     1     103.752 128.330 141.396  0.00  0.00    +0.000 OA
ATOM      4  C   UNL     1     105.767 128.834 142.069  0.00  0.00    +0.000 C 
ATOM      5  C   UNL     1     105.144 128.435 141.702  0.00  0.00    +0.000 C 
ATOM      6  C   UNL     1     105.621 129.525 142.495  0.00  0.00    +0.000 C 
ATOM      7  C   UNL     1     104.375 128.728 141.762  0.00  0.00    +0.000 C 
ATOM      8  C   UNL     1     104.229 129.420 142.188  0.00  0.00    +0.000 C 
ENDROOT
BRANCH   6  13
ATOM      9  O   UNL     1     105.840 129.392 144.125  0.00  0.00    +0.000 OA
ATOM     10  O   UNL     1     106.645 130.456 141.597  0.00  0.00    +0.000 OA
ATOM     11  O   UNL     1     108.139 131.142 143.963  0.00  0.00    +0.000 OA
ATOM     12  O   UNL     1     106.562 129.712 145.333  0.00  0.00    +0.000 OA
ATOM     13  C   UNL     1     106.243 129.924 142.862  0.00  0.00    +0.000 A 
ATOM     14  C   UNL     1     106.353 129.858 143.676  0.00  0.00    +0.000 A 
ATOM     15  C   UNL     1     106.755 130.389 142.413  0.00  0.00    +0.000 A 
ATOM     16  C   UNL     1     106.975 130.257 144.043  0.00  0.00    +0.000 A 
ATOM     17  C   UNL     1     107.378 130.788 142.778  0.00  0.00    +0.000 A 
ATOM     18  C   UNL     1     107.488 130.722 143.594  0.00  0.00    +0.000 A 
ATOM     19  C   UNL     1     107.079 130.179 144.892  0.00  0.00    +0.000 A 
ATOM     20  C   UNL     1     108.259 131.077 144.812  0.00  0.00    +0.000 A 
ATOM     21  C   UNL     1     107.726 130.593 145.279  0.00  0.00    +0.000 A 
BRANCH  20  22
ATOM     22  C   UNL     1     108.883 131.478 145.175  0.00  0.00    +0.000 A 
ATOM     23  C   UNL     1     110.128 132.280 145.900  0.00  0.00    +0.000 A 
ATOM     24  C   UNL     1     109.586 131.080 145.344  0.00  0.00    +0.000 A 
ATOM     25  C   UNL     1     108.803 132.276 145.368  0.00  0.00    +0.000 A 
ATOM     26  C   UNL     1     110.209 131.482 145.707  0.00  0.00    +0.000 A 
ATOM     27  C   UNL     1     109.425 132.677 145.731  0.00  0.00    +0.000 A 
BRANCH  23  28
ATOM     28  O   UNL     1     110.751 132.681 146.263  0.00  0.00    +0.000 OA
BRANCH  28  37
ATOM     29  O   UNL     1     111.455 133.094 145.091  0.00  0.00    +0.000 OA
ATOM     30  O   UNL     1     113.604 132.530 146.181  0.00  0.00    +0.000 OA
ATOM     31  O   UNL     1     113.591 133.131 144.644  0.00  0.00    +0.000 OA
ATOM     32  O   UNL     1     112.184 132.305 146.991  0.00  0.00    +0.000 OA
ATOM     33  C   UNL     1     112.888 132.718 145.817  0.00  0.00    +0.000 C 
ATOM     34  C   UNL     1     112.881 133.019 145.049  0.00  0.00    +0.000 C 
ATOM     35  C   UNL     1     112.178 132.605 146.222  0.00  0.00    +0.000 C 
ATOM     36  C   UNL     1     112.166 133.207 144.686  0.00  0.00    +0.000 C 
ATOM     37  C   UNL     1     111.461 132.793 145.859  0.00  0.00    +0.000 C 
BRANCH  36  39
ATOM     38  O   UNL     1     111.671 134.145 143.728  0.00  0.00    +0.000 OA
ATOM     39  C   UNL     1     112.159 133.507 143.918  0.00  0.00    +0.000 C 
ENDBRANCH  36  39
ENDBRANCH  28  37
ENDBRANCH  23  28
ENDBRANCH  20  22
ENDBRANCH   6  13
BRANCH   8  41
ATOM     40  O   UNL     1     103.306 130.505 142.076  0.00  0.00    +0.000 OA
ATOM     41  C   UNL     1     103.460 129.712 142.248  0.00  0.00    +0.000 C 
ENDBRANCH   8  41
BRANCH   4  42
ATOM     42  O   UNL     1     106.536 128.541 142.009  0.00  0.00    +0.000 OA
BRANCH  42  47
ATOM     43  O   UNL     1     106.330 127.373 142.806  0.00  0.00    +0.000 OA
ATOM     44  O   UNL     1     107.551 127.692 141.024  0.00  0.00    +0.000 OA
ATOM     45  O   UNL     1     107.853 126.098 141.328  0.00  0.00    +0.000 OA
ATOM     46  O   UNL     1     107.140 125.354 142.617  0.00  0.00    +0.000 OA
ATOM     47  C   UNL     1     106.687 127.744 142.161  0.00  0.00    +0.000 C 
ATOM     48  C   UNL     1     107.194 127.319 141.669  0.00  0.00    +0.000 C 
ATOM     49  C   UNL     1     107.345 126.523 141.820  0.00  0.00    +0.000 C 
ATOM     50  C   UNL     1     106.989 126.150 142.465  0.00  0.00    +0.000 C 
ATOM     51  C   UNL     1     106.481 126.575 142.957  0.00  0.00    +0.000 C 
BRANCH  51  52
ATOM     52  C   UNL     1     106.125 126.204 143.602  0.00  0.00    +0.000 C 
BRANCH  52  53
ATOM     53  O   UNL     1     106.334 126.421 144.370  0.00  0.00    +0.000 OA
BRANCH  53  55
ATOM     54  O   UNL     1     105.086 126.216 145.035  0.00  0.00    +0.000 OA
ATOM     55  C   UNL     1     105.906 126.129 145.012  0.00  0.00    +0.000 C 
BRANCH  55  56
ATOM     56  C   UNL     1     106.299 125.749 145.631  0.00  0.00    +0.000 C 
ATOM     57  C   UNL     1     106.208 126.021 146.404  0.00  0.00    +0.000 C 
BRANCH  57  59
ATOM     58  O   UNL     1     107.779 124.503 148.878  0.00  0.00    +0.000 OA
ATOM     59  C   UNL     1     106.601 125.641 147.023  0.00  0.00    +0.000 A 
ATOM     60  C   UNL     1     106.171 125.228 147.593  0.00  0.00    +0.000 A 
ATOM     61  C   UNL     1     107.424 125.676 147.071  0.00  0.00    +0.000 A 
ATOM     62  C   UNL     1     106.563 124.849 148.211  0.00  0.00    +0.000 A 
ATOM     63  C   UNL     1     107.816 125.296 147.690  0.00  0.00    +0.000 A 
ATOM     64  C   UNL     1     107.385 124.883 148.260  0.00  0.00    +0.000 A 
BRANCH  62  65
ATOM     65  O   UNL     1     106.133 124.436 148.781  0.00  0.00    +0.000 OA
ATOM     66  C   UNL     1     105.375 124.686 148.989  0.00  0.00    +0.000 C 
ENDBRANCH  62  65
ENDBRANCH  57  59
ENDBRANCH  55  56
ENDBRANCH  53  55
ENDBRANCH  52  53
ENDBRANCH  51  52
ENDBRANCH  42  47
ENDBRANCH   4  42
TORSDOF 14
ENDMDL
MODEL 8
REMARK VINA RESULT:     -10.4      1.650      3.179
REMARK  Name = 131752283
REMARK  14 active torsions:
REMARK  status: ('A' for Active; 'I' for Inactive)
REMARK    1  A    between atoms: O_1  and  C_24
REMARK    2  A    between atoms: O_1  and  C_29
REMARK    3  A    between atoms: O_10  and  C_36
REMARK    4  A    between atoms: O_10  and  C_51
REMARK    5  A    between atoms: O_15  and  C_46
REMARK    6  A    between atoms: O_15  and  C_53
REMARK    7  A    between atoms: O_22  and  C_63
REMARK    8  A    between atoms: C_26  and  C_34
REMARK    9  A    between atoms: C_28  and  C_35
REMARK   10  A    between atoms: C_33  and  C_36
REMARK   11  A    between atoms: C_45  and  C_48
REMARK   12  A    between atoms: C_49  and  C_52
REMARK   13  A    between atoms: C_51  and  C_58
REMARK   14  A    between atoms: C_59  and  C_60
REMARK                            x       y       z     vdW  Elec       q    Type
REMARK                         _______ _______ _______ _____ _____    ______ ____
ROOT
ATOM      1  O   UNL     1     110.216 127.094 139.913  0.00  0.00    +0.000 OA
ATOM      2  O   UNL     1     109.330 127.853 137.731  0.00  0.00    +0.000 OA
ATOM      3  O   UNL     1     109.597 126.247 137.999  0.00  0.00    +0.000 OA
ATOM      4  C   UNL     1     109.787 128.150 139.052  0.00  0.00    +0.000 C 
ATOM      5  C   UNL     1     109.625 127.601 138.458  0.00  0.00    +0.000 C 
ATOM      6  C   UNL     1     110.082 127.897 139.779  0.00  0.00    +0.000 C 
ATOM      7  C   UNL     1     109.759 126.798 138.592  0.00  0.00    +0.000 C 
ATOM      8  C   UNL     1     110.054 126.544 139.320  0.00  0.00    +0.000 C 
ENDROOT
BRANCH   6  13
ATOM      9  O   UNL     1     111.642 128.331 140.100  0.00  0.00    +0.000 OA
ATOM     10  O   UNL     1     108.846 128.562 140.646  0.00  0.00    +0.000 OA
ATOM     11  O   UNL     1     110.722 130.119 142.181  0.00  0.00    +0.000 OA
ATOM     12  O   UNL     1     112.614 129.093 140.846  0.00  0.00    +0.000 OA
ATOM     13  C   UNL     1     110.245 128.447 140.373  0.00  0.00    +0.000 A 
ATOM     14  C   UNL     1     111.023 128.664 140.533  0.00  0.00    +0.000 A 
ATOM     15  C   UNL     1     109.626 128.779 140.806  0.00  0.00    +0.000 A 
ATOM     16  C   UNL     1     111.186 129.213 141.127  0.00  0.00    +0.000 A 
ATOM     17  C   UNL     1     109.787 129.329 141.400  0.00  0.00    +0.000 A 
ATOM     18  C   UNL     1     110.567 129.546 141.561  0.00  0.00    +0.000 A 
ATOM     19  C   UNL     1     112.001 129.431 141.285  0.00  0.00    +0.000 A 
ATOM     20  C   UNL     1     111.532 130.349 142.353  0.00  0.00    +0.000 A 
ATOM     21  C   UNL     1     112.176 130.003 141.902  0.00  0.00    +0.000 A 
BRANCH  20  22
ATOM     22  C   UNL     1     111.690 130.899 142.948  0.00  0.00    +0.000 A 
ATOM     23  C   UNL     1     112.005 131.997 144.138  0.00  0.00    +0.000 A 
ATOM     24  C   UNL     1     111.715 131.704 142.770  0.00  0.00    +0.000 A 
ATOM     25  C   UNL     1     111.823 130.643 143.721  0.00  0.00    +0.000 A 
ATOM     26  C   UNL     1     111.873 132.253 143.365  0.00  0.00    +0.000 A 
ATOM     27  C   UNL     1     111.980 131.192 144.316  0.00  0.00    +0.000 A 
BRANCH  23  28
ATOM     28  O   UNL     1     112.163 132.546 144.733  0.00  0.00    +0.000 OA
BRANCH  28  37
ATOM     29  O   UNL     1     110.802 132.775 145.101  0.00  0.00    +0.000 OA
ATOM     30  O   UNL     1     111.483 133.025 147.467  0.00  0.00    +0.000 OA
ATOM     31  O   UNL     1     109.895 133.171 147.047  0.00  0.00    +0.000 OA
ATOM     32  O   UNL     1     112.618 132.712 146.311  0.00  0.00    +0.000 OA
ATOM     33  C   UNL     1     111.256 132.941 146.679  0.00  0.00    +0.000 C 
ATOM     34  C   UNL     1     110.462 133.015 146.468  0.00  0.00    +0.000 C 
ATOM     35  C   UNL     1     111.824 132.785 146.100  0.00  0.00    +0.000 C 
ATOM     36  C   UNL     1     110.235 132.932 145.680  0.00  0.00    +0.000 C 
ATOM     37  C   UNL     1     111.597 132.702 145.312  0.00  0.00    +0.000 C 
BRANCH  36  39
ATOM     38  O   UNL     1     109.204 133.603 144.954  0.00  0.00    +0.000 OA
ATOM     39  C   UNL     1     109.440 133.005 145.470  0.00  0.00    +0.000 C 
ENDBRANCH  36  39
ENDBRANCH  28  37
ENDBRANCH  23  28
ENDBRANCH  20  22
ENDBRANCH   6  13
BRANCH   8  41
ATOM     40  O   UNL     1     110.007 125.410 140.188  0.00  0.00    +0.000 OA
ATOM     41  C   UNL     1     110.188 125.741 139.454  0.00  0.00    +0.000 C 
ENDBRANCH   8  41
BRANCH   4  42
ATOM     42  O   UNL     1     109.654 128.953 138.918  0.00  0.00    +0.000 OA
BRANCH  42  47
ATOM     43  O   UNL     1     110.739 129.143 138.008  0.00  0.00    +0.000 OA
ATOM     44  O   UNL     1     108.746 130.032 138.060  0.00  0.00    +0.000 OA
ATOM     45  O   UNL     1     109.378 130.761 136.721  0.00  0.00    +0.000 OA
ATOM     46  O   UNL     1     110.917 130.411 136.240  0.00  0.00    +0.000 OA
ATOM     47  C   UNL     1     109.970 129.318 138.248  0.00  0.00    +0.000 C 
ATOM     48  C   UNL     1     109.516 129.857 137.819  0.00  0.00    +0.000 C 
ATOM     49  C   UNL     1     109.832 130.221 137.150  0.00  0.00    +0.000 C 
ATOM     50  C   UNL     1     110.602 130.047 136.909  0.00  0.00    +0.000 C 
ATOM     51  C   UNL     1     111.055 129.508 137.338  0.00  0.00    +0.000 C 
BRANCH  51  52
ATOM     52  C   UNL     1     111.825 129.333 137.098  0.00  0.00    +0.000 C 
BRANCH  52  53
ATOM     53  O   UNL     1     112.021 128.563 136.873  0.00  0.00    +0.000 OA
BRANCH  53  55
ATOM     54  O   UNL     1     113.360 128.885 136.491  0.00  0.00    +0.000 OA
ATOM     55  C   UNL     1     112.813 128.347 136.794  0.00  0.00    +0.000 C 
BRANCH  55  56
ATOM     56  C   UNL     1     113.058 127.590 137.017  0.00  0.00    +0.000 C 
ATOM     57  C   UNL     1     113.118 126.993 136.452  0.00  0.00    +0.000 C 
BRANCH  57  59
ATOM     58  O   UNL     1     114.098 123.971 137.347  0.00  0.00    +0.000 OA
ATOM     59  C   UNL     1     113.363 126.237 136.676  0.00  0.00    +0.000 A 
ATOM     60  C   UNL     1     112.807 125.635 136.774  0.00  0.00    +0.000 A 
ATOM     61  C   UNL     1     114.164 126.084 136.801  0.00  0.00    +0.000 A 
ATOM     62  C   UNL     1     113.052 124.880 136.997  0.00  0.00    +0.000 A 
ATOM     63  C   UNL     1     114.408 125.328 137.025  0.00  0.00    +0.000 A 
ATOM     64  C   UNL     1     113.853 124.727 137.123  0.00  0.00    +0.000 A 
BRANCH  62  65
ATOM     65  O   UNL     1     112.497 124.279 137.096  0.00  0.00    +0.000 OA
ATOM     66  C   UNL     1     111.931 124.139 136.511  0.00  0.00    +0.000 C 
ENDBRANCH  62  65
ENDBRANCH  57  59
ENDBRANCH  55  56
ENDBRANCH  53  55
ENDBRANCH  52  53
ENDBRANCH  51  52
ENDBRANCH  42  47
ENDBRANCH   4  42
TORSDOF 14
ENDMDL
MODEL 9
REMARK VINA RESULT:     -10.3      2.917      8.556
REMARK  Name = 131752283
REMARK  14 active torsions:
REMARK  status: ('A' for Active; 'I' for Inactive)
REMARK    1  A    between atoms: O_1  and  C_24
REMARK    2  A    between atoms: O_1  and  C_29
REMARK    3  A    between atoms: O_10  and  C_36
REMARK    4  A    between atoms: O_10  and  C_51
REMARK    5  A    between atoms: O_15  and  C_46
REMARK    6  A    between atoms: O_15  and  C_53
REMARK    7  A    between atoms: O_22  and  C_63
REMARK    8  A    between atoms: C_26  and  C_34
REMARK    9  A    between atoms: C_28  and  C_35
REMARK   10  A    between atoms: C_33  and  C_36
REMARK   11  A    between atoms: C_45  and  C_48
REMARK   12  A    between atoms: C_49  and  C_52
REMARK   13  A    between atoms: C_51  and  C_58
REMARK   14  A    between atoms: C_59  and  C_60
REMARK                            x       y       z     vdW  Elec       q    Type
REMARK                         _______ _______ _______ _____ _____    ______ ____
ROOT
ATOM      1  O   UNL     1     107.390 127.033 143.433  0.00  0.00    +0.000 OA
ATOM      2  O   UNL     1     105.866 128.965 143.182  0.00  0.00    +0.000 OA
ATOM      3  O   UNL     1     105.685 127.932 144.456  0.00  0.00    +0.000 OA
ATOM      4  C   UNL     1     106.973 128.193 142.712  0.00  0.00    +0.000 C 
ATOM      5  C   UNL     1     106.374 128.321 143.265  0.00  0.00    +0.000 C 
ATOM      6  C   UNL     1     107.481 127.549 142.796  0.00  0.00    +0.000 C 
ATOM      7  C   UNL     1     106.284 127.805 143.902  0.00  0.00    +0.000 C 
ATOM      8  C   UNL     1     106.792 127.160 143.986  0.00  0.00    +0.000 C 
ENDROOT
BRANCH   6  13
ATOM      9  O   UNL     1     109.026 128.023 143.126  0.00  0.00    +0.000 OA
ATOM     10  O   UNL     1     107.132 126.818 141.359  0.00  0.00    +0.000 OA
ATOM     11  O   UNL     1     109.890 127.024 140.552  0.00  0.00    +0.000 OA
ATOM     12  O   UNL     1     110.417 128.145 142.760  0.00  0.00    +0.000 OA
ATOM     13  C   UNL     1     108.079 127.421 142.243  0.00  0.00    +0.000 A 
ATOM     14  C   UNL     1     108.852 127.657 142.408  0.00  0.00    +0.000 A 
ATOM     15  C   UNL     1     107.905 127.055 141.524  0.00  0.00    +0.000 A 
ATOM     16  C   UNL     1     109.450 127.529 141.855  0.00  0.00    +0.000 A 
ATOM     17  C   UNL     1     108.503 126.926 140.971  0.00  0.00    +0.000 A 
ATOM     18  C   UNL     1     109.276 127.163 141.136  0.00  0.00    +0.000 A 
ATOM     19  C   UNL     1     110.251 127.780 142.039  0.00  0.00    +0.000 A 
ATOM     20  C   UNL     1     110.697 127.268 140.718  0.00  0.00    +0.000 A 
ATOM     21  C   UNL     1     110.879 127.649 141.466  0.00  0.00    +0.000 A 
BRANCH  20  22
ATOM     22  C   UNL     1     111.293 127.138 140.162  0.00  0.00    +0.000 A 
ATOM     23  C   UNL     1     112.483 126.878 139.051  0.00  0.00    +0.000 A 
ATOM     24  C   UNL     1     111.886 126.585 140.315  0.00  0.00    +0.000 A 
ATOM     25  C   UNL     1     111.295 127.561 139.454  0.00  0.00    +0.000 A 
ATOM     26  C   UNL     1     112.481 126.455 139.759  0.00  0.00    +0.000 A 
ATOM     27  C   UNL     1     111.890 127.431 138.899  0.00  0.00    +0.000 A 
BRANCH  23  28
ATOM     28  O   UNL     1     113.079 126.748 138.495  0.00  0.00    +0.000 OA
BRANCH  28  37
ATOM     29  O   UNL     1     112.389 125.789 137.692  0.00  0.00    +0.000 OA
ATOM     30  O   UNL     1     114.486 124.503 137.424  0.00  0.00    +0.000 OA
ATOM     31  O   UNL     1     113.096 123.972 136.711  0.00  0.00    +0.000 OA
ATOM     32  O   UNL     1     114.478 125.891 138.316  0.00  0.00    +0.000 OA
ATOM     33  C   UNL     1     113.787 124.932 137.513  0.00  0.00    +0.000 C 
ATOM     34  C   UNL     1     113.092 124.666 137.157  0.00  0.00    +0.000 C 
ATOM     35  C   UNL     1     113.783 125.626 137.959  0.00  0.00    +0.000 C 
ATOM     36  C   UNL     1     112.393 125.094 137.246  0.00  0.00    +0.000 C 
ATOM     37  C   UNL     1     113.084 126.055 138.049  0.00  0.00    +0.000 C 
BRANCH  36  39
ATOM     38  O   UNL     1     111.281 125.325 136.378  0.00  0.00    +0.000 OA
ATOM     39  C   UNL     1     111.698 124.829 136.889  0.00  0.00    +0.000 C 
ENDBRANCH  36  39
ENDBRANCH  28  37
ENDBRANCH  23  28
ENDBRANCH  20  22
ENDBRANCH   6  13
BRANCH   8  41
ATOM     40  O   UNL     1     106.729 125.828 144.499  0.00  0.00    +0.000 OA
ATOM     41  C   UNL     1     106.702 126.643 144.623  0.00  0.00    +0.000 C 
ENDBRANCH   8  41
BRANCH   4  42
ATOM     42  O   UNL     1     107.063 128.709 142.076  0.00  0.00    +0.000 OA
BRANCH  42  47
ATOM     43  O   UNL     1     107.423 129.843 142.868  0.00  0.00    +0.000 OA
ATOM     44  O   UNL     1     106.313 129.705 140.994  0.00  0.00    +0.000 OA
ATOM     45  O   UNL     1     106.299 131.335 141.245  0.00  0.00    +0.000 OA
ATOM     46  O   UNL     1     107.034 131.971 142.579  0.00  0.00    +0.000 OA
ATOM     47  C   UNL     1     107.055 129.526 142.201  0.00  0.00    +0.000 C 
ATOM     48  C   UNL     1     106.681 130.023 141.660  0.00  0.00    +0.000 C 
ATOM     49  C   UNL     1     106.673 130.838 141.786  0.00  0.00    +0.000 C 
ATOM     50  C   UNL     1     107.041 131.156 142.453  0.00  0.00    +0.000 C 
ATOM     51  C   UNL     1     107.416 130.659 142.994  0.00  0.00    +0.000 C 
BRANCH  51  52
ATOM     52  C   UNL     1     107.784 130.976 143.661  0.00  0.00    +0.000 C 
BRANCH  52  53
ATOM     53  O   UNL     1     108.570 130.786 143.827  0.00  0.00    +0.000 OA
BRANCH  53  55
ATOM     54  O   UNL     1     108.493 130.726 145.253  0.00  0.00    +0.000 OA
ATOM     55  C   UNL     1     108.888 130.962 144.568  0.00  0.00    +0.000 C 
BRANCH  55  56
ATOM     56  C   UNL     1     109.601 131.374 144.623  0.00  0.00    +0.000 C 
ATOM     57  C   UNL     1     110.157 131.160 145.193  0.00  0.00    +0.000 C 
BRANCH  57  59
ATOM     58  O   UNL     1     113.008 132.807 145.413  0.00  0.00    +0.000 OA
ATOM     59  C   UNL     1     110.870 131.573 145.248  0.00  0.00    +0.000 A 
ATOM     60  C   UNL     1     110.979 132.131 145.846  0.00  0.00    +0.000 A 
ATOM     61  C   UNL     1     111.473 131.426 144.705  0.00  0.00    +0.000 A 
ATOM     62  C   UNL     1     111.692 132.542 145.901  0.00  0.00    +0.000 A 
ATOM     63  C   UNL     1     112.186 131.838 144.761  0.00  0.00    +0.000 A 
ATOM     64  C   UNL     1     112.295 132.396 145.358  0.00  0.00    +0.000 A 
BRANCH  62  65
ATOM     65  O   UNL     1     111.801 133.100 146.498  0.00  0.00    +0.000 OA
ATOM     66  C   UNL     1     111.222 133.204 147.077  0.00  0.00    +0.000 C 
ENDBRANCH  62  65
ENDBRANCH  57  59
ENDBRANCH  55  56
ENDBRANCH  53  55
ENDBRANCH  52  53
ENDBRANCH  51  52
ENDBRANCH  42  47
ENDBRANCH   4  42
TORSDOF 14
ENDMDL
MODEL 10
REMARK VINA RESULT:     -10.3      3.163      5.833
REMARK  Name = 131752283
REMARK  14 active torsions:
REMARK  status: ('A' for Active; 'I' for Inactive)
REMARK    1  A    between atoms: O_1  and  C_24
REMARK    2  A    between atoms: O_1  and  C_29
REMARK    3  A    between atoms: O_10  and  C_36
REMARK    4  A    between atoms: O_10  and  C_51
REMARK    5  A    between atoms: O_15  and  C_46
REMARK    6  A    between atoms: O_15  and  C_53
REMARK    7  A    between atoms: O_22  and  C_63
REMARK    8  A    between atoms: C_26  and  C_34
REMARK    9  A    between atoms: C_28  and  C_35
REMARK   10  A    between atoms: C_33  and  C_36
REMARK   11  A    between atoms: C_45  and  C_48
REMARK   12  A    between atoms: C_49  and  C_52
REMARK   13  A    between atoms: C_51  and  C_58
REMARK   14  A    between atoms: C_59  and  C_60
REMARK                            x       y       z     vdW  Elec       q    Type
REMARK                         _______ _______ _______ _____ _____    ______ ____
ROOT
ATOM      1  O   UNL     1     112.683 130.014 141.593  0.00  0.00    +0.000 OA
ATOM      2  O   UNL     1     114.329 128.702 140.292  0.00  0.00    +0.000 OA
ATOM      3  O   UNL     1     114.663 130.263 140.708  0.00  0.00    +0.000 OA
ATOM      4  C   UNL     1     113.065 128.796 140.951  0.00  0.00    +0.000 C 
ATOM      5  C   UNL     1     113.781 129.139 140.725  0.00  0.00    +0.000 C 
ATOM      6  C   UNL     1     112.516 129.233 141.385  0.00  0.00    +0.000 C 
ATOM      7  C   UNL     1     113.947 129.919 140.934  0.00  0.00    +0.000 C 
ATOM      8  C   UNL     1     113.398 130.357 141.368  0.00  0.00    +0.000 C 
ENDROOT
BRANCH   6  13
ATOM      9  O   UNL     1     111.130 129.601 140.568  0.00  0.00    +0.000 OA
ATOM     10  O   UNL     1     112.472 128.180 142.654  0.00  0.00    +0.000 OA
ATOM     11  O   UNL     1     109.631 127.841 142.309  0.00  0.00    +0.000 OA
ATOM     12  O   UNL     1     109.709 129.458 140.362  0.00  0.00    +0.000 OA
ATOM     13  C   UNL     1     111.800 128.890 141.611  0.00  0.00    +0.000 A 
ATOM     14  C   UNL     1     111.108 129.074 141.203  0.00  0.00    +0.000 A 
ATOM     15  C   UNL     1     111.778 128.364 142.245  0.00  0.00    +0.000 A 
ATOM     16  C   UNL     1     110.392 128.731 141.429  0.00  0.00    +0.000 A 
ATOM     17  C   UNL     1     111.063 128.020 142.472  0.00  0.00    +0.000 A 
ATOM     18  C   UNL     1     110.370 128.205 142.063  0.00  0.00    +0.000 A 
ATOM     19  C   UNL     1     109.678 128.931 140.996  0.00  0.00    +0.000 A 
ATOM     20  C   UNL     1     108.906 128.028 141.888  0.00  0.00    +0.000 A 
ATOM     21  C   UNL     1     108.929 128.577 141.227  0.00  0.00    +0.000 A 
BRANCH  20  22
ATOM     22  C   UNL     1     108.191 127.683 142.117  0.00  0.00    +0.000 A 
ATOM     23  C   UNL     1     106.765 126.995 142.575  0.00  0.00    +0.000 A 
ATOM     24  C   UNL     1     108.034 126.896 141.927  0.00  0.00    +0.000 A 
ATOM     25  C   UNL     1     107.636 128.126 142.536  0.00  0.00    +0.000 A 
ATOM     26  C   UNL     1     107.320 126.552 142.156  0.00  0.00    +0.000 A 
ATOM     27  C   UNL     1     106.923 127.782 142.765  0.00  0.00    +0.000 A 
BRANCH  23  28
ATOM     28  O   UNL     1     106.051 126.651 142.805  0.00  0.00    +0.000 OA
BRANCH  28  37
ATOM     29  O   UNL     1     106.300 126.442 144.196  0.00  0.00    +0.000 OA
ATOM     30  O   UNL     1     105.380 124.152 144.018  0.00  0.00    +0.000 OA
ATOM     31  O   UNL     1     105.935 124.707 145.469  0.00  0.00    +0.000 OA
ATOM     32  O   UNL     1     105.437 125.124 142.685  0.00  0.00    +0.000 OA
ATOM     33  C   UNL     1     105.686 124.915 144.077  0.00  0.00    +0.000 C 
ATOM     34  C   UNL     1     105.964 125.193 144.803  0.00  0.00    +0.000 C 
ATOM     35  C   UNL     1     105.715 125.401 143.411  0.00  0.00    +0.000 C 
ATOM     36  C   UNL     1     106.271 125.956 144.862  0.00  0.00    +0.000 C 
ATOM     37  C   UNL     1     106.022 126.165 143.470  0.00  0.00    +0.000 C 
BRANCH  36  39
ATOM     38  O   UNL     1     106.287 126.960 145.879  0.00  0.00    +0.000 OA
ATOM     39  C   UNL     1     106.549 126.233 145.588  0.00  0.00    +0.000 C 
ENDBRANCH  36  39
ENDBRANCH  28  37
ENDBRANCH  23  28
ENDBRANCH  20  22
ENDBRANCH   6  13
BRANCH   8  41
ATOM     40  O   UNL     1     113.231 131.463 142.257  0.00  0.00    +0.000 OA
ATOM     41  C   UNL     1     113.565 131.138 141.576  0.00  0.00    +0.000 C 
ENDBRANCH   8  41
BRANCH   4  42
ATOM     42  O   UNL     1     112.898 128.015 140.743  0.00  0.00    +0.000 OA
BRANCH  42  47
ATOM     43  O   UNL     1     112.791 128.257 139.339  0.00  0.00    +0.000 OA
ATOM     44  O   UNL     1     113.543 126.527 140.439  0.00  0.00    +0.000 OA
ATOM     45  O   UNL     1     113.758 126.025 138.882  0.00  0.00    +0.000 OA
ATOM     46  O   UNL     1     113.329 127.010 137.630  0.00  0.00    +0.000 OA
ATOM     47  C   UNL     1     113.006 127.764 139.964  0.00  0.00    +0.000 C 
ATOM     48  C   UNL     1     113.328 127.020 139.812  0.00  0.00    +0.000 C 
ATOM     49  C   UNL     1     113.436 126.769 139.034  0.00  0.00    +0.000 C 
ATOM     50  C   UNL     1     113.221 127.261 138.407  0.00  0.00    +0.000 C 
ATOM     51  C   UNL     1     112.899 128.005 138.560  0.00  0.00    +0.000 C 
BRANCH  51  52
ATOM     52  C   UNL     1     112.684 128.498 137.934  0.00  0.00    +0.000 C 
BRANCH  52  53
ATOM     53  O   UNL     1     111.906 128.765 137.868  0.00  0.00    +0.000 OA
BRANCH  53  55
ATOM     54  O   UNL     1     112.302 129.816 136.985  0.00  0.00    +0.000 OA
ATOM     55  C   UNL     1     111.713 129.336 137.306  0.00  0.00    +0.000 C 
BRANCH  55  56
ATOM     56  C   UNL     1     110.928 129.429 137.065  0.00  0.00    +0.000 C 
ATOM     57  C   UNL     1     110.661 130.165 136.806  0.00  0.00    +0.000 C 
BRANCH  57  59
ATOM     58  O   UNL     1     107.527 130.535 135.842  0.00  0.00    +0.000 OA
ATOM     59  C   UNL     1     109.877 130.258 136.565  0.00  0.00    +0.000 A 
ATOM     60  C   UNL     1     109.371 130.754 136.988  0.00  0.00    +0.000 A 
ATOM     61  C   UNL     1     109.600 129.854 135.901  0.00  0.00    +0.000 A 
ATOM     62  C   UNL     1     108.588 130.846 136.747  0.00  0.00    +0.000 A 
ATOM     63  C   UNL     1     108.817 129.947 135.661  0.00  0.00    +0.000 A 
ATOM     64  C   UNL     1     108.311 130.443 136.083  0.00  0.00    +0.000 A 
BRANCH  62  65
ATOM     65  O   UNL     1     108.082 131.342 137.169  0.00  0.00    +0.000 OA
ATOM     66  C   UNL     1     108.392 131.949 137.633  0.00  0.00    +0.000 C 
ENDBRANCH  62  65
ENDBRANCH  57  59
ENDBRANCH  55  56
ENDBRANCH  53  55
ENDBRANCH  52  53
ENDBRANCH  51  52
ENDBRANCH  42  47
ENDBRANCH   4  42
TORSDOF 14
ENDMDL
