MODEL 1
REMARK VINA RESULT:      -9.9      0.000      0.000
REMARK  Name = 131833592
REMARK  2 active torsions:
REMARK  status: ('A' for Active; 'I' for Inactive)
REMARK    1  A    between atoms: C_10  and  C_14
REMARK    2  A    between atoms: C_21  and  C_23
REMARK                            x       y       z     vdW  Elec       q    Type
REMARK                         _______ _______ _______ _____ _____    ______ ____
ROOT
ATOM      1  O   UNL     1     112.746 126.355 136.448  0.00  0.00    +0.000 OA
ATOM      2  O   UNL     1     111.370 123.827 136.333  0.00  0.00    +0.000 OA
ATOM      3  O   UNL     1     114.078 123.912 137.245  0.00  0.00    +0.000 OA
ATOM      4  O   UNL     1     114.801 125.158 137.317  0.00  0.00    +0.000 OA
ATOM      5  C   UNL     1     112.064 125.074 136.395  0.00  0.00    +0.000 A 
ATOM      6  C   UNL     1     112.747 125.504 136.568  0.00  0.00    +0.000 A 
ATOM      7  C   UNL     1     112.053 124.257 136.506  0.00  0.00    +0.000 A 
ATOM      8  C   UNL     1     113.418 125.116 136.851  0.00  0.00    +0.000 A 
ATOM      9  C   UNL     1     112.724 123.870 136.789  0.00  0.00    +0.000 A 
ATOM     10  C   UNL     1     113.406 124.299 136.962  0.00  0.00    +0.000 A 
ATOM     11  C   UNL     1     114.135 125.554 137.034  0.00  0.00    +0.000 A 
ATOM     12  C   UNL     1     113.454 126.808 136.626  0.00  0.00    +0.000 A 
ATOM     13  C   UNL     1     114.153 126.405 136.921  0.00  0.00    +0.000 A 
ENDROOT
BRANCH   5  19
ATOM     14  O   UNL     1     111.323 125.631 135.308  0.00  0.00    +0.000 OA
ATOM     15  O   UNL     1     110.862 125.509 137.438  0.00  0.00    +0.000 OA
ATOM     16  O   UNL     1     109.520 126.284 136.871  0.00  0.00    +0.000 OA
ATOM     17  O   UNL     1     109.380 126.623 135.262  0.00  0.00    +0.000 OA
ATOM     18  C   UNL     1     110.792 125.679 136.633  0.00  0.00    +0.000 C 
ATOM     19  C   UNL     1     111.394 125.461 136.112  0.00  0.00    +0.000 C 
ATOM     20  C   UNL     1     110.121 126.066 136.349  0.00  0.00    +0.000 C 
ATOM     21  C   UNL     1     110.051 126.236 135.546  0.00  0.00    +0.000 C 
ATOM     22  C   UNL     1     110.652 126.018 135.025  0.00  0.00    +0.000 C 
ENDBRANCH   5  19
BRANCH  12  23
ATOM     23  C   UNL     1     113.463 127.626 136.515  0.00  0.00    +0.000 A 
ATOM     24  C   UNL     1     113.753 127.943 135.811  0.00  0.00    +0.000 A 
ATOM     25  C   UNL     1     113.181 128.126 137.107  0.00  0.00    +0.000 A 
ATOM     26  C   UNL     1     113.761 128.761 135.700  0.00  0.00    +0.000 A 
ATOM     27  C   UNL     1     113.189 128.944 136.996  0.00  0.00    +0.000 A 
ATOM     28  C   UNL     1     113.480 129.261 136.292  0.00  0.00    +0.000 A 
ENDBRANCH  12  23
TORSDOF 2
ENDMDL
MODEL 2
REMARK VINA RESULT:      -9.8      1.041      3.265
REMARK  Name = 131833592
REMARK  2 active torsions:
REMARK  status: ('A' for Active; 'I' for Inactive)
REMARK    1  A    between atoms: C_10  and  C_14
REMARK    2  A    between atoms: C_21  and  C_23
REMARK                            x       y       z     vdW  Elec       q    Type
REMARK                         _______ _______ _______ _____ _____    ______ ____
ROOT
ATOM      1  O   UNL     1     111.995 125.855 136.343  0.00  0.00    +0.000 OA
ATOM      2  O   UNL     1     114.625 125.945 137.514  0.00  0.00    +0.000 OA
ATOM      3  O   UNL     1     113.356 123.417 137.104  0.00  0.00    +0.000 OA
ATOM      4  O   UNL     1     112.040 123.330 136.521  0.00  0.00    +0.000 OA
ATOM      5  C   UNL     1     113.321 125.887 136.934  0.00  0.00    +0.000 A 
ATOM      6  C   UNL     1     112.675 125.446 136.673  0.00  0.00    +0.000 A 
ATOM      7  C   UNL     1     113.978 125.504 137.253  0.00  0.00    +0.000 A 
ATOM      8  C   UNL     1     112.686 124.623 136.729  0.00  0.00    +0.000 A 
ATOM      9  C   UNL     1     113.990 124.681 137.309  0.00  0.00    +0.000 A 
ATOM     10  C   UNL     1     113.344 124.241 137.048  0.00  0.00    +0.000 A 
ATOM     11  C   UNL     1     112.019 124.153 136.460  0.00  0.00    +0.000 A 
ATOM     12  C   UNL     1     111.319 125.402 136.069  0.00  0.00    +0.000 A 
ATOM     13  C   UNL     1     111.331 124.545 136.128  0.00  0.00    +0.000 A 
ENDROOT
BRANCH   5  19
ATOM     14  O   UNL     1     113.505 127.077 136.166  0.00  0.00    +0.000 OA
ATOM     15  O   UNL     1     112.905 126.797 138.246  0.00  0.00    +0.000 OA
ATOM     16  O   UNL     1     112.882 128.443 138.133  0.00  0.00    +0.000 OA
ATOM     17  O   UNL     1     113.274 129.179 136.708  0.00  0.00    +0.000 OA
ATOM     18  C   UNL     1     113.101 127.165 137.533  0.00  0.00    +0.000 C 
ATOM     19  C   UNL     1     113.309 126.709 136.878  0.00  0.00    +0.000 C 
ATOM     20  C   UNL     1     113.090 127.988 137.477  0.00  0.00    +0.000 C 
ATOM     21  C   UNL     1     113.286 128.355 136.765  0.00  0.00    +0.000 C 
ATOM     22  C   UNL     1     113.493 127.900 136.110  0.00  0.00    +0.000 C 
ENDBRANCH   5  19
BRANCH  12  23
ATOM     23  C   UNL     1     110.662 125.787 135.751  0.00  0.00    +0.000 A 
ATOM     24  C   UNL     1     110.101 126.127 136.251  0.00  0.00    +0.000 A 
ATOM     25  C   UNL     1     110.566 125.831 134.933  0.00  0.00    +0.000 A 
ATOM     26  C   UNL     1     109.444 126.512 135.933  0.00  0.00    +0.000 A 
ATOM     27  C   UNL     1     109.909 126.216 134.614  0.00  0.00    +0.000 A 
ATOM     28  C   UNL     1     109.348 126.557 135.115  0.00  0.00    +0.000 A 
ENDBRANCH  12  23
TORSDOF 2
ENDMDL
MODEL 3
REMARK VINA RESULT:      -9.7      1.502      3.591
REMARK  Name = 131833592
REMARK  2 active torsions:
REMARK  status: ('A' for Active; 'I' for Inactive)
REMARK    1  A    between atoms: C_10  and  C_14
REMARK    2  A    between atoms: C_21  and  C_23
REMARK                            x       y       z     vdW  Elec       q    Type
REMARK                         _______ _______ _______ _____ _____    ______ ____
ROOT
ATOM      1  O   UNL     1     112.392 126.518 136.216  0.00  0.00    +0.000 OA
ATOM      2  O   UNL     1     110.613 128.428 134.997  0.00  0.00    +0.000 OA
ATOM      3  O   UNL     1     109.897 125.661 135.025  0.00  0.00    +0.000 OA
ATOM      4  O   UNL     1     110.760 124.674 135.625  0.00  0.00    +0.000 OA
ATOM      5  C   UNL     1     111.486 127.470 135.598  0.00  0.00    +0.000 A 
ATOM      6  C   UNL     1     111.658 126.690 135.803  0.00  0.00    +0.000 A 
ATOM      7  C   UNL     1     110.785 127.647 135.203  0.00  0.00    +0.000 A 
ATOM      8  C   UNL     1     111.128 126.087 135.612  0.00  0.00    +0.000 A 
ATOM      9  C   UNL     1     110.255 127.044 135.012  0.00  0.00    +0.000 A 
ATOM     10  C   UNL     1     110.427 126.264 135.217  0.00  0.00    +0.000 A 
ATOM     11  C   UNL     1     111.296 125.270 135.821  0.00  0.00    +0.000 A 
ATOM     12  C   UNL     1     112.577 125.707 136.432  0.00  0.00    +0.000 A 
ATOM     13  C   UNL     1     112.025 125.079 136.233  0.00  0.00    +0.000 A 
ENDROOT
BRANCH   5  19
ATOM     14  O   UNL     1     112.663 128.223 135.301  0.00  0.00    +0.000 OA
ATOM     15  O   UNL     1     111.250 128.376 136.957  0.00  0.00    +0.000 OA
ATOM     16  O   UNL     1     112.309 129.582 137.339  0.00  0.00    +0.000 OA
ATOM     17  O   UNL     1     113.605 129.882 136.362  0.00  0.00    +0.000 OA
ATOM     18  C   UNL     1     111.898 128.526 136.468  0.00  0.00    +0.000 C 
ATOM     19  C   UNL     1     112.015 128.073 135.789  0.00  0.00    +0.000 C 
ATOM     20  C   UNL     1     112.428 129.129 136.659  0.00  0.00    +0.000 C 
ATOM     21  C   UNL     1     113.075 129.279 136.171  0.00  0.00    +0.000 C 
ATOM     22  C   UNL     1     113.193 128.826 135.492  0.00  0.00    +0.000 C 
ENDBRANCH   5  19
BRANCH  12  23
ATOM     23  C   UNL     1     113.279 125.532 136.828  0.00  0.00    +0.000 A 
ATOM     24  C   UNL     1     113.323 125.615 137.647  0.00  0.00    +0.000 A 
ATOM     25  C   UNL     1     113.938 125.274 136.404  0.00  0.00    +0.000 A 
ATOM     26  C   UNL     1     114.025 125.441 138.043  0.00  0.00    +0.000 A 
ATOM     27  C   UNL     1     114.641 125.100 136.799  0.00  0.00    +0.000 A 
ATOM     28  C   UNL     1     114.684 125.183 137.619  0.00  0.00    +0.000 A 
ENDBRANCH  12  23
TORSDOF 2
ENDMDL
MODEL 4
REMARK VINA RESULT:      -9.6     11.727     13.124
REMARK  Name = 131833592
REMARK  2 active torsions:
REMARK  status: ('A' for Active; 'I' for Inactive)
REMARK    1  A    between atoms: C_10  and  C_14
REMARK    2  A    between atoms: C_21  and  C_23
REMARK                            x       y       z     vdW  Elec       q    Type
REMARK                         _______ _______ _______ _____ _____    ______ ____
ROOT
ATOM      1  O   UNL     1     105.104 125.115 147.404  0.00  0.00    +0.000 OA
ATOM      2  O   UNL     1     107.816 125.743 146.659  0.00  0.00    +0.000 OA
ATOM      3  O   UNL     1     107.300 124.541 149.202  0.00  0.00    +0.000 OA
ATOM      4  O   UNL     1     105.957 124.212 149.611  0.00  0.00    +0.000 OA
ATOM      5  C   UNL     1     106.476 125.426 147.041  0.00  0.00    +0.000 A 
ATOM      6  C   UNL     1     105.943 125.121 147.592  0.00  0.00    +0.000 A 
ATOM      7  C   UNL     1     107.283 125.437 147.211  0.00  0.00    +0.000 A 
ATOM      8  C   UNL     1     106.218 124.826 148.312  0.00  0.00    +0.000 A 
ATOM      9  C   UNL     1     107.557 125.142 147.931  0.00  0.00    +0.000 A 
ATOM     10  C   UNL     1     107.025 124.837 148.481  0.00  0.00    +0.000 A 
ATOM     11  C   UNL     1     105.673 124.505 148.894  0.00  0.00    +0.000 A 
ATOM     12  C   UNL     1     104.545 124.798 147.974  0.00  0.00    +0.000 A 
ATOM     13  C   UNL     1     104.831 124.491 148.723  0.00  0.00    +0.000 A 
ENDROOT
BRANCH   5  19
ATOM     14  O   UNL     1     105.895 126.486 146.279  0.00  0.00    +0.000 OA
ATOM     15  O   UNL     1     106.539 124.486 145.687  0.00  0.00    +0.000 OA
ATOM     16  O   UNL     1     105.989 125.075 144.248  0.00  0.00    +0.000 OA
ATOM     17  O   UNL     1     105.377 126.606 144.161  0.00  0.00    +0.000 OA
ATOM     18  C   UNL     1     106.232 125.251 145.644  0.00  0.00    +0.000 C 
ATOM     19  C   UNL     1     106.201 125.721 146.322  0.00  0.00    +0.000 C 
ATOM     20  C   UNL     1     105.958 125.546 144.925  0.00  0.00    +0.000 C 
ATOM     21  C   UNL     1     105.652 126.310 144.882  0.00  0.00    +0.000 C 
ATOM     22  C   UNL     1     105.621 126.780 145.559  0.00  0.00    +0.000 C 
ENDBRANCH   5  19
BRANCH  12  23
ATOM     23  C   UNL     1     103.738 124.788 147.802  0.00  0.00    +0.000 A 
ATOM     24  C   UNL     1     103.250 125.392 148.080  0.00  0.00    +0.000 A 
ATOM     25  C   UNL     1     103.420 124.174 147.352  0.00  0.00    +0.000 A 
ATOM     26  C   UNL     1     102.443 125.382 147.908  0.00  0.00    +0.000 A 
ATOM     27  C   UNL     1     102.612 124.164 147.180  0.00  0.00    +0.000 A 
ATOM     28  C   UNL     1     102.124 124.768 147.458  0.00  0.00    +0.000 A 
ENDBRANCH  12  23
TORSDOF 2
ENDMDL
MODEL 5
REMARK VINA RESULT:      -9.4      1.801      3.700
REMARK  Name = 131833592
REMARK  2 active torsions:
REMARK  status: ('A' for Active; 'I' for Inactive)
REMARK    1  A    between atoms: C_10  and  C_14
REMARK    2  A    between atoms: C_21  and  C_23
REMARK                            x       y       z     vdW  Elec       q    Type
REMARK                         _______ _______ _______ _____ _____    ______ ____
ROOT
ATOM      1  O   UNL     1     111.904 125.945 137.365  0.00  0.00    +0.000 OA
ATOM      2  O   UNL     1     109.502 127.180 138.369  0.00  0.00    +0.000 OA
ATOM      3  O   UNL     1     109.497 126.013 135.759  0.00  0.00    +0.000 OA
ATOM      4  O   UNL     1     110.679 125.386 135.221  0.00  0.00    +0.000 OA
ATOM      5  C   UNL     1     110.686 126.564 137.859  0.00  0.00    +0.000 A 
ATOM      6  C   UNL     1     111.080 126.165 137.254  0.00  0.00    +0.000 A 
ATOM      7  C   UNL     1     109.896 126.780 137.763  0.00  0.00    +0.000 A 
ATOM      8  C   UNL     1     110.683 125.981 136.554  0.00  0.00    +0.000 A 
ATOM      9  C   UNL     1     109.500 126.596 137.064  0.00  0.00    +0.000 A 
ATOM     10  C   UNL     1     109.894 126.197 136.459  0.00  0.00    +0.000 A 
ATOM     11  C   UNL     1     111.083 125.565 135.917  0.00  0.00    +0.000 A 
ATOM     12  C   UNL     1     112.319 125.529 136.739  0.00  0.00    +0.000 A 
ATOM     13  C   UNL     1     111.906 125.338 136.010  0.00  0.00    +0.000 A 
ENDROOT
BRANCH   5  19
ATOM     14  O   UNL     1     111.551 127.425 138.601  0.00  0.00    +0.000 OA
ATOM     15  O   UNL     1     110.541 125.576 139.172  0.00  0.00    +0.000 OA
ATOM     16  O   UNL     1     111.334 125.943 140.572  0.00  0.00    +0.000 OA
ATOM     17  O   UNL     1     112.272 127.299 140.658  0.00  0.00    +0.000 OA
ATOM     18  C   UNL     1     111.010 126.254 139.215  0.00  0.00    +0.000 C 
ATOM     19  C   UNL     1     111.082 126.747 138.558  0.00  0.00    +0.000 C 
ATOM     20  C   UNL     1     111.407 126.438 139.915  0.00  0.00    +0.000 C 
ATOM     21  C   UNL     1     111.875 127.115 139.958  0.00  0.00    +0.000 C 
ATOM     22  C   UNL     1     111.948 127.608 139.301  0.00  0.00    +0.000 C 
ENDBRANCH   5  19
BRANCH  12  23
ATOM     23  C   UNL     1     113.110 125.314 136.837  0.00  0.00    +0.000 A 
ATOM     24  C   UNL     1     113.301 124.585 137.170  0.00  0.00    +0.000 A 
ATOM     25  C   UNL     1     113.709 125.829 136.601  0.00  0.00    +0.000 A 
ATOM     26  C   UNL     1     114.092 124.370 137.267  0.00  0.00    +0.000 A 
ATOM     27  C   UNL     1     114.501 125.615 136.698  0.00  0.00    +0.000 A 
ATOM     28  C   UNL     1     114.692 124.885 137.032  0.00  0.00    +0.000 A 
ENDBRANCH  12  23
TORSDOF 2
ENDMDL
MODEL 6
REMARK VINA RESULT:      -9.4      1.041      3.162
REMARK  Name = 131833592
REMARK  2 active torsions:
REMARK  status: ('A' for Active; 'I' for Inactive)
REMARK    1  A    between atoms: C_10  and  C_14
REMARK    2  A    between atoms: C_21  and  C_23
REMARK                            x       y       z     vdW  Elec       q    Type
REMARK                         _______ _______ _______ _____ _____    ______ ____
ROOT
ATOM      1  O   UNL     1     112.444 126.899 136.304  0.00  0.00    +0.000 OA
ATOM      2  O   UNL     1     112.007 124.118 136.915  0.00  0.00    +0.000 OA
ATOM      3  O   UNL     1     110.198 125.472 135.165  0.00  0.00    +0.000 OA
ATOM      4  O   UNL     1     110.382 126.864 134.834  0.00  0.00    +0.000 OA
ATOM      5  C   UNL     1     112.213 125.497 136.604  0.00  0.00    +0.000 A 
ATOM      6  C   UNL     1     111.979 126.183 136.208  0.00  0.00    +0.000 A 
ATOM      7  C   UNL     1     111.774 124.804 136.519  0.00  0.00    +0.000 A 
ATOM      8  C   UNL     1     111.308 126.174 135.729  0.00  0.00    +0.000 A 
ATOM      9  C   UNL     1     111.103 124.796 136.040  0.00  0.00    +0.000 A 
ATOM     10  C   UNL     1     110.870 125.481 135.645  0.00  0.00    +0.000 A 
ATOM     11  C   UNL     1     111.055 126.882 135.312  0.00  0.00    +0.000 A 
ATOM     12  C   UNL     1     112.206 127.616 135.895  0.00  0.00    +0.000 A 
ATOM     13  C   UNL     1     111.507 127.608 135.395  0.00  0.00    +0.000 A 
ENDROOT
BRANCH   5  19
ATOM     14  O   UNL     1     112.839 125.804 137.850  0.00  0.00    +0.000 OA
ATOM     15  O   UNL     1     113.645 124.918 136.026  0.00  0.00    +0.000 OA
ATOM     16  O   UNL     1     114.988 124.935 136.985  0.00  0.00    +0.000 OA
ATOM     17  O   UNL     1     114.898 125.531 138.521  0.00  0.00    +0.000 OA
ATOM     18  C   UNL     1     113.600 125.216 136.795  0.00  0.00    +0.000 C 
ATOM     19  C   UNL     1     112.883 125.506 137.082  0.00  0.00    +0.000 C 
ATOM     20  C   UNL     1     114.271 125.225 137.274  0.00  0.00    +0.000 C 
ATOM     21  C   UNL     1     114.226 125.522 138.041  0.00  0.00    +0.000 C 
ATOM     22  C   UNL     1     113.510 125.812 138.330  0.00  0.00    +0.000 C 
ENDBRANCH   5  19
BRANCH  12  23
ATOM     23  C   UNL     1     112.646 128.309 135.980  0.00  0.00    +0.000 A 
ATOM     24  C   UNL     1     112.430 128.868 136.547  0.00  0.00    +0.000 A 
ATOM     25  C   UNL     1     113.303 128.442 135.499  0.00  0.00    +0.000 A 
ATOM     26  C   UNL     1     112.870 129.560 136.633  0.00  0.00    +0.000 A 
ATOM     27  C   UNL     1     113.744 129.135 135.585  0.00  0.00    +0.000 A 
ATOM     28  C   UNL     1     113.527 129.694 136.152  0.00  0.00    +0.000 A 
ENDBRANCH  12  23
TORSDOF 2
ENDMDL
MODEL 7
REMARK VINA RESULT:      -9.4      1.874      2.453
REMARK  Name = 131833592
REMARK  2 active torsions:
REMARK  status: ('A' for Active; 'I' for Inactive)
REMARK    1  A    between atoms: C_10  and  C_14
REMARK    2  A    between atoms: C_21  and  C_23
REMARK                            x       y       z     vdW  Elec       q    Type
REMARK                         _______ _______ _______ _____ _____    ______ ____
ROOT
ATOM      1  O   UNL     1     112.692 126.066 138.513  0.00  0.00    +0.000 OA
ATOM      2  O   UNL     1     111.159 124.424 136.709  0.00  0.00    +0.000 OA
ATOM      3  O   UNL     1     114.013 124.283 136.654  0.00  0.00    +0.000 OA
ATOM      4  O   UNL     1     114.816 125.089 137.541  0.00  0.00    +0.000 OA
ATOM      5  C   UNL     1     111.931 125.233 137.599  0.00  0.00    +0.000 A 
ATOM      6  C   UNL     1     112.664 125.479 137.886  0.00  0.00    +0.000 A 
ATOM      7  C   UNL     1     111.892 124.670 136.997  0.00  0.00    +0.000 A 
ATOM      8  C   UNL     1     113.358 125.162 137.571  0.00  0.00    +0.000 A 
ATOM      9  C   UNL     1     112.586 124.354 136.682  0.00  0.00    +0.000 A 
ATOM     10  C   UNL     1     113.319 124.600 136.969  0.00  0.00    +0.000 A 
ATOM     11  C   UNL     1     114.128 125.411 137.862  0.00  0.00    +0.000 A 
ATOM     12  C   UNL     1     113.453 126.326 138.816  0.00  0.00    +0.000 A 
ATOM     13  C   UNL     1     114.175 125.997 138.489  0.00  0.00    +0.000 A 
ENDROOT
BRANCH   5  19
ATOM     14  O   UNL     1     110.934 125.255 138.622  0.00  0.00    +0.000 OA
ATOM     15  O   UNL     1     111.150 126.454 136.811  0.00  0.00    +0.000 OA
ATOM     16  O   UNL     1     109.763 127.087 137.440  0.00  0.00    +0.000 OA
ATOM     17  O   UNL     1     109.156 126.499 138.858  0.00  0.00    +0.000 OA
ATOM     18  C   UNL     1     110.847 126.159 137.520  0.00  0.00    +0.000 C 
ATOM     19  C   UNL     1     111.238 125.549 137.913  0.00  0.00    +0.000 C 
ATOM     20  C   UNL     1     110.153 126.476 137.834  0.00  0.00    +0.000 C 
ATOM     21  C   UNL     1     109.850 126.182 138.543  0.00  0.00    +0.000 C 
ATOM     22  C   UNL     1     110.240 125.572 138.936  0.00  0.00    +0.000 C 
ENDBRANCH   5  19
BRANCH  12  23
ATOM     23  C   UNL     1     113.489 126.889 139.418  0.00  0.00    +0.000 A 
ATOM     24  C   UNL     1     113.585 126.650 140.202  0.00  0.00    +0.000 A 
ATOM     25  C   UNL     1     113.429 127.691 139.237  0.00  0.00    +0.000 A 
ATOM     26  C   UNL     1     113.621 127.213 140.804  0.00  0.00    +0.000 A 
ATOM     27  C   UNL     1     113.466 128.255 139.838  0.00  0.00    +0.000 A 
ATOM     28  C   UNL     1     113.561 128.016 140.622  0.00  0.00    +0.000 A 
ENDBRANCH  12  23
TORSDOF 2
ENDMDL
MODEL 8
REMARK VINA RESULT:      -9.4      1.864      3.064
REMARK  Name = 131833592
REMARK  2 active torsions:
REMARK  status: ('A' for Active; 'I' for Inactive)
REMARK    1  A    between atoms: C_10  and  C_14
REMARK    2  A    between atoms: C_21  and  C_23
REMARK                            x       y       z     vdW  Elec       q    Type
REMARK                         _______ _______ _______ _____ _____    ______ ____
ROOT
ATOM      1  O   UNL     1     111.703 126.213 137.133  0.00  0.00    +0.000 OA
ATOM      2  O   UNL     1     112.607 126.588 139.843  0.00  0.00    +0.000 OA
ATOM      3  O   UNL     1     114.421 125.560 137.887  0.00  0.00    +0.000 OA
ATOM      4  O   UNL     1     114.007 125.358 136.520  0.00  0.00    +0.000 OA
ATOM      5  C   UNL     1     112.171 126.397 138.496  0.00  0.00    +0.000 A 
ATOM      6  C   UNL     1     112.329 126.162 137.721  0.00  0.00    +0.000 A 
ATOM      7  C   UNL     1     112.764 126.353 139.067  0.00  0.00    +0.000 A 
ATOM      8  C   UNL     1     113.078 125.883 137.518  0.00  0.00    +0.000 A 
ATOM      9  C   UNL     1     113.514 126.074 138.865  0.00  0.00    +0.000 A 
ATOM     10  C   UNL     1     113.670 125.839 138.090  0.00  0.00    +0.000 A 
ATOM     11  C   UNL     1     113.254 125.635 136.714  0.00  0.00    +0.000 A 
ATOM     12  C   UNL     1     111.861 125.969 136.325  0.00  0.00    +0.000 A 
ATOM     13  C   UNL     1     112.641 125.679 136.114  0.00  0.00    +0.000 A 
ENDROOT
BRANCH   5  19
ATOM     14  O   UNL     1     111.227 127.466 138.568  0.00  0.00    +0.000 OA
ATOM     15  O   UNL     1     111.063 125.373 139.162  0.00  0.00    +0.000 OA
ATOM     16  O   UNL     1     109.564 125.931 139.567  0.00  0.00    +0.000 OA
ATOM     17  O   UNL     1     109.173 127.513 139.307  0.00  0.00    +0.000 OA
ATOM     18  C   UNL     1     110.868 126.164 139.031  0.00  0.00    +0.000 C 
ATOM     19  C   UNL     1     111.423 126.676 138.698  0.00  0.00    +0.000 C 
ATOM     20  C   UNL     1     110.118 126.443 139.234  0.00  0.00    +0.000 C 
ATOM     21  C   UNL     1     109.924 127.234 139.104  0.00  0.00    +0.000 C 
ATOM     22  C   UNL     1     110.478 127.745 138.771  0.00  0.00    +0.000 C 
ENDBRANCH   5  19
BRANCH  12  23
ATOM     23  C   UNL     1     111.267 126.015 135.754  0.00  0.00    +0.000 A 
ATOM     24  C   UNL     1     110.772 125.369 135.621  0.00  0.00    +0.000 A 
ATOM     25  C   UNL     1     111.167 126.707 135.316  0.00  0.00    +0.000 A 
ATOM     26  C   UNL     1     110.177 125.414 135.051  0.00  0.00    +0.000 A 
ATOM     27  C   UNL     1     110.572 126.753 134.745  0.00  0.00    +0.000 A 
ATOM     28  C   UNL     1     110.078 126.106 134.613  0.00  0.00    +0.000 A 
ENDBRANCH  12  23
TORSDOF 2
ENDMDL
MODEL 9
REMARK VINA RESULT:      -9.2      2.328      4.295
REMARK  Name = 131833592
REMARK  2 active torsions:
REMARK  status: ('A' for Active; 'I' for Inactive)
REMARK    1  A    between atoms: C_10  and  C_14
REMARK    2  A    between atoms: C_21  and  C_23
REMARK                            x       y       z     vdW  Elec       q    Type
REMARK                         _______ _______ _______ _____ _____    ______ ____
ROOT
ATOM      1  O   UNL     1     113.130 126.949 137.806  0.00  0.00    +0.000 OA
ATOM      2  O   UNL     1     112.175 129.259 139.238  0.00  0.00    +0.000 OA
ATOM      3  O   UNL     1     113.223 129.577 136.597  0.00  0.00    +0.000 OA
ATOM      4  O   UNL     1     113.711 128.446 135.848  0.00  0.00    +0.000 OA
ATOM      5  C   UNL     1     112.652 128.121 138.517  0.00  0.00    +0.000 A 
ATOM      6  C   UNL     1     112.985 127.796 137.836  0.00  0.00    +0.000 A 
ATOM      7  C   UNL     1     112.509 128.933 138.557  0.00  0.00    +0.000 A 
ATOM      8  C   UNL     1     113.176 128.281 137.197  0.00  0.00    +0.000 A 
ATOM      9  C   UNL     1     112.699 129.418 137.917  0.00  0.00    +0.000 A 
ATOM     10  C   UNL     1     113.033 129.092 137.238  0.00  0.00    +0.000 A 
ATOM     11  C   UNL     1     113.524 127.952 136.483  0.00  0.00    +0.000 A 
ATOM     12  C   UNL     1     113.477 126.603 137.100  0.00  0.00    +0.000 A 
ATOM     13  C   UNL     1     113.676 127.108 136.434  0.00  0.00    +0.000 A 
ENDROOT
BRANCH   5  19
ATOM     14  O   UNL     1     111.747 127.224 139.162  0.00  0.00    +0.000 OA
ATOM     15  O   UNL     1     113.699 127.978 139.783  0.00  0.00    +0.000 OA
ATOM     16  O   UNL     1     113.318 127.007 141.062  0.00  0.00    +0.000 OA
ATOM     17  O   UNL     1     111.889 126.181 141.075  0.00  0.00    +0.000 OA
ATOM     18  C   UNL     1     112.984 127.564 139.789  0.00  0.00    +0.000 C 
ATOM     19  C   UNL     1     112.461 127.637 139.155  0.00  0.00    +0.000 C 
ATOM     20  C   UNL     1     112.794 127.079 140.429  0.00  0.00    +0.000 C 
ATOM     21  C   UNL     1     112.080 126.667 140.434  0.00  0.00    +0.000 C 
ATOM     22  C   UNL     1     111.557 126.739 139.802  0.00  0.00    +0.000 C 
ENDBRANCH   5  19
BRANCH  12  23
ATOM     23  C   UNL     1     113.619 125.791 137.062  0.00  0.00    +0.000 A 
ATOM     24  C   UNL     1     114.331 125.483 137.343  0.00  0.00    +0.000 A 
ATOM     25  C   UNL     1     113.050 125.288 136.743  0.00  0.00    +0.000 A 
ATOM     26  C   UNL     1     114.473 124.671 137.305  0.00  0.00    +0.000 A 
ATOM     27  C   UNL     1     113.191 124.475 136.704  0.00  0.00    +0.000 A 
ATOM     28  C   UNL     1     113.903 124.167 136.986  0.00  0.00    +0.000 A 
ENDBRANCH  12  23
TORSDOF 2
ENDMDL
MODEL 10
REMARK VINA RESULT:      -9.1      2.529      5.203
REMARK  Name = 131833592
REMARK  2 active torsions:
REMARK  status: ('A' for Active; 'I' for Inactive)
REMARK    1  A    between atoms: C_10  and  C_14
REMARK    2  A    between atoms: C_21  and  C_23
REMARK                            x       y       z     vdW  Elec       q    Type
REMARK                         _______ _______ _______ _____ _____    ______ ____
ROOT
ATOM      1  O   UNL     1     110.359 128.037 135.640  0.00  0.00    +0.000 OA
ATOM      2  O   UNL     1     110.636 130.904 135.592  0.00  0.00    +0.000 OA
ATOM      3  O   UNL     1     108.029 129.748 135.793  0.00  0.00    +0.000 OA
ATOM      4  O   UNL     1     107.849 128.317 135.821  0.00  0.00    +0.000 OA
ATOM      5  C   UNL     1     110.484 129.483 135.617  0.00  0.00    +0.000 A 
ATOM      6  C   UNL     1     109.999 128.818 135.659  0.00  0.00    +0.000 A 
ATOM      7  C   UNL     1     110.150 130.237 135.634  0.00  0.00    +0.000 A 
ATOM      8  C   UNL     1     109.181 128.906 135.717  0.00  0.00    +0.000 A 
ATOM      9  C   UNL     1     109.332 130.325 135.693  0.00  0.00    +0.000 A 
ATOM     10  C   UNL     1     108.848 129.660 135.734  0.00  0.00    +0.000 A 
ATOM     11  C   UNL     1     108.666 128.219 135.762  0.00  0.00    +0.000 A 
ATOM     12  C   UNL     1     109.859 127.339 135.683  0.00  0.00    +0.000 A 
ATOM     13  C   UNL     1     109.007 127.431 135.745  0.00  0.00    +0.000 A 
ENDROOT
BRANCH   5  19
ATOM     14  O   UNL     1     111.650 129.252 134.824  0.00  0.00    +0.000 OA
ATOM     15  O   UNL     1     111.424 129.593 136.968  0.00  0.00    +0.000 OA
ATOM     16  O   UNL     1     113.061 129.417 136.850  0.00  0.00    +0.000 OA
ATOM     17  O   UNL     1     113.757 129.131 135.381  0.00  0.00    +0.000 OA
ATOM     18  C   UNL     1     111.773 129.450 136.233  0.00  0.00    +0.000 C 
ATOM     19  C   UNL     1     111.302 129.395 135.558  0.00  0.00    +0.000 C 
ATOM     20  C   UNL     1     112.591 129.362 136.174  0.00  0.00    +0.000 C 
ATOM     21  C   UNL     1     112.938 129.219 135.440  0.00  0.00    +0.000 C 
ATOM     22  C   UNL     1     112.468 129.164 134.765  0.00  0.00    +0.000 C 
ENDBRANCH   5  19
BRANCH  12  23
ATOM     23  C   UNL     1     110.195 126.586 135.666  0.00  0.00    +0.000 A 
ATOM     24  C   UNL     1     110.261 126.180 134.952  0.00  0.00    +0.000 A 
ATOM     25  C   UNL     1     110.465 126.239 136.364  0.00  0.00    +0.000 A 
ATOM     26  C   UNL     1     110.597 125.426 134.934  0.00  0.00    +0.000 A 
ATOM     27  C   UNL     1     110.802 125.485 136.348  0.00  0.00    +0.000 A 
ATOM     28  C   UNL     1     110.868 125.079 135.632  0.00  0.00    +0.000 A 
ENDBRANCH  12  23
TORSDOF 2
ENDMDL
