MODEL 1
REMARK VINA RESULT:      -9.4      0.000      0.000
REMARK  Name = 131836770
REMARK  4 active torsions:
REMARK  status: ('A' for Active; 'I' for Inactive)
REMARK    1  A    between atoms: O_2  and  C_13
REMARK    2  A    between atoms: O_2  and  C_15
REMARK    3  A    between atoms: C_14  and  C_17
REMARK    4  A    between atoms: C_16  and  C_19
REMARK                            x       y       z     vdW  Elec       q    Type
REMARK                         _______ _______ _______ _____ _____    ______ ____
ROOT
ATOM      1  O   UNL     1     105.636 124.437 147.762  0.00  0.00    +0.000 OA
ATOM      2  O   UNL     1     107.025 125.619 146.089  0.00  0.00    +0.000 OA
ATOM      3  O   UNL     1     108.160 125.606 146.979  0.00  0.00    +0.000 OA
ATOM      4  O   UNL     1     107.885 124.373 149.612  0.00  0.00    +0.000 OA
ATOM      5  C   UNL     1     105.776 125.041 146.475  0.00  0.00    +0.000 C 
ATOM      6  C   UNL     1     105.313 124.647 147.033  0.00  0.00    +0.000 C 
ATOM      7  C   UNL     1     106.562 125.225 146.647  0.00  0.00    +0.000 C 
ATOM      8  C   UNL     1     106.885 125.015 147.376  0.00  0.00    +0.000 A 
ATOM      9  C   UNL     1     106.422 124.620 147.934  0.00  0.00    +0.000 A 
ATOM     10  C   UNL     1     107.704 125.212 147.542  0.00  0.00    +0.000 A 
ATOM     11  C   UNL     1     106.746 124.396 148.697  0.00  0.00    +0.000 A 
ATOM     12  C   UNL     1     108.047 124.995 148.300  0.00  0.00    +0.000 A 
ATOM     13  C   UNL     1     107.564 124.584 148.881  0.00  0.00    +0.000 A 
ENDROOT
BRANCH   6  15
ATOM     14  O   UNL     1     103.390 123.035 145.666  0.00  0.00    +0.000 OA
ATOM     15  C   UNL     1     104.527 124.464 146.862  0.00  0.00    +0.000 A 
ATOM     16  C   UNL     1     104.352 123.841 146.350  0.00  0.00    +0.000 A 
ATOM     17  C   UNL     1     103.917 124.903 147.202  0.00  0.00    +0.000 A 
ATOM     18  C   UNL     1     103.566 123.658 146.178  0.00  0.00    +0.000 A 
ATOM     19  C   UNL     1     103.132 124.719 147.031  0.00  0.00    +0.000 A 
ATOM     20  C   UNL     1     102.956 124.096 146.519  0.00  0.00    +0.000 A 
ENDBRANCH   6  15
BRANCH   5  21
ATOM     21  O   UNL     1     105.452 125.252 145.746  0.00  0.00    +0.000 OA
BRANCH  21  27
ATOM     22  O   UNL     1     105.347 126.691 146.028  0.00  0.00    +0.000 OA
ATOM     23  O   UNL     1     105.553 125.876 144.066  0.00  0.00    +0.000 OA
ATOM     24  O   UNL     1     105.444 127.666 144.132  0.00  0.00    +0.000 OA
ATOM     25  C   UNL     1     105.471 126.332 144.748  0.00  0.00    +0.000 C 
ATOM     26  C   UNL     1     105.421 127.155 144.778  0.00  0.00    +0.000 C 
ATOM     27  C   UNL     1     105.425 126.045 145.521  0.00  0.00    +0.000 C 
ATOM     28  C   UNL     1     105.344 127.377 145.569  0.00  0.00    +0.000 C 
BRANCH  28  30
ATOM     29  O   UNL     1     104.946 128.290 146.595  0.00  0.00    +0.000 OA
ATOM     30  C   UNL     1     105.277 128.150 145.852  0.00  0.00    +0.000 C 
ENDBRANCH  28  30
ENDBRANCH  21  27
ENDBRANCH   5  21
TORSDOF 4
ENDMDL
MODEL 2
REMARK VINA RESULT:      -9.3     10.417     12.261
REMARK  Name = 131836770
REMARK  4 active torsions:
REMARK  status: ('A' for Active; 'I' for Inactive)
REMARK    1  A    between atoms: O_2  and  C_13
REMARK    2  A    between atoms: O_2  and  C_15
REMARK    3  A    between atoms: C_14  and  C_17
REMARK    4  A    between atoms: C_16  and  C_19
REMARK                            x       y       z     vdW  Elec       q    Type
REMARK                         _______ _______ _______ _____ _____    ______ ____
ROOT
ATOM      1  O   UNL     1     113.625 127.160 136.432  0.00  0.00    +0.000 OA
ATOM      2  O   UNL     1     112.137 128.091 138.177  0.00  0.00    +0.000 OA
ATOM      3  O   UNL     1     112.329 129.427 137.669  0.00  0.00    +0.000 OA
ATOM      4  O   UNL     1     114.060 129.829 135.351  0.00  0.00    +0.000 OA
ATOM      5  C   UNL     1     112.778 126.969 137.566  0.00  0.00    +0.000 C 
ATOM      6  C   UNL     1     113.274 126.658 136.984  0.00  0.00    +0.000 C 
ATOM      7  C   UNL     1     112.633 127.780 137.595  0.00  0.00    +0.000 C 
ATOM      8  C   UNL     1     112.985 128.282 137.043  0.00  0.00    +0.000 A 
ATOM      9  C   UNL     1     113.481 127.972 136.461  0.00  0.00    +0.000 A 
ATOM     10  C   UNL     1     112.827 129.126 137.084  0.00  0.00    +0.000 A 
ATOM     11  C   UNL     1     113.853 128.483 135.880  0.00  0.00    +0.000 A 
ATOM     12  C   UNL     1     113.190 129.653 136.511  0.00  0.00    +0.000 A 
ATOM     13  C   UNL     1     113.707 129.329 135.905  0.00  0.00    +0.000 A 
ENDROOT
BRANCH   6  15
ATOM     14  O   UNL     1     115.008 124.435 137.449  0.00  0.00    +0.000 OA
ATOM     15  C   UNL     1     113.418 125.847 136.955  0.00  0.00    +0.000 A 
ATOM     16  C   UNL     1     114.140 125.547 137.216  0.00  0.00    +0.000 A 
ATOM     17  C   UNL     1     112.840 125.335 136.665  0.00  0.00    +0.000 A 
ATOM     18  C   UNL     1     114.285 124.735 137.187  0.00  0.00    +0.000 A 
ATOM     19  C   UNL     1     112.984 124.524 136.636  0.00  0.00    +0.000 A 
ATOM     20  C   UNL     1     113.707 124.223 136.897  0.00  0.00    +0.000 A 
ENDBRANCH   6  15
BRANCH   5  21
ATOM     21  O   UNL     1     112.426 126.467 138.119  0.00  0.00    +0.000 OA
BRANCH  21  27
ATOM     22  O   UNL     1     113.270 126.884 139.248  0.00  0.00    +0.000 OA
ATOM     23  O   UNL     1     111.329 126.025 139.469  0.00  0.00    +0.000 OA
ATOM     24  O   UNL     1     112.147 126.446 141.010  0.00  0.00    +0.000 OA
ATOM     25  C   UNL     1     112.078 126.362 139.544  0.00  0.00    +0.000 C 
ATOM     26  C   UNL     1     112.454 126.556 140.252  0.00  0.00    +0.000 C 
ATOM     27  C   UNL     1     112.583 126.565 138.923  0.00  0.00    +0.000 C 
ATOM     28  C   UNL     1     113.191 126.878 140.069  0.00  0.00    +0.000 C 
BRANCH  28  30
ATOM     29  O   UNL     1     114.555 127.036 140.467  0.00  0.00    +0.000 OA
ATOM     30  C   UNL     1     113.751 127.148 140.613  0.00  0.00    +0.000 C 
ENDBRANCH  28  30
ENDBRANCH  21  27
ENDBRANCH   5  21
TORSDOF 4
ENDMDL
MODEL 3
REMARK VINA RESULT:      -9.2      1.457      3.966
REMARK  Name = 131836770
REMARK  4 active torsions:
REMARK  status: ('A' for Active; 'I' for Inactive)
REMARK    1  A    between atoms: O_2  and  C_13
REMARK    2  A    between atoms: O_2  and  C_15
REMARK    3  A    between atoms: C_14  and  C_17
REMARK    4  A    between atoms: C_16  and  C_19
REMARK                            x       y       z     vdW  Elec       q    Type
REMARK                         _______ _______ _______ _____ _____    ______ ____
ROOT
ATOM      1  O   UNL     1     103.765 125.742 147.357  0.00  0.00    +0.000 OA
ATOM      2  O   UNL     1     105.646 124.480 146.358  0.00  0.00    +0.000 OA
ATOM      3  O   UNL     1     104.775 123.375 146.042  0.00  0.00    +0.000 OA
ATOM      4  O   UNL     1     101.947 123.549 146.751  0.00  0.00    +0.000 OA
ATOM      5  C   UNL     1     105.148 125.651 147.008  0.00  0.00    +0.000 C 
ATOM      6  C   UNL     1     104.521 126.072 147.341  0.00  0.00    +0.000 C 
ATOM      7  C   UNL     1     105.019 124.901 146.691  0.00  0.00    +0.000 C 
ATOM      8  C   UNL     1     104.263 124.570 146.707  0.00  0.00    +0.000 A 
ATOM      9  C   UNL     1     103.636 124.991 147.040  0.00  0.00    +0.000 A 
ATOM     10  C   UNL     1     104.142 123.788 146.374  0.00  0.00    +0.000 A 
ATOM     11  C   UNL     1     102.845 124.659 147.063  0.00  0.00    +0.000 A 
ATOM     12  C   UNL     1     103.357 123.439 146.387  0.00  0.00    +0.000 A 
ATOM     13  C   UNL     1     102.704 123.877 146.734  0.00  0.00    +0.000 A 
ENDROOT
BRANCH   6  15
ATOM     14  O   UNL     1     104.811 127.783 149.612  0.00  0.00    +0.000 OA
ATOM     15  C   UNL     1     104.650 126.823 147.658  0.00  0.00    +0.000 A 
ATOM     16  C   UNL     1     104.666 126.927 148.476  0.00  0.00    +0.000 A 
ATOM     17  C   UNL     1     104.763 127.468 147.157  0.00  0.00    +0.000 A 
ATOM     18  C   UNL     1     104.795 127.678 148.793  0.00  0.00    +0.000 A 
ATOM     19  C   UNL     1     104.892 128.219 147.474  0.00  0.00    +0.000 A 
ATOM     20  C   UNL     1     104.908 128.324 148.293  0.00  0.00    +0.000 A 
ENDBRANCH   6  15
BRANCH   5  21
ATOM     21  O   UNL     1     105.904 125.982 146.992  0.00  0.00    +0.000 OA
BRANCH  21  27
ATOM     22  O   UNL     1     106.457 125.166 148.083  0.00  0.00    +0.000 OA
ATOM     23  O   UNL     1     107.634 126.009 146.514  0.00  0.00    +0.000 OA
ATOM     24  O   UNL     1     108.558 125.054 147.720  0.00  0.00    +0.000 OA
ATOM     25  C   UNL     1     107.319 125.625 147.173  0.00  0.00    +0.000 C 
ATOM     26  C   UNL     1     107.744 125.186 147.727  0.00  0.00    +0.000 C 
ATOM     27  C   UNL     1     106.524 125.612 147.393  0.00  0.00    +0.000 C 
ATOM     28  C   UNL     1     107.211 124.902 148.290  0.00  0.00    +0.000 C 
BRANCH  28  30
ATOM     29  O   UNL     1     106.806 124.193 149.463  0.00  0.00    +0.000 OA
ATOM     30  C   UNL     1     107.400 124.436 148.944  0.00  0.00    +0.000 C 
ENDBRANCH  28  30
ENDBRANCH  21  27
ENDBRANCH   5  21
TORSDOF 4
ENDMDL
MODEL 4
REMARK VINA RESULT:      -9.1     10.071     11.697
REMARK  Name = 131836770
REMARK  4 active torsions:
REMARK  status: ('A' for Active; 'I' for Inactive)
REMARK    1  A    between atoms: O_2  and  C_13
REMARK    2  A    between atoms: O_2  and  C_15
REMARK    3  A    between atoms: C_14  and  C_17
REMARK    4  A    between atoms: C_16  and  C_19
REMARK                            x       y       z     vdW  Elec       q    Type
REMARK                         _______ _______ _______ _____ _____    ______ ____
ROOT
ATOM      1  O   UNL     1     113.507 126.217 138.661  0.00  0.00    +0.000 OA
ATOM      2  O   UNL     1     111.180 125.440 138.335  0.00  0.00    +0.000 OA
ATOM      3  O   UNL     1     110.773 126.045 139.580  0.00  0.00    +0.000 OA
ATOM      4  O   UNL     1     112.759 127.462 141.185  0.00  0.00    +0.000 OA
ATOM      5  C   UNL     1     112.532 125.525 137.879  0.00  0.00    +0.000 C 
ATOM      6  C   UNL     1     113.308 125.784 137.988  0.00  0.00    +0.000 C 
ATOM      7  C   UNL     1     111.956 125.699 138.443  0.00  0.00    +0.000 C 
ATOM      8  C   UNL     1     112.155 126.133 139.116  0.00  0.00    +0.000 A 
ATOM      9  C   UNL     1     112.931 126.392 139.225  0.00  0.00    +0.000 A 
ATOM     10  C   UNL     1     111.547 126.308 139.697  0.00  0.00    +0.000 A 
ATOM     11  C   UNL     1     113.152 126.843 139.921  0.00  0.00    +0.000 A 
ATOM     12  C   UNL     1     111.748 126.759 140.400  0.00  0.00    +0.000 A 
ATOM     13  C   UNL     1     112.557 127.028 140.513  0.00  0.00    +0.000 A 
ENDROOT
BRANCH   6  15
ATOM     14  O   UNL     1     114.954 126.598 135.799  0.00  0.00    +0.000 OA
ATOM     15  C   UNL     1     113.884 125.610 137.423  0.00  0.00    +0.000 A 
ATOM     16  C   UNL     1     114.131 126.191 136.894  0.00  0.00    +0.000 A 
ATOM     17  C   UNL     1     114.212 124.853 137.390  0.00  0.00    +0.000 A 
ATOM     18  C   UNL     1     114.707 126.017 136.329  0.00  0.00    +0.000 A 
ATOM     19  C   UNL     1     114.788 124.679 136.825  0.00  0.00    +0.000 A 
ATOM     20  C   UNL     1     115.036 125.261 136.295  0.00  0.00    +0.000 A 
ENDBRANCH   6  15
BRANCH   5  21
ATOM     21  O   UNL     1     112.333 125.092 137.206  0.00  0.00    +0.000 OA
BRANCH  21  27
ATOM     22  O   UNL     1     111.597 126.185 136.553  0.00  0.00    +0.000 OA
ATOM     23  O   UNL     1     111.293 124.118 136.114  0.00  0.00    +0.000 OA
ATOM     24  O   UNL     1     110.263 125.248 135.174  0.00  0.00    +0.000 OA
ATOM     25  C   UNL     1     111.297 124.940 136.173  0.00  0.00    +0.000 C 
ATOM     26  C   UNL     1     110.824 125.460 135.741  0.00  0.00    +0.000 C 
ATOM     27  C   UNL     1     111.775 125.388 136.675  0.00  0.00    +0.000 C 
ATOM     28  C   UNL     1     111.009 126.229 135.975  0.00  0.00    +0.000 C 
BRANCH  28  30
ATOM     29  O   UNL     1     111.087 127.631 135.708  0.00  0.00    +0.000 OA
ATOM     30  C   UNL     1     110.667 126.921 135.684  0.00  0.00    +0.000 C 
ENDBRANCH  28  30
ENDBRANCH  21  27
ENDBRANCH   5  21
TORSDOF 4
ENDMDL
MODEL 5
REMARK VINA RESULT:      -9.0      1.340      3.528
REMARK  Name = 131836770
REMARK  4 active torsions:
REMARK  status: ('A' for Active; 'I' for Inactive)
REMARK    1  A    between atoms: O_2  and  C_13
REMARK    2  A    between atoms: O_2  and  C_15
REMARK    3  A    between atoms: C_14  and  C_17
REMARK    4  A    between atoms: C_16  and  C_19
REMARK                            x       y       z     vdW  Elec       q    Type
REMARK                         _______ _______ _______ _____ _____    ______ ____
ROOT
ATOM      1  O   UNL     1     103.785 124.480 148.061  0.00  0.00    +0.000 OA
ATOM      2  O   UNL     1     104.704 124.061 145.802  0.00  0.00    +0.000 OA
ATOM      3  O   UNL     1     103.458 123.472 145.373  0.00  0.00    +0.000 OA
ATOM      4  O   UNL     1     101.241 123.305 147.267  0.00  0.00    +0.000 OA
ATOM      5  C   UNL     1     104.867 124.560 147.131  0.00  0.00    +0.000 C 
ATOM      6  C   UNL     1     104.560 124.700 147.885  0.00  0.00    +0.000 C 
ATOM      7  C   UNL     1     104.398 124.201 146.555  0.00  0.00    +0.000 C 
ATOM      8  C   UNL     1     103.622 123.981 146.732  0.00  0.00    +0.000 A 
ATOM      9  C   UNL     1     103.316 124.121 147.485  0.00  0.00    +0.000 A 
ATOM     10  C   UNL     1     103.144 123.608 146.124  0.00  0.00    +0.000 A 
ATOM     11  C   UNL     1     102.511 123.898 147.683  0.00  0.00    +0.000 A 
ATOM     12  C   UNL     1     102.335 123.378 146.302  0.00  0.00    +0.000 A 
ATOM     13  C   UNL     1     102.017 123.524 147.087  0.00  0.00    +0.000 A 
ENDROOT
BRANCH   6  15
ATOM     14  O   UNL     1     105.202 126.977 149.487  0.00  0.00    +0.000 OA
ATOM     15  C   UNL     1     105.029 125.059 148.460  0.00  0.00    +0.000 A 
ATOM     16  C   UNL     1     104.881 125.838 148.686  0.00  0.00    +0.000 A 
ATOM     17  C   UNL     1     105.647 124.638 148.810  0.00  0.00    +0.000 A 
ATOM     18  C   UNL     1     105.350 126.197 149.261  0.00  0.00    +0.000 A 
ATOM     19  C   UNL     1     106.116 124.997 149.386  0.00  0.00    +0.000 A 
ATOM     20  C   UNL     1     105.968 125.777 149.612  0.00  0.00    +0.000 A 
ENDBRANCH   6  15
BRANCH   5  21
ATOM     21  O   UNL     1     105.642 124.779 146.954  0.00  0.00    +0.000 OA
BRANCH  21  27
ATOM     22  O   UNL     1     105.288 125.953 146.144  0.00  0.00    +0.000 OA
ATOM     23  O   UNL     1     107.104 124.854 145.915  0.00  0.00    +0.000 OA
ATOM     24  O   UNL     1     106.920 126.247 144.798  0.00  0.00    +0.000 OA
ATOM     25  C   UNL     1     106.461 125.369 145.884  0.00  0.00    +0.000 C 
ATOM     26  C   UNL     1     106.376 126.009 145.371  0.00  0.00    +0.000 C 
ATOM     27  C   UNL     1     105.788 125.335 146.362  0.00  0.00    +0.000 C 
ATOM     28  C   UNL     1     105.651 126.371 145.531  0.00  0.00    +0.000 C 
BRANCH  28  30
ATOM     29  O   UNL     1     104.960 127.621 145.579  0.00  0.00    +0.000 OA
ATOM     30  C   UNL     1     105.344 127.033 145.146  0.00  0.00    +0.000 C 
ENDBRANCH  28  30
ENDBRANCH  21  27
ENDBRANCH   5  21
TORSDOF 4
ENDMDL
MODEL 6
REMARK VINA RESULT:      -9.0     10.310     12.200
REMARK  Name = 131836770
REMARK  4 active torsions:
REMARK  status: ('A' for Active; 'I' for Inactive)
REMARK    1  A    between atoms: O_2  and  C_13
REMARK    2  A    between atoms: O_2  and  C_15
REMARK    3  A    between atoms: C_14  and  C_17
REMARK    4  A    between atoms: C_16  and  C_19
REMARK                            x       y       z     vdW  Elec       q    Type
REMARK                         _______ _______ _______ _____ _____    ______ ____
ROOT
ATOM      1  O   UNL     1     113.680 127.135 136.420  0.00  0.00    +0.000 OA
ATOM      2  O   UNL     1     112.513 128.120 138.368  0.00  0.00    +0.000 OA
ATOM      3  O   UNL     1     112.440 129.403 137.712  0.00  0.00    +0.000 OA
ATOM      4  O   UNL     1     113.570 129.695 135.034  0.00  0.00    +0.000 OA
ATOM      5  C   UNL     1     113.126 126.998 137.730  0.00  0.00    +0.000 C 
ATOM      6  C   UNL     1     113.515 126.669 137.080  0.00  0.00    +0.000 C 
ATOM      7  C   UNL     1     112.902 127.792 137.718  0.00  0.00    +0.000 C 
ATOM      8  C   UNL     1     113.067 128.258 137.058  0.00  0.00    +0.000 A 
ATOM      9  C   UNL     1     113.456 127.929 136.409  0.00  0.00    +0.000 A 
ATOM     10  C   UNL     1     112.829 129.083 137.058  0.00  0.00    +0.000 A 
ATOM     11  C   UNL     1     113.634 128.403 135.715  0.00  0.00    +0.000 A 
ATOM     12  C   UNL     1     112.998 129.573 136.373  0.00  0.00    +0.000 A 
ATOM     13  C   UNL     1     113.404 129.231 135.697  0.00  0.00    +0.000 A 
ENDROOT
BRANCH   6  15
ATOM     14  O   UNL     1     113.101 123.969 136.242  0.00  0.00    +0.000 OA
ATOM     15  C   UNL     1     113.739 125.875 137.092  0.00  0.00    +0.000 A 
ATOM     16  C   UNL     1     113.308 125.320 136.661  0.00  0.00    +0.000 A 
ATOM     17  C   UNL     1     114.394 125.638 137.534  0.00  0.00    +0.000 A 
ATOM     18  C   UNL     1     113.532 124.526 136.673  0.00  0.00    +0.000 A 
ATOM     19  C   UNL     1     114.618 124.844 137.546  0.00  0.00    +0.000 A 
ATOM     20  C   UNL     1     114.187 124.287 137.115  0.00  0.00    +0.000 A 
ENDBRANCH   6  15
BRANCH   5  21
ATOM     21  O   UNL     1     112.961 126.532 138.390  0.00  0.00    +0.000 OA
BRANCH  21  27
ATOM     22  O   UNL     1     111.521 126.401 138.127  0.00  0.00    +0.000 OA
ATOM     23  O   UNL     1     112.394 126.239 140.068  0.00  0.00    +0.000 OA
ATOM     24  O   UNL     1     110.611 126.039 140.024  0.00  0.00    +0.000 OA
ATOM     25  C   UNL     1     111.918 126.275 139.395  0.00  0.00    +0.000 C 
ATOM     26  C   UNL     1     111.099 126.183 139.375  0.00  0.00    +0.000 C 
ATOM     27  C   UNL     1     112.179 126.410 138.624  0.00  0.00    +0.000 C 
ATOM     28  C   UNL     1     110.853 126.261 138.591  0.00  0.00    +0.000 C 
BRANCH  28  30
ATOM     29  O   UNL     1     109.926 126.079 137.518  0.00  0.00    +0.000 OA
ATOM     30  C   UNL     1     110.075 126.208 138.319  0.00  0.00    +0.000 C 
ENDBRANCH  28  30
ENDBRANCH  21  27
ENDBRANCH   5  21
TORSDOF 4
ENDMDL
MODEL 7
REMARK VINA RESULT:      -9.0      1.463      3.825
REMARK  Name = 131836770
REMARK  4 active torsions:
REMARK  status: ('A' for Active; 'I' for Inactive)
REMARK    1  A    between atoms: O_2  and  C_13
REMARK    2  A    between atoms: O_2  and  C_15
REMARK    3  A    between atoms: C_14  and  C_17
REMARK    4  A    between atoms: C_16  and  C_19
REMARK                            x       y       z     vdW  Elec       q    Type
REMARK                         _______ _______ _______ _____ _____    ______ ____
ROOT
ATOM      1  O   UNL     1     105.219 124.170 147.178  0.00  0.00    +0.000 OA
ATOM      2  O   UNL     1     103.623 125.832 148.081  0.00  0.00    +0.000 OA
ATOM      3  O   UNL     1     102.531 125.212 147.371  0.00  0.00    +0.000 OA
ATOM      4  O   UNL     1     103.064 122.865 145.716  0.00  0.00    +0.000 OA
ATOM      5  C   UNL     1     104.953 125.318 147.987  0.00  0.00    +0.000 C 
ATOM      6  C   UNL     1     105.485 124.763 147.686  0.00  0.00    +0.000 C 
ATOM      7  C   UNL     1     104.155 125.278 147.780  0.00  0.00    +0.000 C 
ATOM      8  C   UNL     1     103.889 124.684 147.273  0.00  0.00    +0.000 A 
ATOM      9  C   UNL     1     104.421 124.130 146.972  0.00  0.00    +0.000 A 
ATOM     10  C   UNL     1     103.056 124.654 147.065  0.00  0.00    +0.000 A 
ATOM     11  C   UNL     1     104.158 123.507 146.443  0.00  0.00    +0.000 A 
ATOM     12  C   UNL     1     102.773 124.038 146.537  0.00  0.00    +0.000 A 
ATOM     13  C   UNL     1     103.328 123.460 146.224  0.00  0.00    +0.000 A 
ENDROOT
BRANCH   6  15
ATOM     14  O   UNL     1     108.185 125.414 147.015  0.00  0.00    +0.000 OA
ATOM     15  C   UNL     1     106.283 124.803 147.892  0.00  0.00    +0.000 A 
ATOM     16  C   UNL     1     106.835 125.088 147.351  0.00  0.00    +0.000 A 
ATOM     17  C   UNL     1     106.527 124.557 148.641  0.00  0.00    +0.000 A 
ATOM     18  C   UNL     1     107.632 125.128 147.557  0.00  0.00    +0.000 A 
ATOM     19  C   UNL     1     107.325 124.596 148.848  0.00  0.00    +0.000 A 
ATOM     20  C   UNL     1     107.878 124.882 148.306  0.00  0.00    +0.000 A 
ENDBRANCH   6  15
BRANCH   5  21
ATOM     21  O   UNL     1     105.219 125.911 148.494  0.00  0.00    +0.000 OA
BRANCH  21  27
ATOM     22  O   UNL     1     105.177 127.002 147.510  0.00  0.00    +0.000 OA
ATOM     23  O   UNL     1     104.941 127.288 149.612  0.00  0.00    +0.000 OA
ATOM     24  O   UNL     1     104.848 128.789 148.632  0.00  0.00    +0.000 OA
ATOM     25  C   UNL     1     105.013 127.337 148.792  0.00  0.00    +0.000 C 
ATOM     26  C   UNL     1     104.970 128.026 148.341  0.00  0.00    +0.000 C 
ATOM     27  C   UNL     1     105.141 126.704 148.278  0.00  0.00    +0.000 C 
ATOM     28  C   UNL     1     105.072 127.820 147.549  0.00  0.00    +0.000 C 
BRANCH  28  30
ATOM     29  O   UNL     1     105.139 128.048 146.140  0.00  0.00    +0.000 OA
ATOM     30  C   UNL     1     105.068 128.340 146.908  0.00  0.00    +0.000 C 
ENDBRANCH  28  30
ENDBRANCH  21  27
ENDBRANCH   5  21
TORSDOF 4
ENDMDL
MODEL 8
REMARK VINA RESULT:      -9.0     11.977     13.073
REMARK  Name = 131836770
REMARK  4 active torsions:
REMARK  status: ('A' for Active; 'I' for Inactive)
REMARK    1  A    between atoms: O_2  and  C_13
REMARK    2  A    between atoms: O_2  and  C_15
REMARK    3  A    between atoms: C_14  and  C_17
REMARK    4  A    between atoms: C_16  and  C_19
REMARK                            x       y       z     vdW  Elec       q    Type
REMARK                         _______ _______ _______ _____ _____    ______ ____
ROOT
ATOM      1  O   UNL     1     112.044 125.694 136.120  0.00  0.00    +0.000 OA
ATOM      2  O   UNL     1     111.563 128.086 136.537  0.00  0.00    +0.000 OA
ATOM      3  O   UNL     1     110.327 127.996 135.797  0.00  0.00    +0.000 OA
ATOM      4  O   UNL     1     109.565 125.437 134.612  0.00  0.00    +0.000 OA
ATOM      5  C   UNL     1     112.413 126.948 136.697  0.00  0.00    +0.000 C 
ATOM      6  C   UNL     1     112.573 126.151 136.558  0.00  0.00    +0.000 C 
ATOM      7  C   UNL     1     111.723 127.288 136.398  0.00  0.00    +0.000 C 
ATOM      8  C   UNL     1     111.194 126.832 135.959  0.00  0.00    +0.000 A 
ATOM      9  C   UNL     1     111.355 126.034 135.820  0.00  0.00    +0.000 A 
ATOM     10  C   UNL     1     110.480 127.198 135.653  0.00  0.00    +0.000 A 
ATOM     11  C   UNL     1     110.813 125.548 135.365  0.00  0.00    +0.000 A 
ATOM     12  C   UNL     1     109.925 126.727 135.196  0.00  0.00    +0.000 A 
ATOM     13  C   UNL     1     110.093 125.896 135.051  0.00  0.00    +0.000 A 
ENDROOT
BRANCH   6  15
ATOM     14  O   UNL     1     115.203 125.113 136.142  0.00  0.00    +0.000 OA
ATOM     15  C   UNL     1     113.263 125.810 136.857  0.00  0.00    +0.000 A 
ATOM     16  C   UNL     1     113.888 125.632 136.350  0.00  0.00    +0.000 A 
ATOM     17  C   UNL     1     113.326 125.649 137.664  0.00  0.00    +0.000 A 
ATOM     18  C   UNL     1     114.577 125.292 136.650  0.00  0.00    +0.000 A 
ATOM     19  C   UNL     1     114.015 125.309 137.963  0.00  0.00    +0.000 A 
ATOM     20  C   UNL     1     114.641 125.130 137.456  0.00  0.00    +0.000 A 
ENDBRANCH   6  15
BRANCH   5  21
ATOM     21  O   UNL     1     112.942 127.405 137.136  0.00  0.00    +0.000 OA
BRANCH  21  27
ATOM     22  O   UNL     1     113.500 128.164 136.008  0.00  0.00    +0.000 OA
ATOM     23  O   UNL     1     113.351 128.926 137.996  0.00  0.00    +0.000 OA
ATOM     24  O   UNL     1     114.072 130.060 136.806  0.00  0.00    +0.000 OA
ATOM     25  C   UNL     1     113.473 128.775 137.195  0.00  0.00    +0.000 C 
ATOM     26  C   UNL     1     113.804 129.296 136.648  0.00  0.00    +0.000 C 
ATOM     27  C   UNL     1     113.285 128.075 136.799  0.00  0.00    +0.000 C 
ATOM     28  C   UNL     1     113.821 128.919 135.914  0.00  0.00    +0.000 C 
BRANCH  28  30
ATOM     29  O   UNL     1     114.591 128.788 134.717  0.00  0.00    +0.000 OA
ATOM     30  C   UNL     1     114.108 129.240 135.210  0.00  0.00    +0.000 C 
ENDBRANCH  28  30
ENDBRANCH  21  27
ENDBRANCH   5  21
TORSDOF 4
ENDMDL
MODEL 9
REMARK VINA RESULT:      -9.0     10.307     12.099
REMARK  Name = 131836770
REMARK  4 active torsions:
REMARK  status: ('A' for Active; 'I' for Inactive)
REMARK    1  A    between atoms: O_2  and  C_13
REMARK    2  A    between atoms: O_2  and  C_15
REMARK    3  A    between atoms: C_14  and  C_17
REMARK    4  A    between atoms: C_16  and  C_19
REMARK                            x       y       z     vdW  Elec       q    Type
REMARK                         _______ _______ _______ _____ _____    ______ ____
ROOT
ATOM      1  O   UNL     1     112.034 125.389 136.113  0.00  0.00    +0.000 OA
ATOM      2  O   UNL     1     110.966 126.349 138.130  0.00  0.00    +0.000 OA
ATOM      3  O   UNL     1     109.725 126.538 137.418  0.00  0.00    +0.000 OA
ATOM      4  O   UNL     1     109.563 125.740 134.613  0.00  0.00    +0.000 OA
ATOM      5  C   UNL     1     112.108 125.781 137.486  0.00  0.00    +0.000 C 
ATOM      6  C   UNL     1     112.465 125.461 136.813  0.00  0.00    +0.000 C 
ATOM      7  C   UNL     1     111.322 126.029 137.457  0.00  0.00    +0.000 C 
ATOM      8  C   UNL     1     110.891 125.957 136.758  0.00  0.00    +0.000 A 
ATOM      9  C   UNL     1     111.248 125.637 136.085  0.00  0.00    +0.000 A 
ATOM     10  C   UNL     1     110.073 126.219 136.741  0.00  0.00    +0.000 A 
ATOM     11  C   UNL     1     110.811 125.557 135.350  0.00  0.00    +0.000 A 
ATOM     12  C   UNL     1     109.620 126.147 136.014  0.00  0.00    +0.000 A 
ATOM     13  C   UNL     1     109.991 125.813 135.314  0.00  0.00    +0.000 A 
ENDROOT
BRANCH   6  15
ATOM     14  O   UNL     1     115.205 125.839 136.099  0.00  0.00    +0.000 OA
ATOM     15  C   UNL     1     113.251 125.213 136.842  0.00  0.00    +0.000 A 
ATOM     16  C   UNL     1     113.835 125.650 136.456  0.00  0.00    +0.000 A 
ATOM     17  C   UNL     1     113.453 124.528 137.255  0.00  0.00    +0.000 A 
ATOM     18  C   UNL     1     114.621 125.402 136.485  0.00  0.00    +0.000 A 
ATOM     19  C   UNL     1     114.239 124.281 137.283  0.00  0.00    +0.000 A 
ATOM     20  C   UNL     1     114.823 124.717 136.898  0.00  0.00    +0.000 A 
ENDBRANCH   6  15
BRANCH   5  21
ATOM     21  O   UNL     1     112.539 125.853 138.185  0.00  0.00    +0.000 OA
BRANCH  21  27
ATOM     22  O   UNL     1     112.761 127.304 138.100  0.00  0.00    +0.000 OA
ATOM     23  O   UNL     1     112.657 126.222 139.938  0.00  0.00    +0.000 OA
ATOM     24  O   UNL     1     112.937 127.987 140.116  0.00  0.00    +0.000 OA
ATOM     25  C   UNL     1     112.720 126.768 139.323  0.00  0.00    +0.000 C 
ATOM     26  C   UNL     1     112.849 127.579 139.404  0.00  0.00    +0.000 C 
ATOM     27  C   UNL     1     112.666 126.598 138.517  0.00  0.00    +0.000 C 
ATOM     28  C   UNL     1     112.874 127.910 138.649  0.00  0.00    +0.000 C 
BRANCH  28  30
ATOM     29  O   UNL     1     112.892 128.979 137.700  0.00  0.00    +0.000 OA
ATOM     30  C   UNL     1     112.992 128.708 138.473  0.00  0.00    +0.000 C 
ENDBRANCH  28  30
ENDBRANCH  21  27
ENDBRANCH   5  21
TORSDOF 4
ENDMDL
MODEL 10
REMARK VINA RESULT:      -8.8     10.714     11.916
REMARK  Name = 131836770
REMARK  4 active torsions:
REMARK  status: ('A' for Active; 'I' for Inactive)
REMARK    1  A    between atoms: O_2  and  C_13
REMARK    2  A    between atoms: O_2  and  C_15
REMARK    3  A    between atoms: C_14  and  C_17
REMARK    4  A    between atoms: C_16  and  C_19
REMARK                            x       y       z     vdW  Elec       q    Type
REMARK                         _______ _______ _______ _____ _____    ______ ____
ROOT
ATOM      1  O   UNL     1     113.715 126.027 138.754  0.00  0.00    +0.000 OA
ATOM      2  O   UNL     1     112.392 128.052 138.230  0.00  0.00    +0.000 OA
ATOM      3  O   UNL     1     112.808 128.677 139.462  0.00  0.00    +0.000 OA
ATOM      4  O   UNL     1     114.596 127.226 141.258  0.00  0.00    +0.000 OA
ATOM      5  C   UNL     1     112.840 126.741 137.879  0.00  0.00    +0.000 C 
ATOM      6  C   UNL     1     113.282 126.066 138.054  0.00  0.00    +0.000 C 
ATOM      7  C   UNL     1     112.833 127.376 138.405  0.00  0.00    +0.000 C 
ATOM      8  C   UNL     1     113.267 127.338 139.105  0.00  0.00    +0.000 A 
ATOM      9  C   UNL     1     113.708 126.663 139.280  0.00  0.00    +0.000 A 
ATOM     10  C   UNL     1     113.252 128.006 139.645  0.00  0.00    +0.000 A 
ATOM     11  C   UNL     1     114.164 126.609 140.006  0.00  0.00    +0.000 A 
ATOM     12  C   UNL     1     113.702 127.972 140.376  0.00  0.00    +0.000 A 
ATOM     13  C   UNL     1     114.161 127.268 140.558  0.00  0.00    +0.000 A 
ENDROOT
BRANCH   6  15
ATOM     14  O   UNL     1     111.991 123.789 136.907  0.00  0.00    +0.000 OA
ATOM     15  C   UNL     1     113.289 125.430 137.528  0.00  0.00    +0.000 A 
ATOM     16  C   UNL     1     112.637 124.927 137.480  0.00  0.00    +0.000 A 
ATOM     17  C   UNL     1     113.948 125.297 137.050  0.00  0.00    +0.000 A 
ATOM     18  C   UNL     1     112.644 124.292 136.955  0.00  0.00    +0.000 A 
ATOM     19  C   UNL     1     113.955 124.662 136.525  0.00  0.00    +0.000 A 
ATOM     20  C   UNL     1     113.303 124.159 136.477  0.00  0.00    +0.000 A 
ENDBRANCH   6  15
BRANCH   5  21
ATOM     21  O   UNL     1     112.406 126.779 137.178  0.00  0.00    +0.000 OA
BRANCH  21  27
ATOM     22  O   UNL     1     113.300 127.727 136.497  0.00  0.00    +0.000 OA
ATOM     23  O   UNL     1     111.224 127.517 136.047  0.00  0.00    +0.000 OA
ATOM     24  O   UNL     1     112.088 128.748 135.067  0.00  0.00    +0.000 OA
ATOM     25  C   UNL     1     112.024 127.710 136.106  0.00  0.00    +0.000 C 
ATOM     26  C   UNL     1     112.421 128.276 135.655  0.00  0.00    +0.000 C 
ATOM     27  C   UNL     1     112.568 127.371 136.626  0.00  0.00    +0.000 C 
ATOM     28  C   UNL     1     113.210 128.287 135.897  0.00  0.00    +0.000 C 
BRANCH  28  30
ATOM     29  O   UNL     1     114.579 128.494 135.543  0.00  0.00    +0.000 OA
ATOM     30  C   UNL     1     113.804 128.772 135.592  0.00  0.00    +0.000 C 
ENDBRANCH  28  30
ENDBRANCH  21  27
ENDBRANCH   5  21
TORSDOF 4
ENDMDL
