MODEL 1
REMARK VINA RESULT:      -7.9      0.000      0.000
REMARK  Name = 342294
REMARK  2 active torsions:
REMARK  status: ('A' for Active; 'I' for Inactive)
REMARK    1  A    between atoms: O_2  and  C_10
REMARK    2  A    between atoms: C_4  and  C_9
REMARK                            x       y       z     vdW  Elec       q    Type
REMARK                         _______ _______ _______ _____ _____    ______ ____
ROOT
ATOM      1  O   UNL     1     105.491 124.352 147.309  0.00  0.00    +0.000 OA
ATOM      2  O   UNL     1     103.339 123.593 145.551  0.00  0.00    +0.000 OA
ATOM      3  C   UNL     1     105.764 124.742 148.024  0.00  0.00    +0.000 C 
ATOM      4  C   UNL     1     105.195 125.129 148.539  0.00  0.00    +0.000 C 
ATOM      5  C   UNL     1     104.361 125.120 148.333  0.00  0.00    +0.000 C 
ATOM      6  C   UNL     1     104.107 124.724 147.614  0.00  0.00    +0.000 A 
ATOM      7  C   UNL     1     104.652 124.353 147.119  0.00  0.00    +0.000 A 
ATOM      8  C   UNL     1     103.305 124.718 147.421  0.00  0.00    +0.000 A 
ATOM      9  C   UNL     1     104.397 123.976 146.431  0.00  0.00    +0.000 A 
ATOM     10  C   UNL     1     103.049 124.341 146.734  0.00  0.00    +0.000 A 
ATOM     11  C   UNL     1     103.595 123.970 146.239  0.00  0.00    +0.000 A 
ENDROOT
BRANCH   3  12
ATOM     12  C   UNL     1     106.567 124.746 148.214  0.00  0.00    +0.000 A 
ATOM     13  C   UNL     1     107.108 125.119 147.715  0.00  0.00    +0.000 A 
ATOM     14  C   UNL     1     106.829 124.377 148.904  0.00  0.00    +0.000 A 
ATOM     15  C   UNL     1     107.910 125.122 147.905  0.00  0.00    +0.000 A 
ATOM     16  C   UNL     1     107.631 124.380 149.094  0.00  0.00    +0.000 A 
ATOM     17  C   UNL     1     108.172 124.753 148.595  0.00  0.00    +0.000 A 
ENDBRANCH   3  12
BRANCH   8  18
ATOM     18  O   UNL     1     102.759 125.089 147.916  0.00  0.00    +0.000 OA
ATOM     19  C   UNL     1     101.951 124.983 147.792  0.00  0.00    +0.000 C 
ENDBRANCH   8  18
TORSDOF 2
ENDMDL
MODEL 2
REMARK VINA RESULT:      -7.8     13.258     13.721
REMARK  Name = 342294
REMARK  2 active torsions:
REMARK  status: ('A' for Active; 'I' for Inactive)
REMARK    1  A    between atoms: O_2  and  C_10
REMARK    2  A    between atoms: C_4  and  C_9
REMARK                            x       y       z     vdW  Elec       q    Type
REMARK                         _______ _______ _______ _____ _____    ______ ____
ROOT
ATOM      1  O   UNL     1     112.089 125.639 136.102  0.00  0.00    +0.000 OA
ATOM      2  O   UNL     1     109.568 125.459 134.719  0.00  0.00    +0.000 OA
ATOM      3  C   UNL     1     112.728 126.116 136.422  0.00  0.00    +0.000 C 
ATOM      4  C   UNL     1     112.699 126.971 136.346  0.00  0.00    +0.000 C 
ATOM      5  C   UNL     1     112.030 127.339 135.951  0.00  0.00    +0.000 C 
ATOM      6  C   UNL     1     111.400 126.846 135.637  0.00  0.00    +0.000 A 
ATOM      7  C   UNL     1     111.428 126.025 135.709  0.00  0.00    +0.000 A 
ATOM      8  C   UNL     1     110.761 127.205 135.259  0.00  0.00    +0.000 A 
ATOM      9  C   UNL     1     110.818 125.562 135.404  0.00  0.00    +0.000 A 
ATOM     10  C   UNL     1     110.151 126.743 134.953  0.00  0.00    +0.000 A 
ATOM     11  C   UNL     1     110.179 125.922 135.026  0.00  0.00    +0.000 A 
ENDROOT
BRANCH   3  12
ATOM     12  C   UNL     1     113.366 125.753 136.800  0.00  0.00    +0.000 A 
ATOM     13  C   UNL     1     113.424 125.772 137.623  0.00  0.00    +0.000 A 
ATOM     14  C   UNL     1     113.946 125.372 136.354  0.00  0.00    +0.000 A 
ATOM     15  C   UNL     1     114.062 125.410 138.000  0.00  0.00    +0.000 A 
ATOM     16  C   UNL     1     114.584 125.010 136.731  0.00  0.00    +0.000 A 
ATOM     17  C   UNL     1     114.642 125.028 137.554  0.00  0.00    +0.000 A 
ENDBRANCH   3  12
BRANCH   8  18
ATOM     18  O   UNL     1     110.733 128.026 135.186  0.00  0.00    +0.000 OA
ATOM     19  C   UNL     1     110.129 128.382 134.751  0.00  0.00    +0.000 C 
ENDBRANCH   8  18
TORSDOF 2
ENDMDL
MODEL 3
REMARK VINA RESULT:      -7.7      8.476      9.652
REMARK  Name = 342294
REMARK  2 active torsions:
REMARK  status: ('A' for Active; 'I' for Inactive)
REMARK    1  A    between atoms: O_2  and  C_10
REMARK    2  A    between atoms: C_4  and  C_9
REMARK                            x       y       z     vdW  Elec       q    Type
REMARK                         _______ _______ _______ _____ _____    ______ ____
ROOT
ATOM      1  O   UNL     1     102.027 130.932 140.970  0.00  0.00    +0.000 OA
ATOM      2  O   UNL     1     102.538 128.727 139.187  0.00  0.00    +0.000 OA
ATOM      3  C   UNL     1     102.163 131.328 141.720  0.00  0.00    +0.000 C 
ATOM      4  C   UNL     1     102.698 130.978 142.293  0.00  0.00    +0.000 C 
ATOM      5  C   UNL     1     103.090 130.236 142.109  0.00  0.00    +0.000 C 
ATOM      6  C   UNL     1     102.942 129.854 141.354  0.00  0.00    +0.000 A 
ATOM      7  C   UNL     1     102.428 130.190 140.803  0.00  0.00    +0.000 A 
ATOM      8  C   UNL     1     103.321 129.142 141.182  0.00  0.00    +0.000 A 
ATOM      9  C   UNL     1     102.293 129.815 140.081  0.00  0.00    +0.000 A 
ATOM     10  C   UNL     1     103.187 128.766 140.461  0.00  0.00    +0.000 A 
ATOM     11  C   UNL     1     102.673 129.103 139.910  0.00  0.00    +0.000 A 
ENDROOT
BRANCH   3  12
ATOM     12  C   UNL     1     101.781 132.040 141.888  0.00  0.00    +0.000 A 
ATOM     13  C   UNL     1     102.089 132.751 141.603  0.00  0.00    +0.000 A 
ATOM     14  C   UNL     1     101.092 132.042 142.341  0.00  0.00    +0.000 A 
ATOM     15  C   UNL     1     101.707 133.463 141.771  0.00  0.00    +0.000 A 
ATOM     16  C   UNL     1     100.710 132.753 142.510  0.00  0.00    +0.000 A 
ATOM     17  C   UNL     1     101.018 133.464 142.224  0.00  0.00    +0.000 A 
ENDBRANCH   3  12
BRANCH   8  18
ATOM     18  O   UNL     1     103.835 128.806 141.733  0.00  0.00    +0.000 OA
ATOM     19  C   UNL     1     104.379 128.234 141.494  0.00  0.00    +0.000 C 
ENDBRANCH   8  18
TORSDOF 2
ENDMDL
MODEL 4
REMARK VINA RESULT:      -7.7      2.274      2.848
REMARK  Name = 342294
REMARK  2 active torsions:
REMARK  status: ('A' for Active; 'I' for Inactive)
REMARK    1  A    between atoms: O_2  and  C_10
REMARK    2  A    between atoms: C_4  and  C_9
REMARK                            x       y       z     vdW  Elec       q    Type
REMARK                         _______ _______ _______ _____ _____    ______ ____
ROOT
ATOM      1  O   UNL     1     106.528 124.862 146.807  0.00  0.00    +0.000 OA
ATOM      2  O   UNL     1     105.381 124.627 144.175  0.00  0.00    +0.000 OA
ATOM      3  C   UNL     1     106.890 125.344 147.419  0.00  0.00    +0.000 C 
ATOM      4  C   UNL     1     107.017 126.182 147.280  0.00  0.00    +0.000 C 
ATOM      5  C   UNL     1     106.782 126.527 146.530  0.00  0.00    +0.000 C 
ATOM      6  C   UNL     1     106.421 126.030 145.928  0.00  0.00    +0.000 A 
ATOM      7  C   UNL     1     106.299 125.225 146.062  0.00  0.00    +0.000 A 
ATOM      8  C   UNL     1     106.197 126.367 145.210  0.00  0.00    +0.000 A 
ATOM      9  C   UNL     1     105.952 124.757 145.478  0.00  0.00    +0.000 A 
ATOM     10  C   UNL     1     105.850 125.900 144.626  0.00  0.00    +0.000 A 
ATOM     11  C   UNL     1     105.728 125.095 144.760  0.00  0.00    +0.000 A 
ENDROOT
BRANCH   3  12
ATOM     12  C   UNL     1     107.113 125.003 148.137  0.00  0.00    +0.000 A 
ATOM     13  C   UNL     1     106.541 124.815 148.701  0.00  0.00    +0.000 A 
ATOM     14  C   UNL     1     107.909 124.850 148.290  0.00  0.00    +0.000 A 
ATOM     15  C   UNL     1     106.765 124.475 149.419  0.00  0.00    +0.000 A 
ATOM     16  C   UNL     1     108.133 124.509 149.008  0.00  0.00    +0.000 A 
ATOM     17  C   UNL     1     107.561 124.322 149.572  0.00  0.00    +0.000 A 
ENDBRANCH   3  12
BRANCH   8  18
ATOM     18  O   UNL     1     106.319 127.171 145.076  0.00  0.00    +0.000 OA
ATOM     19  C   UNL     1     106.035 127.523 144.386  0.00  0.00    +0.000 C 
ENDBRANCH   8  18
TORSDOF 2
ENDMDL
MODEL 5
REMARK VINA RESULT:      -7.5     13.673     14.613
REMARK  Name = 342294
REMARK  2 active torsions:
REMARK  status: ('A' for Active; 'I' for Inactive)
REMARK    1  A    between atoms: O_2  and  C_10
REMARK    2  A    between atoms: C_4  and  C_9
REMARK                            x       y       z     vdW  Elec       q    Type
REMARK                         _______ _______ _______ _____ _____    ______ ____
ROOT
ATOM      1  O   UNL     1     113.978 127.455 136.306  0.00  0.00    +0.000 OA
ATOM      2  O   UNL     1     114.050 130.134 135.247  0.00  0.00    +0.000 OA
ATOM      3  C   UNL     1     113.530 126.757 136.531  0.00  0.00    +0.000 C 
ATOM      4  C   UNL     1     112.677 126.750 136.433  0.00  0.00    +0.000 C 
ATOM      5  C   UNL     1     112.282 127.441 136.110  0.00  0.00    +0.000 C 
ATOM      6  C   UNL     1     112.746 128.131 135.890  0.00  0.00    +0.000 A 
ATOM      7  C   UNL     1     113.565 128.138 135.985  0.00  0.00    +0.000 A 
ATOM      8  C   UNL     1     112.361 128.792 135.581  0.00  0.00    +0.000 A 
ATOM      9  C   UNL     1     114.000 128.805 135.771  0.00  0.00    +0.000 A 
ATOM     10  C   UNL     1     112.795 129.459 135.367  0.00  0.00    +0.000 A 
ATOM     11  C   UNL     1     113.615 129.466 135.462  0.00  0.00    +0.000 A 
ENDROOT
BRANCH   3  12
ATOM     12  C   UNL     1     113.919 126.098 136.840  0.00  0.00    +0.000 A 
ATOM     13  C   UNL     1     114.306 125.572 136.336  0.00  0.00    +0.000 A 
ATOM     14  C   UNL     1     113.920 125.964 137.655  0.00  0.00    +0.000 A 
ATOM     15  C   UNL     1     114.694 124.913 136.645  0.00  0.00    +0.000 A 
ATOM     16  C   UNL     1     114.308 125.305 137.964  0.00  0.00    +0.000 A 
ATOM     17  C   UNL     1     114.695 124.780 137.460  0.00  0.00    +0.000 A 
ENDBRANCH   3  12
BRANCH   8  18
ATOM     18  O   UNL     1     111.542 128.785 135.486  0.00  0.00    +0.000 OA
ATOM     19  C   UNL     1     111.161 129.427 135.136  0.00  0.00    +0.000 C 
ENDBRANCH   8  18
TORSDOF 2
ENDMDL
MODEL 6
REMARK VINA RESULT:      -7.5     13.205     14.326
REMARK  Name = 342294
REMARK  2 active torsions:
REMARK  status: ('A' for Active; 'I' for Inactive)
REMARK    1  A    between atoms: O_2  and  C_10
REMARK    2  A    between atoms: C_4  and  C_9
REMARK                            x       y       z     vdW  Elec       q    Type
REMARK                         _______ _______ _______ _____ _____    ______ ____
ROOT
ATOM      1  O   UNL     1     113.996 126.889 136.709  0.00  0.00    +0.000 OA
ATOM      2  O   UNL     1     114.860 124.245 137.461  0.00  0.00    +0.000 OA
ATOM      3  C   UNL     1     113.383 127.415 136.418  0.00  0.00    +0.000 C 
ATOM      4  C   UNL     1     112.608 127.099 136.227  0.00  0.00    +0.000 C 
ATOM      5  C   UNL     1     112.456 126.259 136.329  0.00  0.00    +0.000 C 
ATOM      6  C   UNL     1     113.082 125.747 136.621  0.00  0.00    +0.000 A 
ATOM      7  C   UNL     1     113.826 126.052 136.805  0.00  0.00    +0.000 A 
ATOM      8  C   UNL     1     112.930 124.943 136.717  0.00  0.00    +0.000 A 
ATOM      9  C   UNL     1     114.419 125.551 137.085  0.00  0.00    +0.000 A 
ATOM     10  C   UNL     1     113.522 124.442 136.997  0.00  0.00    +0.000 A 
ATOM     11  C   UNL     1     114.267 124.746 137.181  0.00  0.00    +0.000 A 
ENDROOT
BRANCH   3  12
ATOM     12  C   UNL     1     113.539 128.220 136.323  0.00  0.00    +0.000 A 
ATOM     13  C   UNL     1     113.313 128.757 136.908  0.00  0.00    +0.000 A 
ATOM     14  C   UNL     1     113.920 128.489 135.643  0.00  0.00    +0.000 A 
ATOM     15  C   UNL     1     113.469 129.561 136.812  0.00  0.00    +0.000 A 
ATOM     16  C   UNL     1     114.076 129.293 135.547  0.00  0.00    +0.000 A 
ATOM     17  C   UNL     1     113.850 129.829 136.132  0.00  0.00    +0.000 A 
ENDBRANCH   3  12
BRANCH   8  18
ATOM     18  O   UNL     1     112.186 124.639 136.534  0.00  0.00    +0.000 OA
ATOM     19  C   UNL     1     112.012 123.848 136.692  0.00  0.00    +0.000 C 
ENDBRANCH   8  18
TORSDOF 2
ENDMDL
MODEL 7
REMARK VINA RESULT:      -7.4     13.094     13.980
REMARK  Name = 342294
REMARK  2 active torsions:
REMARK  status: ('A' for Active; 'I' for Inactive)
REMARK    1  A    between atoms: O_2  and  C_10
REMARK    2  A    between atoms: C_4  and  C_9
REMARK                            x       y       z     vdW  Elec       q    Type
REMARK                         _______ _______ _______ _____ _____    ______ ____
ROOT
ATOM      1  O   UNL     1     112.285 127.172 135.979  0.00  0.00    +0.000 OA
ATOM      2  O   UNL     1     110.185 125.310 135.330  0.00  0.00    +0.000 OA
ATOM      3  C   UNL     1     113.039 127.340 136.354  0.00  0.00    +0.000 C 
ATOM      4  C   UNL     1     113.457 126.713 136.765  0.00  0.00    +0.000 C 
ATOM      5  C   UNL     1     113.116 125.925 136.796  0.00  0.00    +0.000 C 
ATOM      6  C   UNL     1     112.360 125.775 136.415  0.00  0.00    +0.000 A 
ATOM      7  C   UNL     1     111.958 126.378 136.020  0.00  0.00    +0.000 A 
ATOM      8  C   UNL     1     112.037 125.018 136.448  0.00  0.00    +0.000 A 
ATOM      9  C   UNL     1     111.233 126.223 135.659  0.00  0.00    +0.000 A 
ATOM     10  C   UNL     1     111.312 124.862 136.087  0.00  0.00    +0.000 A 
ATOM     11  C   UNL     1     110.910 125.465 135.692  0.00  0.00    +0.000 A 
ENDROOT
BRANCH   3  12
ATOM     12  C   UNL     1     113.360 128.100 136.318  0.00  0.00    +0.000 A 
ATOM     13  C   UNL     1     113.172 128.655 136.899  0.00  0.00    +0.000 A 
ATOM     14  C   UNL     1     113.868 128.305 135.701  0.00  0.00    +0.000 A 
ATOM     15  C   UNL     1     113.492 129.414 136.863  0.00  0.00    +0.000 A 
ATOM     16  C   UNL     1     114.189 129.064 135.666  0.00  0.00    +0.000 A 
ATOM     17  C   UNL     1     114.001 129.619 136.246  0.00  0.00    +0.000 A 
ENDBRANCH   3  12
BRANCH   8  18
ATOM     18  O   UNL     1     112.438 124.415 136.843  0.00  0.00    +0.000 OA
ATOM     19  C   UNL     1     112.111 123.659 136.885  0.00  0.00    +0.000 C 
ENDBRANCH   8  18
TORSDOF 2
ENDMDL
MODEL 8
REMARK VINA RESULT:      -7.3     10.873     12.388
REMARK  Name = 342294
REMARK  2 active torsions:
REMARK  status: ('A' for Active; 'I' for Inactive)
REMARK    1  A    between atoms: O_2  and  C_10
REMARK    2  A    between atoms: C_4  and  C_9
REMARK                            x       y       z     vdW  Elec       q    Type
REMARK                         _______ _______ _______ _____ _____    ______ ____
ROOT
ATOM      1  O   UNL     1     113.873 126.366 138.923  0.00  0.00    +0.000 OA
ATOM      2  O   UNL     1     113.699 127.626 141.508  0.00  0.00    +0.000 OA
ATOM      3  C   UNL     1     113.492 125.972 138.261  0.00  0.00    +0.000 C 
ATOM      4  C   UNL     1     112.644 125.837 138.279  0.00  0.00    +0.000 C 
ATOM      5  C   UNL     1     112.187 126.099 138.958  0.00  0.00    +0.000 C 
ATOM      6  C   UNL     1     112.585 126.492 139.611  0.00  0.00    +0.000 A 
ATOM      7  C   UNL     1     113.400 126.621 139.594  0.00  0.00    +0.000 A 
ATOM      8  C   UNL     1     112.142 126.741 140.260  0.00  0.00    +0.000 A 
ATOM      9  C   UNL     1     113.771 126.999 140.226  0.00  0.00    +0.000 A 
ATOM     10  C   UNL     1     112.513 127.119 140.892  0.00  0.00    +0.000 A 
ATOM     11  C   UNL     1     113.327 127.248 140.875  0.00  0.00    +0.000 A 
ENDROOT
BRANCH   3  12
ATOM     12  C   UNL     1     113.939 125.724 137.613  0.00  0.00    +0.000 A 
ATOM     13  C   UNL     1     113.961 126.182 136.927  0.00  0.00    +0.000 A 
ATOM     14  C   UNL     1     114.364 125.018 137.652  0.00  0.00    +0.000 A 
ATOM     15  C   UNL     1     114.408 125.933 136.280  0.00  0.00    +0.000 A 
ATOM     16  C   UNL     1     114.811 124.770 137.004  0.00  0.00    +0.000 A 
ATOM     17  C   UNL     1     114.833 125.227 136.318  0.00  0.00    +0.000 A 
ENDBRANCH   3  12
BRANCH   8  18
ATOM     18  O   UNL     1     111.328 126.611 140.277  0.00  0.00    +0.000 OA
ATOM     19  C   UNL     1     110.902 126.747 140.971  0.00  0.00    +0.000 C 
ENDBRANCH   8  18
TORSDOF 2
ENDMDL
MODEL 9
REMARK VINA RESULT:      -7.3      9.616     10.514
REMARK  Name = 342294
REMARK  2 active torsions:
REMARK  status: ('A' for Active; 'I' for Inactive)
REMARK    1  A    between atoms: O_2  and  C_10
REMARK    2  A    between atoms: C_4  and  C_9
REMARK                            x       y       z     vdW  Elec       q    Type
REMARK                         _______ _______ _______ _____ _____    ______ ____
ROOT
ATOM      1  O   UNL     1     102.725 132.015 141.101  0.00  0.00    +0.000 OA
ATOM      2  O   UNL     1     103.094 134.872 141.023  0.00  0.00    +0.000 OA
ATOM      3  C   UNL     1     102.281 131.331 141.370  0.00  0.00    +0.000 C 
ATOM      4  C   UNL     1     101.589 131.442 141.866  0.00  0.00    +0.000 C 
ATOM      5  C   UNL     1     101.348 132.237 142.086  0.00  0.00    +0.000 C 
ATOM      6  C   UNL     1     101.804 132.910 141.807  0.00  0.00    +0.000 A 
ATOM      7  C   UNL     1     102.469 132.803 141.331  0.00  0.00    +0.000 A 
ATOM      8  C   UNL     1     101.569 133.671 142.021  0.00  0.00    +0.000 A 
ATOM      9  C   UNL     1     102.899 133.457 141.070  0.00  0.00    +0.000 A 
ATOM     10  C   UNL     1     101.998 134.324 141.760  0.00  0.00    +0.000 A 
ATOM     11  C   UNL     1     102.663 134.217 141.284  0.00  0.00    +0.000 A 
ENDROOT
BRANCH   3  12
ATOM     12  C   UNL     1     102.520 130.571 141.153  0.00  0.00    +0.000 A 
ATOM     13  C   UNL     1     102.200 130.212 140.483  0.00  0.00    +0.000 A 
ATOM     14  C   UNL     1     103.079 130.169 141.608  0.00  0.00    +0.000 A 
ATOM     15  C   UNL     1     102.439 129.453 140.267  0.00  0.00    +0.000 A 
ATOM     16  C   UNL     1     103.318 129.410 141.393  0.00  0.00    +0.000 A 
ATOM     17  C   UNL     1     102.998 129.051 140.722  0.00  0.00    +0.000 A 
ENDBRANCH   3  12
BRANCH   8  18
ATOM     18  O   UNL     1     100.903 133.778 142.497  0.00  0.00    +0.000 OA
ATOM     19  C   UNL     1     100.710 134.530 142.774  0.00  0.00    +0.000 C 
ENDBRANCH   8  18
TORSDOF 2
ENDMDL
MODEL 10
REMARK VINA RESULT:      -7.2      1.432      4.142
REMARK  Name = 342294
REMARK  2 active torsions:
REMARK  status: ('A' for Active; 'I' for Inactive)
REMARK    1  A    between atoms: O_2  and  C_10
REMARK    2  A    between atoms: C_4  and  C_9
REMARK                            x       y       z     vdW  Elec       q    Type
REMARK                         _______ _______ _______ _____ _____    ______ ____
ROOT
ATOM      1  O   UNL     1     103.937 124.299 145.857  0.00  0.00    +0.000 OA
ATOM      2  O   UNL     1     106.467 125.240 144.849  0.00  0.00    +0.000 OA
ATOM      3  C   UNL     1     103.434 124.088 146.520  0.00  0.00    +0.000 C 
ATOM      4  C   UNL     1     103.738 124.153 147.321  0.00  0.00    +0.000 C 
ATOM      5  C   UNL     1     104.542 124.428 147.448  0.00  0.00    +0.000 C 
ATOM      6  C   UNL     1     105.031 124.636 146.772  0.00  0.00    +0.000 A 
ATOM      7  C   UNL     1     104.739 124.573 146.003  0.00  0.00    +0.000 A 
ATOM      8  C   UNL     1     105.801 124.899 146.900  0.00  0.00    +0.000 A 
ATOM      9  C   UNL     1     105.217 124.775 145.362  0.00  0.00    +0.000 A 
ATOM     10  C   UNL     1     106.280 125.101 146.259  0.00  0.00    +0.000 A 
ATOM     11  C   UNL     1     105.987 125.039 145.491  0.00  0.00    +0.000 A 
ENDROOT
BRANCH   3  12
ATOM     12  C   UNL     1     102.663 123.824 146.388  0.00  0.00    +0.000 A 
ATOM     13  C   UNL     1     102.022 124.282 146.633  0.00  0.00    +0.000 A 
ATOM     14  C   UNL     1     102.533 123.102 146.011  0.00  0.00    +0.000 A 
ATOM     15  C   UNL     1     101.251 124.018 146.501  0.00  0.00    +0.000 A 
ATOM     16  C   UNL     1     101.763 122.837 145.879  0.00  0.00    +0.000 A 
ATOM     17  C   UNL     1     101.122 123.295 146.124  0.00  0.00    +0.000 A 
ENDBRANCH   3  12
BRANCH   8  18
ATOM     18  O   UNL     1     106.094 124.962 147.669  0.00  0.00    +0.000 OA
ATOM     19  C   UNL     1     106.893 125.119 147.795  0.00  0.00    +0.000 C 
ENDBRANCH   8  18
TORSDOF 2
ENDMDL
