MODEL 1
REMARK VINA RESULT:     -11.1      0.000      0.000
REMARK  Name = 44259596
REMARK  9 active torsions:
REMARK  status: ('A' for Active; 'I' for Inactive)
REMARK    1  A    between atoms: O_1  and  C_21
REMARK    2  A    between atoms: O_1  and  C_26
REMARK    3  A    between atoms: O_3  and  C_24
REMARK    4  A    between atoms: O_3  and  C_34
REMARK    5  A    between atoms: O_13  and  C_36
REMARK    6  A    between atoms: O_13  and  C_39
REMARK    7  A    between atoms: O_18  and  C_50
REMARK    8  A    between atoms: C_29  and  C_34
REMARK    9  A    between atoms: C_40  and  C_43
REMARK                            x       y       z     vdW  Elec       q    Type
REMARK                         _______ _______ _______ _____ _____    ______ ____
ROOT
ATOM      1  O   UNL     1     111.286 126.536 137.013  0.00  0.00    +0.000 OA
ATOM      2  O   UNL     1     111.334 124.438 137.615  0.00  0.00    +0.000 OA
ATOM      3  O   UNL     1     111.215 124.288 135.976  0.00  0.00    +0.000 OA
ATOM      4  O   UNL     1     111.144 125.637 135.028  0.00  0.00    +0.000 OA
ATOM      5  C   UNL     1     111.322 125.861 137.487  0.00  0.00    +0.000 C 
ATOM      6  C   UNL     1     111.298 125.112 137.141  0.00  0.00    +0.000 C 
ATOM      7  C   UNL     1     111.239 125.038 136.322  0.00  0.00    +0.000 C 
ATOM      8  C   UNL     1     111.203 125.712 135.848  0.00  0.00    +0.000 C 
ATOM      9  C   UNL     1     111.227 126.460 136.193  0.00  0.00    +0.000 C 
ENDROOT
BRANCH   9  10
ATOM     10  O   UNL     1     111.191 127.135 135.719  0.00  0.00    +0.000 OA
BRANCH  10  14
ATOM     11  O   UNL     1     111.785 129.176 136.212  0.00  0.00    +0.000 OA
ATOM     12  O   UNL     1     112.831 126.973 135.791  0.00  0.00    +0.000 OA
ATOM     13  O   UNL     1     114.148 127.527 136.000  0.00  0.00    +0.000 OA
ATOM     14  C   UNL     1     111.663 127.789 135.895  0.00  0.00    +0.000 A 
ATOM     15  C   UNL     1     111.314 128.523 136.036  0.00  0.00    +0.000 A 
ATOM     16  C   UNL     1     112.483 127.708 135.931  0.00  0.00    +0.000 A 
ATOM     17  C   UNL     1     112.954 128.362 136.108  0.00  0.00    +0.000 A 
ATOM     18  C   UNL     1     112.606 129.096 136.248  0.00  0.00    +0.000 A 
ATOM     19  C   UNL     1     113.807 128.265 136.142  0.00  0.00    +0.000 A 
ATOM     20  C   UNL     1     113.085 129.785 136.432  0.00  0.00    +0.000 A 
ATOM     21  C   UNL     1     114.304 128.942 136.325  0.00  0.00    +0.000 A 
ATOM     22  C   UNL     1     113.941 129.707 136.471  0.00  0.00    +0.000 A 
BRANCH  15  25
ATOM     23  O   UNL     1     108.800 128.870 137.350  0.00  0.00    +0.000 OA
ATOM     24  O   UNL     1     108.033 128.843 135.889  0.00  0.00    +0.000 OA
ATOM     25  C   UNL     1     110.493 128.603 136.000  0.00  0.00    +0.000 A 
ATOM     26  C   UNL     1     110.057 128.697 136.693  0.00  0.00    +0.000 A 
ATOM     27  C   UNL     1     110.110 128.590 135.270  0.00  0.00    +0.000 A 
ATOM     28  C   UNL     1     109.236 128.777 136.657  0.00  0.00    +0.000 A 
ATOM     29  C   UNL     1     109.290 128.670 135.232  0.00  0.00    +0.000 A 
ATOM     30  C   UNL     1     108.853 128.763 135.927  0.00  0.00    +0.000 A 
ENDBRANCH  15  25
BRANCH  22  31
ATOM     31  O   UNL     1     114.410 130.362 136.648  0.00  0.00    +0.000 OA
ATOM     32  C   UNL     1     114.795 130.770 136.043  0.00  0.00    +0.000 C 
ENDBRANCH  22  31
ENDBRANCH  10  14
ENDBRANCH   9  10
BRANCH   5  33
ATOM     33  C   UNL     1     111.381 125.935 138.306  0.00  0.00    +0.000 C 
BRANCH  33  34
ATOM     34  O   UNL     1     112.094 126.166 138.650  0.00  0.00    +0.000 OA
BRANCH  34  41
ATOM     35  O   UNL     1     111.455 126.368 139.911  0.00  0.00    +0.000 OA
ATOM     36  O   UNL     1     113.407 127.014 139.180  0.00  0.00    +0.000 OA
ATOM     37  O   UNL     1     112.127 127.417 141.703  0.00  0.00    +0.000 OA
ATOM     38  C   UNL     1     112.767 127.216 140.442  0.00  0.00    +0.000 C 
ATOM     39  C   UNL     1     112.758 126.903 139.678  0.00  0.00    +0.000 C 
ATOM     40  C   UNL     1     112.118 127.104 140.940  0.00  0.00    +0.000 C 
ATOM     41  C   UNL     1     112.102 126.479 139.413  0.00  0.00    +0.000 C 
ATOM     42  C   UNL     1     111.462 126.680 140.675  0.00  0.00    +0.000 C 
ATOM     43  C   UNL     1     110.815 126.569 141.173  0.00  0.00    +0.000 C 
BRANCH  38  44
ATOM     44  O   UNL     1     113.423 127.639 140.707  0.00  0.00    +0.000 OA
BRANCH  44  49
ATOM     45  O   UNL     1     112.838 128.868 140.271  0.00  0.00    +0.000 OA
ATOM     46  O   UNL     1     114.884 128.391 140.865  0.00  0.00    +0.000 OA
ATOM     47  O   UNL     1     115.029 129.995 140.508  0.00  0.00    +0.000 OA
ATOM     48  O   UNL     1     113.713 130.848 139.993  0.00  0.00    +0.000 OA
ATOM     49  C   UNL     1     113.495 128.442 140.528  0.00  0.00    +0.000 C 
ATOM     50  C   UNL     1     114.225 128.818 140.607  0.00  0.00    +0.000 C 
ATOM     51  C   UNL     1     114.299 129.620 140.429  0.00  0.00    +0.000 C 
ATOM     52  C   UNL     1     113.641 130.045 140.172  0.00  0.00    +0.000 C 
ATOM     53  C   UNL     1     112.910 129.670 140.093  0.00  0.00    +0.000 C 
ATOM     54  C   UNL     1     112.253 130.097 139.835  0.00  0.00    +0.000 C 
ENDBRANCH  44  49
ENDBRANCH  38  44
ENDBRANCH  34  41
ENDBRANCH  33  34
ENDBRANCH   5  33
TORSDOF 9
ENDMDL
MODEL 2
REMARK VINA RESULT:     -11.1      1.376      4.897
REMARK  Name = 44259596
REMARK  9 active torsions:
REMARK  status: ('A' for Active; 'I' for Inactive)
REMARK    1  A    between atoms: O_1  and  C_21
REMARK    2  A    between atoms: O_1  and  C_26
REMARK    3  A    between atoms: O_3  and  C_24
REMARK    4  A    between atoms: O_3  and  C_34
REMARK    5  A    between atoms: O_13  and  C_36
REMARK    6  A    between atoms: O_13  and  C_39
REMARK    7  A    between atoms: O_18  and  C_50
REMARK    8  A    between atoms: C_29  and  C_34
REMARK    9  A    between atoms: C_40  and  C_43
REMARK                            x       y       z     vdW  Elec       q    Type
REMARK                         _______ _______ _______ _____ _____    ______ ____
ROOT
ATOM      1  O   UNL     1     113.079 129.344 139.086  0.00  0.00    +0.000 OA
ATOM      2  O   UNL     1     113.964 128.764 140.996  0.00  0.00    +0.000 OA
ATOM      3  O   UNL     1     114.815 130.138 140.662  0.00  0.00    +0.000 OA
ATOM      4  O   UNL     1     114.509 130.982 139.278  0.00  0.00    +0.000 OA
ATOM      5  C   UNL     1     113.232 128.921 139.778  0.00  0.00    +0.000 C 
ATOM      6  C   UNL     1     113.811 129.186 140.304  0.00  0.00    +0.000 C 
ATOM      7  C   UNL     1     114.236 129.873 140.137  0.00  0.00    +0.000 C 
ATOM      8  C   UNL     1     114.083 130.295 139.444  0.00  0.00    +0.000 C 
ATOM      9  C   UNL     1     113.505 130.031 138.920  0.00  0.00    +0.000 C 
ENDROOT
BRANCH   9  10
ATOM     10  O   UNL     1     113.352 130.453 138.228  0.00  0.00    +0.000 OA
BRANCH  10  14
ATOM     11  O   UNL     1     111.635 130.305 136.888  0.00  0.00    +0.000 OA
ATOM     12  O   UNL     1     112.158 131.078 139.180  0.00  0.00    +0.000 OA
ATOM     13  O   UNL     1     110.783 131.458 139.396  0.00  0.00    +0.000 OA
ATOM     14  C   UNL     1     112.580 130.508 137.939  0.00  0.00    +0.000 A 
ATOM     15  C   UNL     1     112.406 130.250 137.175  0.00  0.00    +0.000 A 
ATOM     16  C   UNL     1     111.984 130.820 138.416  0.00  0.00    +0.000 A 
ATOM     17  C   UNL     1     111.212 130.875 138.128  0.00  0.00    +0.000 A 
ATOM     18  C   UNL     1     111.038 130.617 137.363  0.00  0.00    +0.000 A 
ATOM     19  C   UNL     1     110.600 131.202 138.633  0.00  0.00    +0.000 A 
ATOM     20  C   UNL     1     110.239 130.669 137.052  0.00  0.00    +0.000 A 
ATOM     21  C   UNL     1     109.794 131.262 138.339  0.00  0.00    +0.000 A 
ATOM     22  C   UNL     1     109.612 130.994 137.543  0.00  0.00    +0.000 A 
BRANCH  15  25
ATOM     23  O   UNL     1     113.646 128.007 135.910  0.00  0.00    +0.000 OA
ATOM     24  O   UNL     1     114.796 129.003 135.272  0.00  0.00    +0.000 OA
ATOM     25  C   UNL     1     113.003 129.937 136.699  0.00  0.00    +0.000 A 
ATOM     26  C   UNL     1     113.026 129.128 136.543  0.00  0.00    +0.000 A 
ATOM     27  C   UNL     1     113.578 130.435 136.380  0.00  0.00    +0.000 A 
ATOM     28  C   UNL     1     113.623 128.816 136.067  0.00  0.00    +0.000 A 
ATOM     29  C   UNL     1     114.176 130.124 135.905  0.00  0.00    +0.000 A 
ATOM     30  C   UNL     1     114.198 129.314 135.748  0.00  0.00    +0.000 A 
ENDBRANCH  15  25
BRANCH  22  31
ATOM     31  O   UNL     1     108.842 131.047 137.253  0.00  0.00    +0.000 OA
ATOM     32  C   UNL     1     108.591 131.734 136.873  0.00  0.00    +0.000 C 
ENDBRANCH  22  31
ENDBRANCH  10  14
ENDBRANCH   9  10
BRANCH   5  33
ATOM     33  C   UNL     1     112.807 128.235 139.945  0.00  0.00    +0.000 C 
BRANCH  33  34
ATOM     34  O   UNL     1     112.797 127.613 139.403  0.00  0.00    +0.000 OA
BRANCH  34  41
ATOM     35  O   UNL     1     111.494 127.234 139.849  0.00  0.00    +0.000 OA
ATOM     36  O   UNL     1     112.877 126.248 138.479  0.00  0.00    +0.000 OA
ATOM     37  O   UNL     1     110.270 125.491 139.371  0.00  0.00    +0.000 OA
ATOM     38  C   UNL     1     111.573 125.870 138.925  0.00  0.00    +0.000 C 
ATOM     39  C   UNL     1     112.205 126.400 138.933  0.00  0.00    +0.000 C 
ATOM     40  C   UNL     1     110.901 126.022 139.380  0.00  0.00    +0.000 C 
ATOM     41  C   UNL     1     112.165 127.082 139.396  0.00  0.00    +0.000 C 
ATOM     42  C   UNL     1     110.861 126.704 139.842  0.00  0.00    +0.000 C 
ATOM     43  C   UNL     1     110.190 126.855 140.296  0.00  0.00    +0.000 C 
BRANCH  38  44
ATOM     44  O   UNL     1     111.613 125.187 138.463  0.00  0.00    +0.000 OA
BRANCH  44  49
ATOM     45  O   UNL     1     110.995 125.874 137.372  0.00  0.00    +0.000 OA
ATOM     46  O   UNL     1     111.967 123.921 137.466  0.00  0.00    +0.000 OA
ATOM     47  O   UNL     1     111.526 123.974 135.877  0.00  0.00    +0.000 OA
ATOM     48  O   UNL     1     110.732 125.294 135.285  0.00  0.00    +0.000 OA
ATOM     49  C   UNL     1     111.393 125.215 137.668  0.00  0.00    +0.000 C 
ATOM     50  C   UNL     1     111.570 124.582 137.170  0.00  0.00    +0.000 C 
ATOM     51  C   UNL     1     111.349 124.607 136.375  0.00  0.00    +0.000 C 
ATOM     52  C   UNL     1     110.952 125.267 136.080  0.00  0.00    +0.000 C 
ATOM     53  C   UNL     1     110.775 125.900 136.578  0.00  0.00    +0.000 C 
ATOM     54  C   UNL     1     110.378 126.560 136.282  0.00  0.00    +0.000 C 
ENDBRANCH  44  49
ENDBRANCH  38  44
ENDBRANCH  34  41
ENDBRANCH  33  34
ENDBRANCH   5  33
TORSDOF 9
ENDMDL
MODEL 3
REMARK VINA RESULT:     -10.9      1.449      3.591
REMARK  Name = 44259596
REMARK  9 active torsions:
REMARK  status: ('A' for Active; 'I' for Inactive)
REMARK    1  A    between atoms: O_1  and  C_21
REMARK    2  A    between atoms: O_1  and  C_26
REMARK    3  A    between atoms: O_3  and  C_24
REMARK    4  A    between atoms: O_3  and  C_34
REMARK    5  A    between atoms: O_13  and  C_36
REMARK    6  A    between atoms: O_13  and  C_39
REMARK    7  A    between atoms: O_18  and  C_50
REMARK    8  A    between atoms: C_29  and  C_34
REMARK    9  A    between atoms: C_40  and  C_43
REMARK                            x       y       z     vdW  Elec       q    Type
REMARK                         _______ _______ _______ _____ _____    ______ ____
ROOT
ATOM      1  O   UNL     1     111.582 129.033 136.729  0.00  0.00    +0.000 OA
ATOM      2  O   UNL     1     109.639 129.925 137.170  0.00  0.00    +0.000 OA
ATOM      3  O   UNL     1     109.651 130.005 135.522  0.00  0.00    +0.000 OA
ATOM      4  O   UNL     1     110.950 129.437 134.679  0.00  0.00    +0.000 OA
ATOM      5  C   UNL     1     110.932 129.317 137.151  0.00  0.00    +0.000 C 
ATOM      6  C   UNL     1     110.288 129.641 136.749  0.00  0.00    +0.000 C 
ATOM      7  C   UNL     1     110.295 129.681 135.925  0.00  0.00    +0.000 C 
ATOM      8  C   UNL     1     110.945 129.397 135.503  0.00  0.00    +0.000 C 
ATOM      9  C   UNL     1     111.587 129.073 135.905  0.00  0.00    +0.000 C 
ENDROOT
BRANCH   9  10
ATOM     10  O   UNL     1     112.237 128.789 135.483  0.00  0.00    +0.000 OA
BRANCH  10  14
ATOM     11  O   UNL     1     113.909 127.591 136.213  0.00  0.00    +0.000 OA
ATOM     12  O   UNL     1     111.488 127.346 135.762  0.00  0.00    +0.000 OA
ATOM     13  O   UNL     1     111.519 125.968 136.191  0.00  0.00    +0.000 OA
ATOM     14  C   UNL     1     112.670 128.149 135.773  0.00  0.00    +0.000 A 
ATOM     15  C   UNL     1     113.477 128.230 135.923  0.00  0.00    +0.000 A 
ATOM     16  C   UNL     1     112.295 127.427 135.912  0.00  0.00    +0.000 A 
ATOM     17  C   UNL     1     112.728 126.787 136.202  0.00  0.00    +0.000 A 
ATOM     18  C   UNL     1     113.535 126.869 136.353  0.00  0.00    +0.000 A 
ATOM     19  C   UNL     1     112.326 126.041 136.344  0.00  0.00    +0.000 A 
ATOM     20  C   UNL     1     113.996 126.210 136.654  0.00  0.00    +0.000 A 
ATOM     21  C   UNL     1     112.772 125.370 136.646  0.00  0.00    +0.000 A 
ATOM     22  C   UNL     1     113.612 125.455 136.802  0.00  0.00    +0.000 A 
BRANCH  15  25
ATOM     23  O   UNL     1     114.601 130.668 136.904  0.00  0.00    +0.000 OA
ATOM     24  O   UNL     1     114.973 131.118 135.361  0.00  0.00    +0.000 OA
ATOM     25  C   UNL     1     113.851 128.953 135.783  0.00  0.00    +0.000 A 
ATOM     26  C   UNL     1     114.039 129.449 136.413  0.00  0.00    +0.000 A 
ATOM     27  C   UNL     1     114.037 129.177 135.011  0.00  0.00    +0.000 A 
ATOM     28  C   UNL     1     114.413 130.172 136.273  0.00  0.00    +0.000 A 
ATOM     29  C   UNL     1     114.411 129.899 134.870  0.00  0.00    +0.000 A 
ATOM     30  C   UNL     1     114.599 130.396 135.502  0.00  0.00    +0.000 A 
ENDBRANCH  15  25
BRANCH  22  31
ATOM     31  O   UNL     1     114.047 124.817 137.092  0.00  0.00    +0.000 OA
ATOM     32  C   UNL     1     114.640 124.941 137.651  0.00  0.00    +0.000 C 
ENDBRANCH  22  31
ENDBRANCH  10  14
ENDBRANCH   9  10
BRANCH   5  33
ATOM     33  C   UNL     1     110.926 129.277 137.975  0.00  0.00    +0.000 C 
BRANCH  33  34
ATOM     34  O   UNL     1     111.520 129.647 138.411  0.00  0.00    +0.000 OA
BRANCH  34  41
ATOM     35  O   UNL     1     111.835 128.499 139.202  0.00  0.00    +0.000 OA
ATOM     36  O   UNL     1     111.903 130.628 139.681  0.00  0.00    +0.000 OA
ATOM     37  O   UNL     1     112.532 128.333 141.264  0.00  0.00    +0.000 OA
ATOM     38  C   UNL     1     112.217 129.481 140.473  0.00  0.00    +0.000 C 
ATOM     39  C   UNL     1     111.964 129.808 139.759  0.00  0.00    +0.000 C 
ATOM     40  C   UNL     1     112.279 128.661 140.551  0.00  0.00    +0.000 C 
ATOM     41  C   UNL     1     111.773 129.318 139.124  0.00  0.00    +0.000 C 
ATOM     42  C   UNL     1     112.088 128.170 139.916  0.00  0.00    +0.000 C 
ATOM     43  C   UNL     1     112.150 127.352 139.994  0.00  0.00    +0.000 C 
BRANCH  38  44
ATOM     44  O   UNL     1     112.409 129.971 141.108  0.00  0.00    +0.000 OA
BRANCH  44  49
ATOM     45  O   UNL     1     113.767 130.039 140.669  0.00  0.00    +0.000 OA
ATOM     46  O   UNL     1     112.690 131.203 142.169  0.00  0.00    +0.000 OA
ATOM     47  O   UNL     1     114.189 131.887 142.261  0.00  0.00    +0.000 OA
ATOM     48  O   UNL     1     115.406 131.339 141.291  0.00  0.00    +0.000 OA
ATOM     49  C   UNL     1     113.159 130.313 141.153  0.00  0.00    +0.000 C 
ATOM     50  C   UNL     1     113.299 130.928 141.684  0.00  0.00    +0.000 C 
ATOM     51  C   UNL     1     114.048 131.271 141.730  0.00  0.00    +0.000 C 
ATOM     52  C   UNL     1     114.656 130.997 141.245  0.00  0.00    +0.000 C 
ATOM     53  C   UNL     1     114.516 130.381 140.714  0.00  0.00    +0.000 C 
ATOM     54  C   UNL     1     115.125 130.108 140.230  0.00  0.00    +0.000 C 
ENDBRANCH  44  49
ENDBRANCH  38  44
ENDBRANCH  34  41
ENDBRANCH  33  34
ENDBRANCH   5  33
TORSDOF 9
ENDMDL
MODEL 4
REMARK VINA RESULT:     -10.9      1.348      5.390
REMARK  Name = 44259596
REMARK  9 active torsions:
REMARK  status: ('A' for Active; 'I' for Inactive)
REMARK    1  A    between atoms: O_1  and  C_21
REMARK    2  A    between atoms: O_1  and  C_26
REMARK    3  A    between atoms: O_3  and  C_24
REMARK    4  A    between atoms: O_3  and  C_34
REMARK    5  A    between atoms: O_13  and  C_36
REMARK    6  A    between atoms: O_13  and  C_39
REMARK    7  A    between atoms: O_18  and  C_50
REMARK    8  A    between atoms: C_29  and  C_34
REMARK    9  A    between atoms: C_40  and  C_43
REMARK                            x       y       z     vdW  Elec       q    Type
REMARK                         _______ _______ _______ _____ _____    ______ ____
ROOT
ATOM      1  O   UNL     1     112.884 128.281 139.316  0.00  0.00    +0.000 OA
ATOM      2  O   UNL     1     114.188 130.007 139.612  0.00  0.00    +0.000 OA
ATOM      3  O   UNL     1     114.360 129.235 141.060  0.00  0.00    +0.000 OA
ATOM      4  O   UNL     1     113.548 127.827 141.346  0.00  0.00    +0.000 OA
ATOM      5  C   UNL     1     113.290 128.985 139.173  0.00  0.00    +0.000 C 
ATOM      6  C   UNL     1     113.782 129.303 139.755  0.00  0.00    +0.000 C 
ATOM      7  C   UNL     1     113.868 128.917 140.479  0.00  0.00    +0.000 C 
ATOM      8  C   UNL     1     113.462 128.213 140.621  0.00  0.00    +0.000 C 
ATOM      9  C   UNL     1     112.970 127.896 140.041  0.00  0.00    +0.000 C 
ENDROOT
BRANCH   9  10
ATOM     10  O   UNL     1     112.564 127.192 140.184  0.00  0.00    +0.000 OA
BRANCH  10  14
ATOM     11  O   UNL     1     111.417 125.985 138.772  0.00  0.00    +0.000 OA
ATOM     12  O   UNL     1     113.774 126.566 139.252  0.00  0.00    +0.000 OA
ATOM     13  O   UNL     1     114.229 125.746 138.155  0.00  0.00    +0.000 OA
ATOM     14  C   UNL     1     112.383 126.685 139.557  0.00  0.00    +0.000 A 
ATOM     15  C   UNL     1     111.597 126.491 139.397  0.00  0.00    +0.000 A 
ATOM     16  C   UNL     1     112.988 126.373 139.092  0.00  0.00    +0.000 A 
ATOM     17  C   UNL     1     112.807 125.866 138.466  0.00  0.00    +0.000 A 
ATOM     18  C   UNL     1     112.021 125.672 138.306  0.00  0.00    +0.000 A 
ATOM     19  C   UNL     1     113.446 125.547 137.989  0.00  0.00    +0.000 A 
ATOM     20  C   UNL     1     111.820 125.146 137.657  0.00  0.00    +0.000 A 
ATOM     21  C   UNL     1     113.264 125.019 137.335  0.00  0.00    +0.000 A 
ATOM     22  C   UNL     1     112.446 124.817 137.168  0.00  0.00    +0.000 A 
BRANCH  15  25
ATOM     23  O   UNL     1     109.396 128.285 139.721  0.00  0.00    +0.000 OA
ATOM     24  O   UNL     1     109.180 127.741 141.264  0.00  0.00    +0.000 OA
ATOM     25  C   UNL     1     110.993 126.804 139.864  0.00  0.00    +0.000 A 
ATOM     26  C   UNL     1     110.497 127.388 139.559  0.00  0.00    +0.000 A 
ATOM     27  C   UNL     1     110.884 126.532 140.635  0.00  0.00    +0.000 A 
ATOM     28  C   UNL     1     109.892 127.701 140.026  0.00  0.00    +0.000 A 
ATOM     29  C   UNL     1     110.280 126.844 141.102  0.00  0.00    +0.000 A 
ATOM     30  C   UNL     1     109.784 127.429 140.797  0.00  0.00    +0.000 A 
ENDBRANCH  15  25
BRANCH  22  31
ATOM     31  O   UNL     1     112.262 124.311 136.543  0.00  0.00    +0.000 OA
ATOM     32  C   UNL     1     112.175 123.502 136.679  0.00  0.00    +0.000 C 
ENDBRANCH  22  31
ENDBRANCH  10  14
ENDBRANCH   9  10
BRANCH   5  33
ATOM     33  C   UNL     1     113.204 129.372 138.450  0.00  0.00    +0.000 C 
BRANCH  33  34
ATOM     34  O   UNL     1     112.451 129.537 138.156  0.00  0.00    +0.000 OA
BRANCH  34  41
ATOM     35  O   UNL     1     112.853 129.166 136.836  0.00  0.00    +0.000 OA
ATOM     36  O   UNL     1     111.105 130.268 137.541  0.00  0.00    +0.000 OA
ATOM     37  O   UNL     1     111.910 129.526 134.901  0.00  0.00    +0.000 OA
ATOM     38  C   UNL     1     111.508 129.897 136.221  0.00  0.00    +0.000 C 
ATOM     39  C   UNL     1     111.643 129.899 137.035  0.00  0.00    +0.000 C 
ATOM     40  C   UNL     1     112.046 129.528 135.714  0.00  0.00    +0.000 C 
ATOM     41  C   UNL     1     112.316 129.534 137.342  0.00  0.00    +0.000 C 
ATOM     42  C   UNL     1     112.718 129.163 136.022  0.00  0.00    +0.000 C 
ATOM     43  C   UNL     1     113.255 128.795 135.516  0.00  0.00    +0.000 C 
BRANCH  38  44
ATOM     44  O   UNL     1     110.835 130.262 135.913  0.00  0.00    +0.000 OA
BRANCH  44  49
ATOM     45  O   UNL     1     110.105 129.038 136.015  0.00  0.00    +0.000 OA
ATOM     46  O   UNL     1     109.432 131.073 135.599  0.00  0.00    +0.000 OA
ATOM     47  O   UNL     1     108.001 130.254 135.544  0.00  0.00    +0.000 OA
ATOM     48  O   UNL     1     107.972 128.624 135.803  0.00  0.00    +0.000 OA
ATOM     49  C   UNL     1     110.119 129.852 135.886  0.00  0.00    +0.000 C 
ATOM     50  C   UNL     1     109.418 130.257 135.729  0.00  0.00    +0.000 C 
ATOM     51  C   UNL     1     108.702 129.848 135.701  0.00  0.00    +0.000 C 
ATOM     52  C   UNL     1     108.688 129.034 135.831  0.00  0.00    +0.000 C 
ATOM     53  C   UNL     1     109.390 128.629 135.988  0.00  0.00    +0.000 C 
ATOM     54  C   UNL     1     109.375 127.814 136.118  0.00  0.00    +0.000 C 
ENDBRANCH  44  49
ENDBRANCH  38  44
ENDBRANCH  34  41
ENDBRANCH  33  34
ENDBRANCH   5  33
TORSDOF 9
ENDMDL
MODEL 5
REMARK VINA RESULT:     -10.8      1.710      3.700
REMARK  Name = 44259596
REMARK  9 active torsions:
REMARK  status: ('A' for Active; 'I' for Inactive)
REMARK    1  A    between atoms: O_1  and  C_21
REMARK    2  A    between atoms: O_1  and  C_26
REMARK    3  A    between atoms: O_3  and  C_24
REMARK    4  A    between atoms: O_3  and  C_34
REMARK    5  A    between atoms: O_13  and  C_36
REMARK    6  A    between atoms: O_13  and  C_39
REMARK    7  A    between atoms: O_18  and  C_50
REMARK    8  A    between atoms: C_29  and  C_34
REMARK    9  A    between atoms: C_40  and  C_43
REMARK                            x       y       z     vdW  Elec       q    Type
REMARK                         _______ _______ _______ _____ _____    ______ ____
ROOT
ATOM      1  O   UNL     1     110.704 130.323 138.432  0.00  0.00    +0.000 OA
ATOM      2  O   UNL     1     110.399 131.081 140.457  0.00  0.00    +0.000 OA
ATOM      3  O   UNL     1     110.140 132.448 139.571  0.00  0.00    +0.000 OA
ATOM      4  O   UNL     1     110.257 132.399 137.925  0.00  0.00    +0.000 OA
ATOM      5  C   UNL     1     110.646 130.348 139.255  0.00  0.00    +0.000 C 
ATOM      6  C   UNL     1     110.458 131.057 139.635  0.00  0.00    +0.000 C 
ATOM      7  C   UNL     1     110.328 131.740 139.191  0.00  0.00    +0.000 C 
ATOM      8  C   UNL     1     110.387 131.715 138.368  0.00  0.00    +0.000 C 
ATOM      9  C   UNL     1     110.574 131.007 137.990  0.00  0.00    +0.000 C 
ENDROOT
BRANCH   9  10
ATOM     10  O   UNL     1     110.633 130.983 137.167  0.00  0.00    +0.000 OA
BRANCH  10  14
ATOM     11  O   UNL     1     111.640 129.477 135.949  0.00  0.00    +0.000 OA
ATOM     12  O   UNL     1     112.214 131.357 137.453  0.00  0.00    +0.000 OA
ATOM     13  O   UNL     1     113.624 131.124 137.253  0.00  0.00    +0.000 OA
ATOM     14  C   UNL     1     111.233 130.543 136.808  0.00  0.00    +0.000 A 
ATOM     15  C   UNL     1     111.041 129.916 136.307  0.00  0.00    +0.000 A 
ATOM     16  C   UNL     1     112.023 130.731 136.952  0.00  0.00    +0.000 A 
ATOM     17  C   UNL     1     112.623 130.291 136.593  0.00  0.00    +0.000 A 
ATOM     18  C   UNL     1     112.431 129.664 136.092  0.00  0.00    +0.000 A 
ATOM     19  C   UNL     1     113.442 130.496 136.751  0.00  0.00    +0.000 A 
ATOM     20  C   UNL     1     113.046 129.199 135.713  0.00  0.00    +0.000 A 
ATOM     21  C   UNL     1     114.071 130.042 136.380  0.00  0.00    +0.000 A 
ATOM     22  C   UNL     1     113.872 129.389 135.858  0.00  0.00    +0.000 A 
BRANCH  15  25
ATOM     23  O   UNL     1     108.800 128.182 136.680  0.00  0.00    +0.000 OA
ATOM     24  O   UNL     1     107.878 129.171 135.735  0.00  0.00    +0.000 OA
ATOM     25  C   UNL     1     110.250 129.729 136.164  0.00  0.00    +0.000 A 
ATOM     26  C   UNL     1     109.921 129.049 136.493  0.00  0.00    +0.000 A 
ATOM     27  C   UNL     1     109.789 130.224 135.692  0.00  0.00    +0.000 A 
ATOM     28  C   UNL     1     109.130 128.862 136.351  0.00  0.00    +0.000 A 
ATOM     29  C   UNL     1     108.998 130.038 135.549  0.00  0.00    +0.000 A 
ATOM     30  C   UNL     1     108.668 129.357 135.878  0.00  0.00    +0.000 A 
ENDBRANCH  15  25
BRANCH  22  31
ATOM     31  O   UNL     1     114.469 128.948 135.499  0.00  0.00    +0.000 OA
ATOM     32  C   UNL     1     114.820 129.218 134.803  0.00  0.00    +0.000 C 
ENDBRANCH  22  31
ENDBRANCH  10  14
ENDBRANCH   9  10
BRANCH   5  33
ATOM     33  C   UNL     1     110.775 129.665 139.699  0.00  0.00    +0.000 C 
BRANCH  33  34
ATOM     34  O   UNL     1     111.485 129.252 139.624  0.00  0.00    +0.000 OA
BRANCH  34  41
ATOM     35  O   UNL     1     110.868 128.080 140.162  0.00  0.00    +0.000 OA
ATOM     36  O   UNL     1     112.842 128.379 139.279  0.00  0.00    +0.000 OA
ATOM     37  O   UNL     1     111.608 126.036 140.355  0.00  0.00    +0.000 OA
ATOM     38  C   UNL     1     112.225 127.207 139.817  0.00  0.00    +0.000 C 
ATOM     39  C   UNL     1     112.194 128.011 139.635  0.00  0.00    +0.000 C 
ATOM     40  C   UNL     1     111.577 126.840 140.173  0.00  0.00    +0.000 C 
ATOM     41  C   UNL     1     111.515 128.448 139.807  0.00  0.00    +0.000 C 
ATOM     42  C   UNL     1     110.898 127.276 140.345  0.00  0.00    +0.000 C 
ATOM     43  C   UNL     1     110.251 126.909 140.700  0.00  0.00    +0.000 C 
BRANCH  38  44
ATOM     44  O   UNL     1     112.904 126.771 139.645  0.00  0.00    +0.000 OA
BRANCH  44  49
ATOM     45  O   UNL     1     112.372 126.429 138.364  0.00  0.00    +0.000 OA
ATOM     46  O   UNL     1     114.360 126.127 139.212  0.00  0.00    +0.000 OA
ATOM     47  O   UNL     1     114.556 125.464 137.714  0.00  0.00    +0.000 OA
ATOM     48  O   UNL     1     113.296 125.443 136.649  0.00  0.00    +0.000 OA
ATOM     49  C   UNL     1     113.001 126.439 138.896  0.00  0.00    +0.000 C 
ATOM     50  C   UNL     1     113.729 126.117 138.679  0.00  0.00    +0.000 C 
ATOM     51  C   UNL     1     113.828 125.785 137.931  0.00  0.00    +0.000 C 
ATOM     52  C   UNL     1     113.197 125.775 137.399  0.00  0.00    +0.000 C 
ATOM     53  C   UNL     1     112.469 126.097 137.615  0.00  0.00    +0.000 C 
ATOM     54  C   UNL     1     111.839 126.087 137.083  0.00  0.00    +0.000 C 
ENDBRANCH  44  49
ENDBRANCH  38  44
ENDBRANCH  34  41
ENDBRANCH  33  34
ENDBRANCH   5  33
TORSDOF 9
ENDMDL
MODEL 6
REMARK VINA RESULT:     -10.8      2.063      3.700
REMARK  Name = 44259596
REMARK  9 active torsions:
REMARK  status: ('A' for Active; 'I' for Inactive)
REMARK    1  A    between atoms: O_1  and  C_21
REMARK    2  A    between atoms: O_1  and  C_26
REMARK    3  A    between atoms: O_3  and  C_24
REMARK    4  A    between atoms: O_3  and  C_34
REMARK    5  A    between atoms: O_13  and  C_36
REMARK    6  A    between atoms: O_13  and  C_39
REMARK    7  A    between atoms: O_18  and  C_50
REMARK    8  A    between atoms: C_29  and  C_34
REMARK    9  A    between atoms: C_40  and  C_43
REMARK                            x       y       z     vdW  Elec       q    Type
REMARK                         _______ _______ _______ _____ _____    ______ ____
ROOT
ATOM      1  O   UNL     1     110.170 129.327 136.849  0.00  0.00    +0.000 OA
ATOM      2  O   UNL     1     108.619 127.800 136.675  0.00  0.00    +0.000 OA
ATOM      3  O   UNL     1     108.125 128.878 135.528  0.00  0.00    +0.000 OA
ATOM      4  O   UNL     1     108.994 130.255 135.261  0.00  0.00    +0.000 OA
ATOM      5  C   UNL     1     109.735 128.638 136.982  0.00  0.00    +0.000 C 
ATOM      6  C   UNL     1     109.053 128.488 136.542  0.00  0.00    +0.000 C 
ATOM      7  C   UNL     1     108.807 129.028 135.968  0.00  0.00    +0.000 C 
ATOM      8  C   UNL     1     109.241 129.716 135.835  0.00  0.00    +0.000 C 
ATOM      9  C   UNL     1     109.922 129.866 136.275  0.00  0.00    +0.000 C 
ENDROOT
BRANCH   9  10
ATOM     10  O   UNL     1     110.356 130.554 136.141  0.00  0.00    +0.000 OA
BRANCH  10  14
ATOM     11  O   UNL     1     112.409 130.996 136.739  0.00  0.00    +0.000 OA
ATOM     12  O   UNL     1     111.197 129.554 135.134  0.00  0.00    +0.000 OA
ATOM     13  O   UNL     1     112.440 129.012 134.639  0.00  0.00    +0.000 OA
ATOM     14  C   UNL     1     111.181 130.535 136.173  0.00  0.00    +0.000 A 
ATOM     15  C   UNL     1     111.585 131.016 136.708  0.00  0.00    +0.000 A 
ATOM     16  C   UNL     1     111.601 130.034 135.669  0.00  0.00    +0.000 A 
ATOM     17  C   UNL     1     112.426 130.015 135.701  0.00  0.00    +0.000 A 
ATOM     18  C   UNL     1     112.830 130.496 136.236  0.00  0.00    +0.000 A 
ATOM     19  C   UNL     1     112.852 129.490 135.171  0.00  0.00    +0.000 A 
ATOM     20  C   UNL     1     113.687 130.485 136.279  0.00  0.00    +0.000 A 
ATOM     21  C   UNL     1     113.711 129.465 135.199  0.00  0.00    +0.000 A 
ATOM     22  C   UNL     1     114.131 129.966 135.756  0.00  0.00    +0.000 A 
BRANCH  15  25
ATOM     23  O   UNL     1     110.581 131.636 139.311  0.00  0.00    +0.000 OA
ATOM     24  O   UNL     1     109.901 133.018 138.719  0.00  0.00    +0.000 OA
ATOM     25  C   UNL     1     111.164 131.516 137.212  0.00  0.00    +0.000 A 
ATOM     26  C   UNL     1     111.083 131.326 138.010  0.00  0.00    +0.000 A 
ATOM     27  C   UNL     1     110.824 132.207 136.916  0.00  0.00    +0.000 A 
ATOM     28  C   UNL     1     110.662 131.826 138.513  0.00  0.00    +0.000 A 
ATOM     29  C   UNL     1     110.403 132.708 137.418  0.00  0.00    +0.000 A 
ATOM     30  C   UNL     1     110.322 132.517 138.217  0.00  0.00    +0.000 A 
ENDBRANCH  15  25
BRANCH  22  31
ATOM     31  O   UNL     1     114.955 129.948 135.790  0.00  0.00    +0.000 OA
ATOM     32  C   UNL     1     115.393 130.607 135.556  0.00  0.00    +0.000 C 
ENDBRANCH  22  31
ENDBRANCH  10  14
ENDBRANCH   9  10
BRANCH   5  33
ATOM     33  C   UNL     1     109.982 128.099 137.556  0.00  0.00    +0.000 C 
BRANCH  33  34
ATOM     34  O   UNL     1     110.787 127.980 137.692  0.00  0.00    +0.000 OA
BRANCH  34  41
ATOM     35  O   UNL     1     110.516 127.166 138.835  0.00  0.00    +0.000 OA
ATOM     36  O   UNL     1     112.313 127.360 137.611  0.00  0.00    +0.000 OA
ATOM     37  O   UNL     1     111.772 125.731 139.897  0.00  0.00    +0.000 OA
ATOM     38  C   UNL     1     112.043 126.545 138.754  0.00  0.00    +0.000 C 
ATOM     39  C   UNL     1     111.796 127.107 138.203  0.00  0.00    +0.000 C 
ATOM     40  C   UNL     1     111.525 126.293 139.346  0.00  0.00    +0.000 C 
ATOM     41  C   UNL     1     111.033 127.418 138.244  0.00  0.00    +0.000 C 
ATOM     42  C   UNL     1     110.762 126.604 139.386  0.00  0.00    +0.000 C 
ATOM     43  C   UNL     1     110.246 126.352 139.977  0.00  0.00    +0.000 C 
BRANCH  38  44
ATOM     44  O   UNL     1     112.806 126.235 138.713  0.00  0.00    +0.000 OA
BRANCH  44  49
ATOM     45  O   UNL     1     112.362 125.217 137.814  0.00  0.00    +0.000 OA
ATOM     46  O   UNL     1     114.374 125.835 138.392  0.00  0.00    +0.000 OA
ATOM     47  O   UNL     1     114.715 124.618 137.332  0.00  0.00    +0.000 OA
ATOM     48  O   UNL     1     113.487 123.799 136.593  0.00  0.00    +0.000 OA
ATOM     49  C   UNL     1     112.976 125.626 138.183  0.00  0.00    +0.000 C 
ATOM     50  C   UNL     1     113.760 125.426 138.022  0.00  0.00    +0.000 C 
ATOM     51  C   UNL     1     113.931 124.817 137.492  0.00  0.00    +0.000 C 
ATOM     52  C   UNL     1     113.316 124.409 137.124  0.00  0.00    +0.000 C 
ATOM     53  C   UNL     1     112.532 124.608 137.285  0.00  0.00    +0.000 C 
ATOM     54  C   UNL     1     111.918 124.199 136.915  0.00  0.00    +0.000 C 
ENDBRANCH  44  49
ENDBRANCH  38  44
ENDBRANCH  34  41
ENDBRANCH  33  34
ENDBRANCH   5  33
TORSDOF 9
ENDMDL
MODEL 7
REMARK VINA RESULT:     -10.8      1.635      2.728
REMARK  Name = 44259596
REMARK  9 active torsions:
REMARK  status: ('A' for Active; 'I' for Inactive)
REMARK    1  A    between atoms: O_1  and  C_21
REMARK    2  A    between atoms: O_1  and  C_26
REMARK    3  A    between atoms: O_3  and  C_24
REMARK    4  A    between atoms: O_3  and  C_34
REMARK    5  A    between atoms: O_13  and  C_36
REMARK    6  A    between atoms: O_13  and  C_39
REMARK    7  A    between atoms: O_18  and  C_50
REMARK    8  A    between atoms: C_29  and  C_34
REMARK    9  A    between atoms: C_40  and  C_43
REMARK                            x       y       z     vdW  Elec       q    Type
REMARK                         _______ _______ _______ _____ _____    ______ ____
ROOT
ATOM      1  O   UNL     1     111.581 127.090 137.761  0.00  0.00    +0.000 OA
ATOM      2  O   UNL     1     111.629 125.828 139.543  0.00  0.00    +0.000 OA
ATOM      3  O   UNL     1     111.209 124.724 138.391  0.00  0.00    +0.000 OA
ATOM      4  O   UNL     1     111.037 125.197 136.819  0.00  0.00    +0.000 OA
ATOM      5  C   UNL     1     111.667 126.853 138.547  0.00  0.00    +0.000 C 
ATOM      6  C   UNL     1     111.543 126.064 138.757  0.00  0.00    +0.000 C 
ATOM      7  C   UNL     1     111.333 125.513 138.181  0.00  0.00    +0.000 C 
ATOM      8  C   UNL     1     111.247 125.749 137.395  0.00  0.00    +0.000 C 
ATOM      9  C   UNL     1     111.371 126.537 137.186  0.00  0.00    +0.000 C 
ENDROOT
BRANCH   9  10
ATOM     10  O   UNL     1     111.286 126.773 136.400  0.00  0.00    +0.000 OA
BRANCH  10  14
ATOM     11  O   UNL     1     111.798 128.695 135.500  0.00  0.00    +0.000 OA
ATOM     12  O   UNL     1     112.934 126.709 136.445  0.00  0.00    +0.000 OA
ATOM     13  O   UNL     1     114.229 127.290 136.183  0.00  0.00    +0.000 OA
ATOM     14  C   UNL     1     111.731 127.404 136.107  0.00  0.00    +0.000 A 
ATOM     15  C   UNL     1     111.353 128.066 135.792  0.00  0.00    +0.000 A 
ATOM     16  C   UNL     1     112.555 127.371 136.130  0.00  0.00    +0.000 A 
ATOM     17  C   UNL     1     113.001 128.001 135.837  0.00  0.00    +0.000 A 
ATOM     18  C   UNL     1     112.623 128.663 135.522  0.00  0.00    +0.000 A 
ATOM     19  C   UNL     1     113.858 127.956 135.866  0.00  0.00    +0.000 A 
ATOM     20  C   UNL     1     113.075 129.325 135.215  0.00  0.00    +0.000 A 
ATOM     21  C   UNL     1     114.328 128.609 135.563  0.00  0.00    +0.000 A 
ATOM     22  C   UNL     1     113.934 129.298 135.235  0.00  0.00    +0.000 A 
BRANCH  15  25
ATOM     23  O   UNL     1     108.889 129.135 136.767  0.00  0.00    +0.000 OA
ATOM     24  O   UNL     1     108.057 128.190 135.701  0.00  0.00    +0.000 OA
ATOM     25  C   UNL     1     110.529 128.097 135.770  0.00  0.00    +0.000 A 
ATOM     26  C   UNL     1     110.121 128.600 136.280  0.00  0.00    +0.000 A 
ATOM     27  C   UNL     1     110.113 127.625 135.236  0.00  0.00    +0.000 A 
ATOM     28  C   UNL     1     109.296 128.632 136.257  0.00  0.00    +0.000 A 
ATOM     29  C   UNL     1     109.289 127.655 135.213  0.00  0.00    +0.000 A 
ATOM     30  C   UNL     1     108.880 128.159 135.724  0.00  0.00    +0.000 A 
ENDBRANCH  15  25
BRANCH  22  31
ATOM     31  O   UNL     1     114.378 129.929 134.942  0.00  0.00    +0.000 OA
ATOM     32  C   UNL     1     114.737 130.458 135.462  0.00  0.00    +0.000 C 
ENDBRANCH  22  31
ENDBRANCH  10  14
ENDBRANCH   9  10
BRANCH   5  33
ATOM     33  C   UNL     1     111.877 127.405 139.124  0.00  0.00    +0.000 C 
BRANCH  33  34
ATOM     34  O   UNL     1     111.378 128.041 139.288  0.00  0.00    +0.000 OA
BRANCH  34  41
ATOM     35  O   UNL     1     112.505 128.833 139.667  0.00  0.00    +0.000 OA
ATOM     36  O   UNL     1     110.399 129.360 139.444  0.00  0.00    +0.000 OA
ATOM     37  O   UNL     1     112.653 130.944 140.203  0.00  0.00    +0.000 OA
ATOM     38  C   UNL     1     111.526 130.152 139.823  0.00  0.00    +0.000 C 
ATOM     39  C   UNL     1     111.208 129.426 139.595  0.00  0.00    +0.000 C 
ATOM     40  C   UNL     1     112.335 130.218 139.974  0.00  0.00    +0.000 C 
ATOM     41  C   UNL     1     111.697 128.767 139.517  0.00  0.00    +0.000 C 
ATOM     42  C   UNL     1     112.825 129.559 139.896  0.00  0.00    +0.000 C 
ATOM     43  C   UNL     1     113.632 129.626 140.046  0.00  0.00    +0.000 C 
BRANCH  38  44
ATOM     44  O   UNL     1     111.036 130.811 139.901  0.00  0.00    +0.000 OA
BRANCH  44  49
ATOM     45  O   UNL     1     111.324 131.272 138.580  0.00  0.00    +0.000 OA
ATOM     46  O   UNL     1     109.608 131.637 139.878  0.00  0.00    +0.000 OA
ATOM     47  O   UNL     1     109.182 132.511 138.545  0.00  0.00    +0.000 OA
ATOM     48  O   UNL     1     110.184 132.559 137.235  0.00  0.00    +0.000 OA
ATOM     49  C   UNL     1     110.823 131.248 139.234  0.00  0.00    +0.000 C 
ATOM     50  C   UNL     1     110.109 131.661 139.223  0.00  0.00    +0.000 C 
ATOM     51  C   UNL     1     109.896 132.098 138.557  0.00  0.00    +0.000 C 
ATOM     52  C   UNL     1     110.397 132.121 137.902  0.00  0.00    +0.000 C 
ATOM     53  C   UNL     1     111.111 131.708 137.914  0.00  0.00    +0.000 C 
ATOM     54  C   UNL     1     111.612 131.732 137.258  0.00  0.00    +0.000 C 
ENDBRANCH  44  49
ENDBRANCH  38  44
ENDBRANCH  34  41
ENDBRANCH  33  34
ENDBRANCH   5  33
TORSDOF 9
ENDMDL
MODEL 8
REMARK VINA RESULT:     -10.8      1.920      4.700
REMARK  Name = 44259596
REMARK  9 active torsions:
REMARK  status: ('A' for Active; 'I' for Inactive)
REMARK    1  A    between atoms: O_1  and  C_21
REMARK    2  A    between atoms: O_1  and  C_26
REMARK    3  A    between atoms: O_3  and  C_24
REMARK    4  A    between atoms: O_3  and  C_34
REMARK    5  A    between atoms: O_13  and  C_36
REMARK    6  A    between atoms: O_13  and  C_39
REMARK    7  A    between atoms: O_18  and  C_50
REMARK    8  A    between atoms: C_29  and  C_34
REMARK    9  A    between atoms: C_40  and  C_43
REMARK                            x       y       z     vdW  Elec       q    Type
REMARK                         _______ _______ _______ _____ _____    ______ ____
ROOT
ATOM      1  O   UNL     1     111.623 126.587 136.223  0.00  0.00    +0.000 OA
ATOM      2  O   UNL     1     110.246 127.111 134.612  0.00  0.00    +0.000 OA
ATOM      3  O   UNL     1     110.022 125.479 134.694  0.00  0.00    +0.000 OA
ATOM      4  O   UNL     1     110.864 124.585 135.796  0.00  0.00    +0.000 OA
ATOM      5  C   UNL     1     111.201 127.034 135.673  0.00  0.00    +0.000 C 
ATOM      6  C   UNL     1     110.667 126.664 135.163  0.00  0.00    +0.000 C 
ATOM      7  C   UNL     1     110.556 125.848 135.204  0.00  0.00    +0.000 C 
ATOM      8  C   UNL     1     110.977 125.401 135.755  0.00  0.00    +0.000 C 
ATOM      9  C   UNL     1     111.510 125.770 136.264  0.00  0.00    +0.000 C 
ENDROOT
BRANCH   9  10
ATOM     10  O   UNL     1     111.931 125.323 136.815  0.00  0.00    +0.000 OA
BRANCH  10  14
ATOM     11  O   UNL     1     112.996 126.046 138.578  0.00  0.00    +0.000 OA
ATOM     12  O   UNL     1     110.669 125.696 137.810  0.00  0.00    +0.000 OA
ATOM     13  O   UNL     1     110.151 126.186 139.065  0.00  0.00    +0.000 OA
ATOM     14  C   UNL     1     112.076 125.626 137.569  0.00  0.00    +0.000 A 
ATOM     15  C   UNL     1     112.852 125.743 137.825  0.00  0.00    +0.000 A 
ATOM     16  C   UNL     1     111.445 125.812 138.066  0.00  0.00    +0.000 A 
ATOM     17  C   UNL     1     111.589 126.116 138.820  0.00  0.00    +0.000 A 
ATOM     18  C   UNL     1     112.365 126.232 139.076  0.00  0.00    +0.000 A 
ATOM     19  C   UNL     1     110.924 126.306 139.329  0.00  0.00    +0.000 A 
ATOM     20  C   UNL     1     112.528 126.547 139.858  0.00  0.00    +0.000 A 
ATOM     21  C   UNL     1     111.068 126.622 140.115  0.00  0.00    +0.000 A 
ATOM     22  C   UNL     1     111.875 126.743 140.382  0.00  0.00    +0.000 A 
BRANCH  15  25
ATOM     23  O   UNL     1     114.944 126.570 136.063  0.00  0.00    +0.000 OA
ATOM     24  O   UNL     1     115.374 124.994 135.833  0.00  0.00    +0.000 OA
ATOM     25  C   UNL     1     113.482 125.556 137.327  0.00  0.00    +0.000 A 
ATOM     26  C   UNL     1     113.898 126.157 136.944  0.00  0.00    +0.000 A 
ATOM     27  C   UNL     1     113.698 124.768 137.212  0.00  0.00    +0.000 A 
ATOM     28  C   UNL     1     114.529 125.970 136.446  0.00  0.00    +0.000 A 
ATOM     29  C   UNL     1     114.328 124.580 136.714  0.00  0.00    +0.000 A 
ATOM     30  C   UNL     1     114.744 125.182 136.331  0.00  0.00    +0.000 A 
ENDBRANCH  15  25
BRANCH  22  31
ATOM     31  O   UNL     1     112.022 127.046 141.135  0.00  0.00    +0.000 OA
ATOM     32  C   UNL     1     112.205 127.844 141.231  0.00  0.00    +0.000 C 
ENDBRANCH  22  31
ENDBRANCH  10  14
ENDBRANCH   9  10
BRANCH   5  33
ATOM     33  C   UNL     1     111.313 127.850 135.631  0.00  0.00    +0.000 C 
BRANCH  33  34
ATOM     34  O   UNL     1     111.074 128.332 136.257  0.00  0.00    +0.000 OA
BRANCH  34  41
ATOM     35  O   UNL     1     112.273 129.095 136.405  0.00  0.00    +0.000 OA
ATOM     36  O   UNL     1     110.177 129.698 136.480  0.00  0.00    +0.000 OA
ATOM     37  O   UNL     1     112.575 131.225 136.775  0.00  0.00    +0.000 OA
ATOM     38  C   UNL     1     111.376 130.462 136.627  0.00  0.00    +0.000 C 
ATOM     39  C   UNL     1     111.001 129.738 136.498  0.00  0.00    +0.000 C 
ATOM     40  C   UNL     1     112.200 130.502 136.646  0.00  0.00    +0.000 C 
ATOM     41  C   UNL     1     111.450 129.055 136.386  0.00  0.00    +0.000 C 
ATOM     42  C   UNL     1     112.649 129.818 136.534  0.00  0.00    +0.000 C 
ATOM     43  C   UNL     1     113.472 129.859 136.552  0.00  0.00    +0.000 C 
BRANCH  38  44
ATOM     44  O   UNL     1     110.927 131.145 136.739  0.00  0.00    +0.000 OA
BRANCH  44  49
ATOM     45  O   UNL     1     110.769 130.851 138.128  0.00  0.00    +0.000 OA
ATOM     46  O   UNL     1     110.431 132.695 137.011  0.00  0.00    +0.000 OA
ATOM     47  O   UNL     1     110.025 133.176 138.536  0.00  0.00    +0.000 OA
ATOM     48  O   UNL     1     110.115 132.107 139.790  0.00  0.00    +0.000 OA
ATOM     49  C   UNL     1     110.724 131.385 137.502  0.00  0.00    +0.000 C 
ATOM     50  C   UNL     1     110.476 132.160 137.638  0.00  0.00    +0.000 C 
ATOM     51  C   UNL     1     110.273 132.401 138.400  0.00  0.00    +0.000 C 
ATOM     52  C   UNL     1     110.318 131.866 139.027  0.00  0.00    +0.000 C 
ATOM     53  C   UNL     1     110.567 131.091 138.891  0.00  0.00    +0.000 C 
ATOM     54  C   UNL     1     110.612 130.557 139.518  0.00  0.00    +0.000 C 
ENDBRANCH  44  49
ENDBRANCH  38  44
ENDBRANCH  34  41
ENDBRANCH  33  34
ENDBRANCH   5  33
TORSDOF 9
ENDMDL
MODEL 9
REMARK VINA RESULT:     -10.7      1.804      2.819
REMARK  Name = 44259596
REMARK  9 active torsions:
REMARK  status: ('A' for Active; 'I' for Inactive)
REMARK    1  A    between atoms: O_1  and  C_21
REMARK    2  A    between atoms: O_1  and  C_26
REMARK    3  A    between atoms: O_3  and  C_24
REMARK    4  A    between atoms: O_3  and  C_34
REMARK    5  A    between atoms: O_13  and  C_36
REMARK    6  A    between atoms: O_13  and  C_39
REMARK    7  A    between atoms: O_18  and  C_50
REMARK    8  A    between atoms: C_29  and  C_34
REMARK    9  A    between atoms: C_40  and  C_43
REMARK                            x       y       z     vdW  Elec       q    Type
REMARK                         _______ _______ _______ _____ _____    ______ ____
ROOT
ATOM      1  O   UNL     1     110.328 129.097 136.946  0.00  0.00    +0.000 OA
ATOM      2  O   UNL     1     108.862 127.479 136.943  0.00  0.00    +0.000 OA
ATOM      3  O   UNL     1     108.208 128.494 135.817  0.00  0.00    +0.000 OA
ATOM      4  O   UNL     1     108.968 129.910 135.444  0.00  0.00    +0.000 OA
ATOM      5  C   UNL     1     109.948 128.388 137.132  0.00  0.00    +0.000 C 
ATOM      6  C   UNL     1     109.241 128.187 136.756  0.00  0.00    +0.000 C 
ATOM      7  C   UNL     1     108.915 128.695 136.194  0.00  0.00    +0.000 C 
ATOM      8  C   UNL     1     109.295 129.403 136.007  0.00  0.00    +0.000 C 
ATOM      9  C   UNL     1     110.001 129.604 136.383  0.00  0.00    +0.000 C 
ENDROOT
BRANCH   9  10
ATOM     10  O   UNL     1     110.380 130.312 136.196  0.00  0.00    +0.000 OA
BRANCH  10  14
ATOM     11  O   UNL     1     112.371 130.983 136.787  0.00  0.00    +0.000 OA
ATOM     12  O   UNL     1     111.329 129.288 135.316  0.00  0.00    +0.000 OA
ATOM     13  O   UNL     1     112.626 128.806 134.905  0.00  0.00    +0.000 OA
ATOM     14  C   UNL     1     111.203 130.365 136.246  0.00  0.00    +0.000 A 
ATOM     15  C   UNL     1     111.550 130.930 136.737  0.00  0.00    +0.000 A 
ATOM     16  C   UNL     1     111.676 129.853 135.806  0.00  0.00    +0.000 A 
ATOM     17  C   UNL     1     112.499 129.907 135.856  0.00  0.00    +0.000 A 
ATOM     18  C   UNL     1     112.846 130.472 136.347  0.00  0.00    +0.000 A 
ATOM     19  C   UNL     1     112.981 129.368 135.393  0.00  0.00    +0.000 A 
ATOM     20  C   UNL     1     113.700 130.537 136.408  0.00  0.00    +0.000 A 
ATOM     21  C   UNL     1     113.838 129.419 135.441  0.00  0.00    +0.000 A 
ATOM     22  C   UNL     1     114.200 130.007 135.952  0.00  0.00    +0.000 A 
BRANCH  15  25
ATOM     23  O   UNL     1     110.456 131.749 139.247  0.00  0.00    +0.000 OA
ATOM     24  O   UNL     1     109.650 132.978 138.495  0.00  0.00    +0.000 OA
ATOM     25  C   UNL     1     111.075 131.442 137.177  0.00  0.00    +0.000 A 
ATOM     26  C   UNL     1     111.003 131.340 137.992  0.00  0.00    +0.000 A 
ATOM     27  C   UNL     1     110.673 132.056 136.801  0.00  0.00    +0.000 A 
ATOM     28  C   UNL     1     110.528 131.851 138.432  0.00  0.00    +0.000 A 
ATOM     29  C   UNL     1     110.198 132.568 137.240  0.00  0.00    +0.000 A 
ATOM     30  C   UNL     1     110.125 132.466 138.056  0.00  0.00    +0.000 A 
ENDBRANCH  15  25
BRANCH  22  31
ATOM     31  O   UNL     1     115.022 130.062 136.004  0.00  0.00    +0.000 OA
ATOM     32  C   UNL     1     115.429 130.607 135.538  0.00  0.00    +0.000 C 
ENDBRANCH  22  31
ENDBRANCH  10  14
ENDBRANCH   9  10
BRANCH   5  33
ATOM     33  C   UNL     1     110.274 127.881 137.695  0.00  0.00    +0.000 C 
BRANCH  33  34
ATOM     34  O   UNL     1     110.415 128.149 138.462  0.00  0.00    +0.000 OA
BRANCH  34  41
ATOM     35  O   UNL     1     111.572 127.315 138.544  0.00  0.00    +0.000 OA
ATOM     36  O   UNL     1     110.637 128.612 140.030  0.00  0.00    +0.000 OA
ATOM     37  O   UNL     1     112.951 126.944 140.194  0.00  0.00    +0.000 OA
ATOM     38  C   UNL     1     111.794 127.778 140.112  0.00  0.00    +0.000 C 
ATOM     39  C   UNL     1     111.160 128.079 139.679  0.00  0.00    +0.000 C 
ATOM     40  C   UNL     1     112.318 127.245 139.761  0.00  0.00    +0.000 C 
ATOM     41  C   UNL     1     111.049 127.848 138.894  0.00  0.00    +0.000 C 
ATOM     42  C   UNL     1     112.207 127.013 138.977  0.00  0.00    +0.000 C 
ATOM     43  C   UNL     1     112.730 126.481 138.626  0.00  0.00    +0.000 C 
BRANCH  38  44
ATOM     44  O   UNL     1     111.905 128.009 140.896  0.00  0.00    +0.000 OA
BRANCH  44  49
ATOM     45  O   UNL     1     112.774 129.072 140.500  0.00  0.00    +0.000 OA
ATOM     46  O   UNL     1     111.702 128.723 142.370  0.00  0.00    +0.000 OA
ATOM     47  O   UNL     1     112.470 130.144 142.710  0.00  0.00    +0.000 OA
ATOM     48  O   UNL     1     113.440 130.850 141.578  0.00  0.00    +0.000 OA
ATOM     49  C   UNL     1     112.289 128.719 141.066  0.00  0.00    +0.000 C 
ATOM     50  C   UNL     1     112.188 129.076 141.803  0.00  0.00    +0.000 C 
ATOM     51  C   UNL     1     112.571 129.787 141.974  0.00  0.00    +0.000 C 
ATOM     52  C   UNL     1     113.056 130.139 141.407  0.00  0.00    +0.000 C 
ATOM     53  C   UNL     1     113.157 129.782 140.670  0.00  0.00    +0.000 C 
ATOM     54  C   UNL     1     113.642 130.135 140.104  0.00  0.00    +0.000 C 
ENDBRANCH  44  49
ENDBRANCH  38  44
ENDBRANCH  34  41
ENDBRANCH  33  34
ENDBRANCH   5  33
TORSDOF 9
ENDMDL
MODEL 10
REMARK VINA RESULT:     -10.7      1.629      2.513
REMARK  Name = 44259596
REMARK  9 active torsions:
REMARK  status: ('A' for Active; 'I' for Inactive)
REMARK    1  A    between atoms: O_1  and  C_21
REMARK    2  A    between atoms: O_1  and  C_26
REMARK    3  A    between atoms: O_3  and  C_24
REMARK    4  A    between atoms: O_3  and  C_34
REMARK    5  A    between atoms: O_13  and  C_36
REMARK    6  A    between atoms: O_13  and  C_39
REMARK    7  A    between atoms: O_18  and  C_50
REMARK    8  A    between atoms: C_29  and  C_34
REMARK    9  A    between atoms: C_40  and  C_43
REMARK                            x       y       z     vdW  Elec       q    Type
REMARK                         _______ _______ _______ _____ _____    ______ ____
ROOT
ATOM      1  O   UNL     1     111.536 127.251 137.881  0.00  0.00    +0.000 OA
ATOM      2  O   UNL     1     111.545 125.990 139.664  0.00  0.00    +0.000 OA
ATOM      3  O   UNL     1     111.040 124.912 138.522  0.00  0.00    +0.000 OA
ATOM      4  O   UNL     1     110.866 125.393 136.953  0.00  0.00    +0.000 OA
ATOM      5  C   UNL     1     111.624 127.011 138.666  0.00  0.00    +0.000 C 
ATOM      6  C   UNL     1     111.458 126.230 138.879  0.00  0.00    +0.000 C 
ATOM      7  C   UNL     1     111.205 125.692 138.308  0.00  0.00    +0.000 C 
ATOM      8  C   UNL     1     111.118 125.932 137.524  0.00  0.00    +0.000 C 
ATOM      9  C   UNL     1     111.284 126.711 137.311  0.00  0.00    +0.000 C 
ENDROOT
BRANCH   9  10
ATOM     10  O   UNL     1     111.197 126.952 136.526  0.00  0.00    +0.000 OA
BRANCH  10  14
ATOM     11  O   UNL     1     111.804 128.839 135.612  0.00  0.00    +0.000 OA
ATOM     12  O   UNL     1     112.839 126.792 136.542  0.00  0.00    +0.000 OA
ATOM     13  O   UNL     1     114.160 127.297 136.256  0.00  0.00    +0.000 OA
ATOM     14  C   UNL     1     111.673 127.555 136.224  0.00  0.00    +0.000 A 
ATOM     15  C   UNL     1     111.328 128.237 135.914  0.00  0.00    +0.000 A 
ATOM     16  C   UNL     1     112.494 127.474 136.232  0.00  0.00    +0.000 A 
ATOM     17  C   UNL     1     112.970 128.077 135.930  0.00  0.00    +0.000 A 
ATOM     18  C   UNL     1     112.625 128.759 135.619  0.00  0.00    +0.000 A 
ATOM     19  C   UNL     1     113.824 127.982 135.944  0.00  0.00    +0.000 A 
ATOM     20  C   UNL     1     113.110 129.393 135.302  0.00  0.00    +0.000 A 
ATOM     21  C   UNL     1     114.325 128.606 135.631  0.00  0.00    +0.000 A 
ATOM     22  C   UNL     1     113.966 129.316 135.307  0.00  0.00    +0.000 A 
BRANCH  15  25
ATOM     23  O   UNL     1     108.940 129.378 136.992  0.00  0.00    +0.000 OA
ATOM     24  O   UNL     1     108.043 128.552 135.880  0.00  0.00    +0.000 OA
ATOM     25  C   UNL     1     110.506 128.316 135.906  0.00  0.00    +0.000 A 
ATOM     26  C   UNL     1     110.134 128.807 136.453  0.00  0.00    +0.000 A 
ATOM     27  C   UNL     1     110.058 127.903 135.350  0.00  0.00    +0.000 A 
ATOM     28  C   UNL     1     109.312 128.887 136.445  0.00  0.00    +0.000 A 
ATOM     29  C   UNL     1     109.237 127.981 135.341  0.00  0.00    +0.000 A 
ATOM     30  C   UNL     1     108.864 128.474 135.889  0.00  0.00    +0.000 A 
ENDBRANCH  15  25
BRANCH  22  31
ATOM     31  O   UNL     1     114.439 129.920 135.005  0.00  0.00    +0.000 OA
ATOM     32  C   UNL     1     114.795 130.462 135.515  0.00  0.00    +0.000 C 
ENDBRANCH  22  31
ENDBRANCH  10  14
ENDBRANCH   9  10
BRANCH   5  33
ATOM     33  C   UNL     1     111.876 127.549 139.237  0.00  0.00    +0.000 C 
BRANCH  33  34
ATOM     34  O   UNL     1     111.538 128.301 139.275  0.00  0.00    +0.000 OA
BRANCH  34  41
ATOM     35  O   UNL     1     112.778 128.975 139.499  0.00  0.00    +0.000 OA
ATOM     36  O   UNL     1     110.750 129.459 140.147  0.00  0.00    +0.000 OA
ATOM     37  O   UNL     1     113.230 130.807 140.595  0.00  0.00    +0.000 OA
ATOM     38  C   UNL     1     111.990 130.133 140.371  0.00  0.00    +0.000 C 
ATOM     39  C   UNL     1     111.568 129.506 140.041  0.00  0.00    +0.000 C 
ATOM     40  C   UNL     1     112.808 130.181 140.265  0.00  0.00    +0.000 C 
ATOM     41  C   UNL     1     111.961 128.927 139.605  0.00  0.00    +0.000 C 
ATOM     42  C   UNL     1     113.201 129.602 139.829  0.00  0.00    +0.000 C 
ATOM     43  C   UNL     1     114.017 129.649 139.723  0.00  0.00    +0.000 C 
BRANCH  38  44
ATOM     44  O   UNL     1     111.596 130.712 140.807  0.00  0.00    +0.000 OA
BRANCH  44  49
ATOM     45  O   UNL     1     111.734 129.920 141.989  0.00  0.00    +0.000 OA
ATOM     46  O   UNL     1     110.939 131.933 141.702  0.00  0.00    +0.000 OA
ATOM     47  O   UNL     1     110.748 131.752 143.331  0.00  0.00    +0.000 OA
ATOM     48  O   UNL     1     111.214 130.349 144.065  0.00  0.00    +0.000 OA
ATOM     49  C   UNL     1     111.501 130.621 141.622  0.00  0.00    +0.000 C 
ATOM     50  C   UNL     1     111.173 131.231 142.069  0.00  0.00    +0.000 C 
ATOM     51  C   UNL     1     111.077 131.141 142.884  0.00  0.00    +0.000 C 
ATOM     52  C   UNL     1     111.310 130.440 143.250  0.00  0.00    +0.000 C 
ATOM     53  C   UNL     1     111.638 129.830 142.803  0.00  0.00    +0.000 C 
ATOM     54  C   UNL     1     111.871 129.129 143.171  0.00  0.00    +0.000 C 
ENDBRANCH  44  49
ENDBRANCH  38  44
ENDBRANCH  34  41
ENDBRANCH  33  34
ENDBRANCH   5  33
TORSDOF 9
ENDMDL
