MODEL 1
REMARK VINA RESULT:     -10.8      0.000      0.000
REMARK  Name = 70698920
REMARK  10 active torsions:
REMARK  status: ('A' for Active; 'I' for Inactive)
REMARK    1  A    between atoms: O_2  and  C_28
REMARK    2  A    between atoms: O_2  and  C_32
REMARK    3  A    between atoms: O_5  and  C_30
REMARK    4  A    between atoms: O_5  and  C_41
REMARK    5  A    between atoms: O_12  and  C_38
REMARK    6  A    between atoms: O_12  and  C_42
REMARK    7  A    between atoms: O_20  and  C_53
REMARK    8  A    between atoms: C_23  and  C_32
REMARK    9  A    between atoms: C_37  and  C_40
REMARK   10  A    between atoms: C_43  and  C_50
REMARK                            x       y       z     vdW  Elec       q    Type
REMARK                         _______ _______ _______ _____ _____    ______ ____
ROOT
ATOM      1  O   UNL     1     112.852 128.574 138.167  0.00  0.00    +0.000 OA
ATOM      2  O   UNL     1     114.118 128.517 140.293  0.00  0.00    +0.000 OA
ATOM      3  O   UNL     1     113.691 127.161 140.544  0.00  0.00    +0.000 OA
ATOM      4  C   UNL     1     113.704 129.216 139.118  0.00  0.00    +0.000 A 
ATOM      5  C   UNL     1     112.380 126.500 138.852  0.00  0.00    +0.000 A 
ATOM      6  C   UNL     1     113.282 129.235 138.410  0.00  0.00    +0.000 A 
ATOM      7  C   UNL     1     113.696 128.536 139.584  0.00  0.00    +0.000 A 
ATOM      8  C   UNL     1     113.266 127.874 139.343  0.00  0.00    +0.000 A 
ATOM      9  C   UNL     1     112.844 127.894 138.634  0.00  0.00    +0.000 A 
ATOM     10  C   UNL     1     112.392 127.212 138.371  0.00  0.00    +0.000 A 
ATOM     11  C   UNL     1     112.820 126.480 139.590  0.00  0.00    +0.000 A 
ATOM     12  C   UNL     1     113.266 127.172 139.837  0.00  0.00    +0.000 A 
ENDROOT
BRANCH   6  15
ATOM     13  O   UNL     1     114.598 130.920 136.514  0.00  0.00    +0.000 OA
ATOM     14  O   UNL     1     113.314 131.955 136.541  0.00  0.00    +0.000 OA
ATOM     15  C   UNL     1     113.289 129.915 137.943  0.00  0.00    +0.000 A 
ATOM     16  C   UNL     1     112.647 130.433 137.957  0.00  0.00    +0.000 A 
ATOM     17  C   UNL     1     113.940 130.078 137.462  0.00  0.00    +0.000 A 
ATOM     18  C   UNL     1     112.655 131.113 137.489  0.00  0.00    +0.000 A 
ATOM     19  C   UNL     1     113.947 130.758 136.995  0.00  0.00    +0.000 A 
ATOM     20  C   UNL     1     113.305 131.275 137.009  0.00  0.00    +0.000 A 
BRANCH  18  21
ATOM     21  O   UNL     1     112.013 131.630 137.503  0.00  0.00    +0.000 OA
ATOM     22  C   UNL     1     111.243 131.332 137.508  0.00  0.00    +0.000 C 
ENDBRANCH  18  21
ENDBRANCH   6  15
BRANCH   4  23
ATOM     23  O   UNL     1     114.133 129.877 139.360  0.00  0.00    +0.000 OA
BRANCH  23  32
ATOM     24  O   UNL     1     113.202 130.200 140.395  0.00  0.00    +0.000 OA
ATOM     25  O   UNL     1     113.459 131.314 142.253  0.00  0.00    +0.000 OA
ATOM     26  O   UNL     1     114.985 131.388 141.631  0.00  0.00    +0.000 OA
ATOM     27  O   UNL     1     115.323 130.669 140.185  0.00  0.00    +0.000 OA
ATOM     28  C   UNL     1     113.033 130.559 141.118  0.00  0.00    +0.000 C 
ATOM     29  C   UNL     1     113.627 130.955 141.530  0.00  0.00    +0.000 C 
ATOM     30  C   UNL     1     114.391 130.992 141.219  0.00  0.00    +0.000 C 
ATOM     31  C   UNL     1     114.560 130.633 140.496  0.00  0.00    +0.000 C 
ATOM     32  C   UNL     1     113.965 130.236 140.083  0.00  0.00    +0.000 C 
BRANCH  28  33
ATOM     33  C   UNL     1     112.270 130.522 141.428  0.00  0.00    +0.000 C 
BRANCH  33  34
ATOM     34  O   UNL     1     111.630 130.791 140.982  0.00  0.00    +0.000 OA
BRANCH  34  40
ATOM     35  O   UNL     1     110.781 129.684 141.292  0.00  0.00    +0.000 OA
ATOM     36  O   UNL     1     110.313 131.781 140.905  0.00  0.00    +0.000 OA
ATOM     37  O   UNL     1     108.804 131.169 141.176  0.00  0.00    +0.000 OA
ATOM     38  O   UNL     1     108.613 129.568 141.524  0.00  0.00    +0.000 OA
ATOM     39  C   UNL     1     110.216 130.980 141.079  0.00  0.00    +0.000 C 
ATOM     40  C   UNL     1     110.875 130.485 141.118  0.00  0.00    +0.000 C 
ATOM     41  C   UNL     1     109.463 130.674 141.215  0.00  0.00    +0.000 C 
ATOM     42  C   UNL     1     109.367 129.874 141.389  0.00  0.00    +0.000 C 
ATOM     43  C   UNL     1     110.026 129.378 141.427  0.00  0.00    +0.000 C 
ATOM     44  C   UNL     1     109.931 128.578 141.601  0.00  0.00    +0.000 C 
ENDBRANCH  34  40
ENDBRANCH  33  34
ENDBRANCH  28  33
ENDBRANCH  23  32
ENDBRANCH   4  23
BRANCH   5  45
ATOM     45  O   UNL     1     111.949 125.840 138.607  0.00  0.00    +0.000 OA
BRANCH  45  54
ATOM     46  O   UNL     1     113.036 125.176 137.960  0.00  0.00    +0.000 OA
ATOM     47  O   UNL     1     111.484 124.316 136.235  0.00  0.00    +0.000 OA
ATOM     48  O   UNL     1     113.089 123.939 136.163  0.00  0.00    +0.000 OA
ATOM     49  O   UNL     1     110.914 125.266 137.457  0.00  0.00    +0.000 OA
ATOM     50  C   UNL     1     112.001 124.602 136.810  0.00  0.00    +0.000 C 
ATOM     51  C   UNL     1     112.804 124.414 136.774  0.00  0.00    +0.000 C 
ATOM     52  C   UNL     1     111.716 125.078 137.421  0.00  0.00    +0.000 C 
ATOM     53  C   UNL     1     113.322 124.701 137.349  0.00  0.00    +0.000 C 
ATOM     54  C   UNL     1     112.234 125.365 137.996  0.00  0.00    +0.000 C 
BRANCH  53  56
ATOM     55  O   UNL     1     114.688 125.115 137.289  0.00  0.00    +0.000 OA
ATOM     56  C   UNL     1     114.124 124.513 137.313  0.00  0.00    +0.000 C 
ENDBRANCH  53  56
ENDBRANCH  45  54
ENDBRANCH   5  45
TORSDOF 10
ENDMDL
MODEL 2
REMARK VINA RESULT:     -10.6      1.617      4.938
REMARK  Name = 70698920
REMARK  10 active torsions:
REMARK  status: ('A' for Active; 'I' for Inactive)
REMARK    1  A    between atoms: O_2  and  C_28
REMARK    2  A    between atoms: O_2  and  C_32
REMARK    3  A    between atoms: O_5  and  C_30
REMARK    4  A    between atoms: O_5  and  C_41
REMARK    5  A    between atoms: O_12  and  C_38
REMARK    6  A    between atoms: O_12  and  C_42
REMARK    7  A    between atoms: O_20  and  C_53
REMARK    8  A    between atoms: C_23  and  C_32
REMARK    9  A    between atoms: C_37  and  C_40
REMARK   10  A    between atoms: C_43  and  C_50
REMARK                            x       y       z     vdW  Elec       q    Type
REMARK                         _______ _______ _______ _____ _____    ______ ____
ROOT
ATOM      1  O   UNL     1     111.781 130.442 138.861  0.00  0.00    +0.000 OA
ATOM      2  O   UNL     1     114.187 130.522 138.285  0.00  0.00    +0.000 OA
ATOM      3  O   UNL     1     114.547 130.033 139.594  0.00  0.00    +0.000 OA
ATOM      4  C   UNL     1     112.821 130.725 137.921  0.00  0.00    +0.000 A 
ATOM      5  C   UNL     1     112.671 129.708 140.775  0.00  0.00    +0.000 A 
ATOM      6  C   UNL     1     112.019 130.698 138.113  0.00  0.00    +0.000 A 
ATOM      7  C   UNL     1     113.385 130.496 138.477  0.00  0.00    +0.000 A 
ATOM      8  C   UNL     1     113.149 130.239 139.225  0.00  0.00    +0.000 A 
ATOM      9  C   UNL     1     112.347 130.213 139.417  0.00  0.00    +0.000 A 
ATOM     10  C   UNL     1     112.088 129.948 140.192  0.00  0.00    +0.000 A 
ATOM     11  C   UNL     1     113.506 129.736 140.575  0.00  0.00    +0.000 A 
ATOM     12  C   UNL     1     113.747 130.003 139.794  0.00  0.00    +0.000 A 
ENDROOT
BRANCH   6  15
ATOM     13  O   UNL     1     110.020 130.010 136.190  0.00  0.00    +0.000 OA
ATOM     14  O   UNL     1     109.756 131.611 135.892  0.00  0.00    +0.000 OA
ATOM     15  C   UNL     1     111.453 130.927 137.558  0.00  0.00    +0.000 A 
ATOM     16  C   UNL     1     111.321 131.727 137.409  0.00  0.00    +0.000 A 
ATOM     17  C   UNL     1     111.019 130.354 137.152  0.00  0.00    +0.000 A 
ATOM     18  C   UNL     1     110.755 131.955 136.854  0.00  0.00    +0.000 A 
ATOM     19  C   UNL     1     110.454 130.583 136.596  0.00  0.00    +0.000 A 
ATOM     20  C   UNL     1     110.322 131.384 136.448  0.00  0.00    +0.000 A 
BRANCH  18  21
ATOM     21  O   UNL     1     110.623 132.756 136.705  0.00  0.00    +0.000 OA
ATOM     22  C   UNL     1     110.444 133.268 137.327  0.00  0.00    +0.000 C 
ENDBRANCH  18  21
ENDBRANCH   6  15
BRANCH   4  23
ATOM     23  O   UNL     1     113.057 130.980 137.174  0.00  0.00    +0.000 OA
BRANCH  23  32
ATOM     24  O   UNL     1     113.397 129.669 136.720  0.00  0.00    +0.000 OA
ATOM     25  O   UNL     1     114.862 129.001 135.248  0.00  0.00    +0.000 OA
ATOM     26  O   UNL     1     115.086 130.635 135.192  0.00  0.00    +0.000 OA
ATOM     27  O   UNL     1     114.183 131.624 136.155  0.00  0.00    +0.000 OA
ATOM     28  C   UNL     1     113.848 129.174 136.239  0.00  0.00    +0.000 C 
ATOM     29  C   UNL     1     114.411 129.496 135.729  0.00  0.00    +0.000 C 
ATOM     30  C   UNL     1     114.523 130.313 135.701  0.00  0.00    +0.000 C 
ATOM     31  C   UNL     1     114.072 130.808 136.183  0.00  0.00    +0.000 C 
ATOM     32  C   UNL     1     113.508 130.485 136.693  0.00  0.00    +0.000 C 
BRANCH  28  33
ATOM     33  C   UNL     1     113.736 128.358 136.267  0.00  0.00    +0.000 C 
BRANCH  33  34
ATOM     34  O   UNL     1     112.972 128.046 136.279  0.00  0.00    +0.000 OA
BRANCH  34  40
ATOM     35  O   UNL     1     113.371 126.859 136.966  0.00  0.00    +0.000 OA
ATOM     36  O   UNL     1     111.702 127.232 135.610  0.00  0.00    +0.000 OA
ATOM     37  O   UNL     1     111.467 125.638 135.963  0.00  0.00    +0.000 OA
ATOM     38  O   UNL     1     112.501 124.857 136.985  0.00  0.00    +0.000 OA
ATOM     39  C   UNL     1     112.219 126.841 136.121  0.00  0.00    +0.000 C 
ATOM     40  C   UNL     1     112.854 127.248 136.455  0.00  0.00    +0.000 C 
ATOM     41  C   UNL     1     112.102 126.045 136.297  0.00  0.00    +0.000 C 
ATOM     42  C   UNL     1     112.618 125.654 136.808  0.00  0.00    +0.000 C 
ATOM     43  C   UNL     1     113.253 126.061 137.143  0.00  0.00    +0.000 C 
ATOM     44  C   UNL     1     113.771 125.671 137.653  0.00  0.00    +0.000 C 
ENDBRANCH  34  40
ENDBRANCH  33  34
ENDBRANCH  28  33
ENDBRANCH  23  32
ENDBRANCH   4  23
BRANCH   5  45
ATOM     45  O   UNL     1     112.431 129.452 141.522  0.00  0.00    +0.000 OA
BRANCH  45  54
ATOM     46  O   UNL     1     112.228 128.075 141.198  0.00  0.00    +0.000 OA
ATOM     47  O   UNL     1     110.215 128.032 142.637  0.00  0.00    +0.000 OA
ATOM     48  O   UNL     1     110.684 126.670 141.832  0.00  0.00    +0.000 OA
ATOM     49  O   UNL     1     111.089 129.423 142.482  0.00  0.00    +0.000 OA
ATOM     50  C   UNL     1     110.886 128.046 142.157  0.00  0.00    +0.000 C 
ATOM     51  C   UNL     1     111.121 127.365 141.754  0.00  0.00    +0.000 C 
ATOM     52  C   UNL     1     111.323 128.742 142.080  0.00  0.00    +0.000 C 
ATOM     53  C   UNL     1     111.792 127.380 141.275  0.00  0.00    +0.000 C 
ATOM     54  C   UNL     1     111.994 128.756 141.600  0.00  0.00    +0.000 C 
BRANCH  53  56
ATOM     55  O   UNL     1     112.804 126.431 140.934  0.00  0.00    +0.000 OA
ATOM     56  C   UNL     1     112.026 126.699 140.872  0.00  0.00    +0.000 C 
ENDBRANCH  53  56
ENDBRANCH  45  54
ENDBRANCH   5  45
TORSDOF 10
ENDMDL
MODEL 3
REMARK VINA RESULT:     -10.6      1.887      5.934
REMARK  Name = 70698920
REMARK  10 active torsions:
REMARK  status: ('A' for Active; 'I' for Inactive)
REMARK    1  A    between atoms: O_2  and  C_28
REMARK    2  A    between atoms: O_2  and  C_32
REMARK    3  A    between atoms: O_5  and  C_30
REMARK    4  A    between atoms: O_5  and  C_41
REMARK    5  A    between atoms: O_12  and  C_38
REMARK    6  A    between atoms: O_12  and  C_42
REMARK    7  A    between atoms: O_20  and  C_53
REMARK    8  A    between atoms: C_23  and  C_32
REMARK    9  A    between atoms: C_37  and  C_40
REMARK   10  A    between atoms: C_43  and  C_50
REMARK                            x       y       z     vdW  Elec       q    Type
REMARK                         _______ _______ _______ _____ _____    ______ ____
ROOT
ATOM      1  O   UNL     1     111.557 125.893 139.057  0.00  0.00    +0.000 OA
ATOM      2  O   UNL     1     109.574 127.009 138.082  0.00  0.00    +0.000 OA
ATOM      3  O   UNL     1     109.273 127.640 139.344  0.00  0.00    +0.000 OA
ATOM      4  C   UNL     1     110.703 126.145 137.939  0.00  0.00    +0.000 A 
ATOM      5  C   UNL     1     110.816 127.014 140.843  0.00  0.00    +0.000 A 
ATOM      6  C   UNL     1     111.364 125.774 138.264  0.00  0.00    +0.000 A 
ATOM      7  C   UNL     1     110.235 126.637 138.407  0.00  0.00    +0.000 A 
ATOM      8  C   UNL     1     110.427 126.758 139.200  0.00  0.00    +0.000 A 
ATOM      9  C   UNL     1     111.088 126.386 139.525  0.00  0.00    +0.000 A 
ATOM     10  C   UNL     1     111.299 126.503 140.349  0.00  0.00    +0.000 A 
ATOM     11  C   UNL     1     110.127 127.402 140.505  0.00  0.00    +0.000 A 
ATOM     12  C   UNL     1     109.932 127.272 139.677  0.00  0.00    +0.000 A 
ENDROOT
BRANCH   6  15
ATOM     13  O   UNL     1     111.780 123.267 136.956  0.00  0.00    +0.000 OA
ATOM     14  O   UNL     1     113.236 123.802 136.393  0.00  0.00    +0.000 OA
ATOM     15  C   UNL     1     111.832 125.281 137.796  0.00  0.00    +0.000 A 
ATOM     16  C   UNL     1     112.560 125.549 137.515  0.00  0.00    +0.000 A 
ATOM     17  C   UNL     1     111.572 124.520 137.610  0.00  0.00    +0.000 A 
ATOM     18  C   UNL     1     113.028 125.056 137.047  0.00  0.00    +0.000 A 
ATOM     19  C   UNL     1     112.041 124.028 137.142  0.00  0.00    +0.000 A 
ATOM     20  C   UNL     1     112.768 124.296 136.861  0.00  0.00    +0.000 A 
BRANCH  18  21
ATOM     21  O   UNL     1     113.755 125.324 136.766  0.00  0.00    +0.000 OA
ATOM     22  C   UNL     1     114.205 125.849 137.217  0.00  0.00    +0.000 C 
ENDBRANCH  18  21
ENDBRANCH   6  15
BRANCH   4  23
ATOM     23  O   UNL     1     110.510 126.025 137.147  0.00  0.00    +0.000 OA
BRANCH  23  32
ATOM     24  O   UNL     1     111.035 127.279 136.705  0.00  0.00    +0.000 OA
ATOM     25  O   UNL     1     110.433 128.582 135.061  0.00  0.00    +0.000 OA
ATOM     26  O   UNL     1     109.344 127.353 134.901  0.00  0.00    +0.000 OA
ATOM     27  O   UNL     1     109.382 126.075 135.943  0.00  0.00    +0.000 OA
ATOM     28  C   UNL     1     111.016 127.918 136.184  0.00  0.00    +0.000 C 
ATOM     29  C   UNL     1     110.453 127.943 135.583  0.00  0.00    +0.000 C 
ATOM     30  C   UNL     1     109.908 127.328 135.502  0.00  0.00    +0.000 C 
ATOM     31  C   UNL     1     109.927 126.689 136.023  0.00  0.00    +0.000 C 
ATOM     32  C   UNL     1     110.491 126.664 136.625  0.00  0.00    +0.000 C 
BRANCH  28  33
ATOM     33  C   UNL     1     111.560 128.532 136.264  0.00  0.00    +0.000 C 
BRANCH  33  34
ATOM     34  O   UNL     1     111.651 128.909 136.992  0.00  0.00    +0.000 OA
BRANCH  34  40
ATOM     35  O   UNL     1     112.943 129.388 136.611  0.00  0.00    +0.000 OA
ATOM     36  O   UNL     1     111.635 129.965 138.260  0.00  0.00    +0.000 OA
ATOM     37  O   UNL     1     112.918 130.971 138.513  0.00  0.00    +0.000 OA
ATOM     38  O   UNL     1     114.217 130.922 137.497  0.00  0.00    +0.000 OA
ATOM     39  C   UNL     1     112.285 129.941 137.753  0.00  0.00    +0.000 C 
ATOM     40  C   UNL     1     112.293 129.413 137.119  0.00  0.00    +0.000 C 
ATOM     41  C   UNL     1     112.926 130.444 137.879  0.00  0.00    +0.000 C 
ATOM     42  C   UNL     1     113.576 130.420 137.371  0.00  0.00    +0.000 C 
ATOM     43  C   UNL     1     113.585 129.892 136.737  0.00  0.00    +0.000 C 
ATOM     44  C   UNL     1     114.234 129.867 136.229  0.00  0.00    +0.000 C 
ENDBRANCH  34  40
ENDBRANCH  33  34
ENDBRANCH  28  33
ENDBRANCH  23  32
ENDBRANCH   4  23
BRANCH   5  45
ATOM     45  O   UNL     1     111.011 127.133 141.636  0.00  0.00    +0.000 OA
BRANCH  45  54
ATOM     46  O   UNL     1     112.060 128.089 141.469  0.00  0.00    +0.000 OA
ATOM     47  O   UNL     1     111.165 129.403 143.366  0.00  0.00    +0.000 OA
ATOM     48  O   UNL     1     112.513 129.920 142.566  0.00  0.00    +0.000 OA
ATOM     49  O   UNL     1     110.415 128.009 142.901  0.00  0.00    +0.000 OA
ATOM     50  C   UNL     1     111.464 128.965 142.734  0.00  0.00    +0.000 C 
ATOM     51  C   UNL     1     112.138 129.223 142.334  0.00  0.00    +0.000 C 
ATOM     52  C   UNL     1     111.088 128.268 142.501  0.00  0.00    +0.000 C 
ATOM     53  C   UNL     1     112.436 128.785 141.701  0.00  0.00    +0.000 C 
ATOM     54  C   UNL     1     111.387 127.830 141.869  0.00  0.00    +0.000 C 
BRANCH  53  56
ATOM     55  O   UNL     1     113.712 128.510 141.120  0.00  0.00    +0.000 OA
ATOM     56  C   UNL     1     113.110 129.044 141.302  0.00  0.00    +0.000 C 
ENDBRANCH  53  56
ENDBRANCH  45  54
ENDBRANCH   5  45
TORSDOF 10
ENDMDL
MODEL 4
REMARK VINA RESULT:     -10.5      2.099      4.838
REMARK  Name = 70698920
REMARK  10 active torsions:
REMARK  status: ('A' for Active; 'I' for Inactive)
REMARK    1  A    between atoms: O_2  and  C_28
REMARK    2  A    between atoms: O_2  and  C_32
REMARK    3  A    between atoms: O_5  and  C_30
REMARK    4  A    between atoms: O_5  and  C_41
REMARK    5  A    between atoms: O_12  and  C_38
REMARK    6  A    between atoms: O_12  and  C_42
REMARK    7  A    between atoms: O_20  and  C_53
REMARK    8  A    between atoms: C_23  and  C_32
REMARK    9  A    between atoms: C_37  and  C_40
REMARK   10  A    between atoms: C_43  and  C_50
REMARK                            x       y       z     vdW  Elec       q    Type
REMARK                         _______ _______ _______ _____ _____    ______ ____
ROOT
ATOM      1  O   UNL     1     110.650 130.247 138.485  0.00  0.00    +0.000 OA
ATOM      2  O   UNL     1     113.091 129.848 138.407  0.00  0.00    +0.000 OA
ATOM      3  O   UNL     1     113.002 128.909 139.500  0.00  0.00    +0.000 OA
ATOM      4  C   UNL     1     111.930 130.509 137.904  0.00  0.00    +0.000 A 
ATOM      5  C   UNL     1     110.860 128.760 140.140  0.00  0.00    +0.000 A 
ATOM      6  C   UNL     1     111.116 130.642 137.930  0.00  0.00    +0.000 A 
ATOM      7  C   UNL     1     112.278 129.981 138.433  0.00  0.00    +0.000 A 
ATOM      8  C   UNL     1     111.813 129.585 138.988  0.00  0.00    +0.000 A 
ATOM      9  C   UNL     1     110.999 129.718 139.014  0.00  0.00    +0.000 A 
ATOM     10  C   UNL     1     110.504 129.312 139.587  0.00  0.00    +0.000 A 
ATOM     11  C   UNL     1     111.709 128.621 140.113  0.00  0.00    +0.000 A 
ATOM     12  C   UNL     1     112.188 129.037 139.533  0.00  0.00    +0.000 A 
ENDROOT
BRANCH   6  15
ATOM     13  O   UNL     1     110.557 133.326 137.122  0.00  0.00    +0.000 OA
ATOM     14  O   UNL     1     109.720 132.759 135.818  0.00  0.00    +0.000 OA
ATOM     15  C   UNL     1     110.767 131.171 137.402  0.00  0.00    +0.000 A 
ATOM     16  C   UNL     1     110.348 130.887 136.750  0.00  0.00    +0.000 A 
ATOM     17  C   UNL     1     110.836 131.984 137.526  0.00  0.00    +0.000 A 
ATOM     18  C   UNL     1     109.999 131.417 136.222  0.00  0.00    +0.000 A 
ATOM     19  C   UNL     1     110.487 132.513 136.998  0.00  0.00    +0.000 A 
ATOM     20  C   UNL     1     110.069 132.229 136.346  0.00  0.00    +0.000 A 
BRANCH  18  21
ATOM     21  O   UNL     1     109.581 131.134 135.570  0.00  0.00    +0.000 OA
ATOM     22  C   UNL     1     109.217 130.393 135.603  0.00  0.00    +0.000 C 
ENDBRANCH  18  21
ENDBRANCH   6  15
BRANCH   4  23
ATOM     23  O   UNL     1     112.394 130.905 137.350  0.00  0.00    +0.000 OA
BRANCH  23  32
ATOM     24  O   UNL     1     112.542 129.752 136.519  0.00  0.00    +0.000 OA
ATOM     25  O   UNL     1     114.121 129.189 135.122  0.00  0.00    +0.000 OA
ATOM     26  O   UNL     1     114.691 130.638 135.670  0.00  0.00    +0.000 OA
ATOM     27  O   UNL     1     113.827 131.495 136.784  0.00  0.00    +0.000 OA
ATOM     28  C   UNL     1     112.973 129.323 135.961  0.00  0.00    +0.000 C 
ATOM     29  C   UNL     1     113.689 129.618 135.679  0.00  0.00    +0.000 C 
ATOM     30  C   UNL     1     113.975 130.342 135.952  0.00  0.00    +0.000 C 
ATOM     31  C   UNL     1     113.543 130.771 136.510  0.00  0.00    +0.000 C 
ATOM     32  C   UNL     1     112.826 130.476 136.793  0.00  0.00    +0.000 C 
BRANCH  28  33
ATOM     33  C   UNL     1     112.689 128.599 135.688  0.00  0.00    +0.000 C 
BRANCH  33  34
ATOM     34  O   UNL     1     112.437 128.025 136.224  0.00  0.00    +0.000 OA
BRANCH  34  40
ATOM     35  O   UNL     1     111.367 127.528 135.418  0.00  0.00    +0.000 OA
ATOM     36  O   UNL     1     112.706 126.505 136.806  0.00  0.00    +0.000 OA
ATOM     37  O   UNL     1     111.771 125.247 136.291  0.00  0.00    +0.000 OA
ATOM     38  O   UNL     1     110.566 125.510 135.194  0.00  0.00    +0.000 OA
ATOM     39  C   UNL     1     112.104 126.636 136.257  0.00  0.00    +0.000 C 
ATOM     40  C   UNL     1     111.969 127.396 135.967  0.00  0.00    +0.000 C 
ATOM     41  C   UNL     1     111.636 126.007 136.000  0.00  0.00    +0.000 C 
ATOM     42  C   UNL     1     111.034 126.138 135.451  0.00  0.00    +0.000 C 
ATOM     43  C   UNL     1     110.899 126.898 135.161  0.00  0.00    +0.000 C 
ATOM     44  C   UNL     1     110.297 127.030 134.613  0.00  0.00    +0.000 C 
ENDBRANCH  34  40
ENDBRANCH  33  34
ENDBRANCH  28  33
ENDBRANCH  23  32
ENDBRANCH   4  23
BRANCH   5  45
ATOM     45  O   UNL     1     110.393 128.366 140.694  0.00  0.00    +0.000 OA
BRANCH  45  54
ATOM     46  O   UNL     1     109.974 127.295 139.846  0.00  0.00    +0.000 OA
ATOM     47  O   UNL     1     110.141 125.722 141.751  0.00  0.00    +0.000 OA
ATOM     48  O   UNL     1     109.667 125.176 140.267  0.00  0.00    +0.000 OA
ATOM     49  O   UNL     1     110.504 127.318 141.964  0.00  0.00    +0.000 OA
ATOM     50  C   UNL     1     110.085 126.246 141.116  0.00  0.00    +0.000 C 
ATOM     51  C   UNL     1     109.848 125.973 140.374  0.00  0.00    +0.000 C 
ATOM     52  C   UNL     1     110.267 127.044 141.222  0.00  0.00    +0.000 C 
ATOM     53  C   UNL     1     109.793 126.497 139.739  0.00  0.00    +0.000 C 
ATOM     54  C   UNL     1     110.211 127.568 140.588  0.00  0.00    +0.000 C 
BRANCH  53  56
ATOM     55  O   UNL     1     108.994 126.644 138.564  0.00  0.00    +0.000 OA
ATOM     56  C   UNL     1     109.556 126.224 138.998  0.00  0.00    +0.000 C 
ENDBRANCH  53  56
ENDBRANCH  45  54
ENDBRANCH   5  45
TORSDOF 10
ENDMDL
MODEL 5
REMARK VINA RESULT:     -10.5      1.754      3.513
REMARK  Name = 70698920
REMARK  10 active torsions:
REMARK  status: ('A' for Active; 'I' for Inactive)
REMARK    1  A    between atoms: O_2  and  C_28
REMARK    2  A    between atoms: O_2  and  C_32
REMARK    3  A    between atoms: O_5  and  C_30
REMARK    4  A    between atoms: O_5  and  C_41
REMARK    5  A    between atoms: O_12  and  C_38
REMARK    6  A    between atoms: O_12  and  C_42
REMARK    7  A    between atoms: O_20  and  C_53
REMARK    8  A    between atoms: C_23  and  C_32
REMARK    9  A    between atoms: C_37  and  C_40
REMARK   10  A    between atoms: C_43  and  C_50
REMARK                            x       y       z     vdW  Elec       q    Type
REMARK                         _______ _______ _______ _____ _____    ______ ____
ROOT
ATOM      1  O   UNL     1     113.254 128.517 138.316  0.00  0.00    +0.000 OA
ATOM      2  O   UNL     1     111.350 129.600 137.163  0.00  0.00    +0.000 OA
ATOM      3  O   UNL     1     111.422 128.643 136.084  0.00  0.00    +0.000 OA
ATOM      4  C   UNL     1     112.255 129.538 138.266  0.00  0.00    +0.000 A 
ATOM      5  C   UNL     1     113.093 127.213 136.508  0.00  0.00    +0.000 A 
ATOM      6  C   UNL     1     112.889 129.178 138.650  0.00  0.00    +0.000 A 
ATOM      7  C   UNL     1     111.984 129.239 137.547  0.00  0.00    +0.000 A 
ATOM      8  C   UNL     1     112.348 128.579 137.211  0.00  0.00    +0.000 A 
ATOM      9  C   UNL     1     112.983 128.218 137.596  0.00  0.00    +0.000 A 
ATOM     10  C   UNL     1     113.370 127.530 137.257  0.00  0.00    +0.000 A 
ATOM     11  C   UNL     1     112.432 127.589 136.107  0.00  0.00    +0.000 A 
ATOM     12  C   UNL     1     112.057 128.277 136.462  0.00  0.00    +0.000 A 
ENDROOT
BRANCH   6  15
ATOM     13  O   UNL     1     114.375 131.131 140.116  0.00  0.00    +0.000 OA
ATOM     14  O   UNL     1     113.976 130.375 141.527  0.00  0.00    +0.000 OA
ATOM     15  C   UNL     1     113.161 129.476 139.370  0.00  0.00    +0.000 A 
ATOM     16  C   UNL     1     112.961 129.099 140.076  0.00  0.00    +0.000 A 
ATOM     17  C   UNL     1     113.632 130.154 139.383  0.00  0.00    +0.000 A 
ATOM     18  C   UNL     1     113.233 129.399 140.795  0.00  0.00    +0.000 A 
ATOM     19  C   UNL     1     113.903 130.453 140.102  0.00  0.00    +0.000 A 
ATOM     20  C   UNL     1     113.704 130.075 140.808  0.00  0.00    +0.000 A 
BRANCH  18  21
ATOM     21  O   UNL     1     113.034 129.021 141.500  0.00  0.00    +0.000 OA
ATOM     22  C   UNL     1     112.940 128.201 141.518  0.00  0.00    +0.000 C 
ENDBRANCH  18  21
ENDBRANCH   6  15
BRANCH   4  23
ATOM     23  O   UNL     1     111.891 130.198 138.601  0.00  0.00    +0.000 OA
BRANCH  23  32
ATOM     24  O   UNL     1     110.723 129.498 139.033  0.00  0.00    +0.000 OA
ATOM     25  O   UNL     1     108.651 130.157 139.226  0.00  0.00    +0.000 OA
ATOM     26  O   UNL     1     109.368 131.537 138.675  0.00  0.00    +0.000 OA
ATOM     27  O   UNL     1     110.988 131.558 138.362  0.00  0.00    +0.000 OA
ATOM     28  C   UNL     1     109.913 129.488 139.189  0.00  0.00    +0.000 C 
ATOM     29  C   UNL     1     109.461 130.167 139.070  0.00  0.00    +0.000 C 
ATOM     30  C   UNL     1     109.819 130.858 138.794  0.00  0.00    +0.000 C 
ATOM     31  C   UNL     1     110.629 130.868 138.638  0.00  0.00    +0.000 C 
ATOM     32  C   UNL     1     111.081 130.188 138.757  0.00  0.00    +0.000 C 
BRANCH  28  33
ATOM     33  C   UNL     1     109.555 128.798 139.464  0.00  0.00    +0.000 C 
BRANCH  33  34
ATOM     34  O   UNL     1     109.720 128.523 140.225  0.00  0.00    +0.000 OA
BRANCH  34  40
ATOM     35  O   UNL     1     109.900 127.153 139.860  0.00  0.00    +0.000 OA
ATOM     36  O   UNL     1     109.042 128.053 141.654  0.00  0.00    +0.000 OA
ATOM     37  O   UNL     1     108.884 126.449 142.004  0.00  0.00    +0.000 OA
ATOM     38  O   UNL     1     109.403 125.314 140.924  0.00  0.00    +0.000 OA
ATOM     39  C   UNL     1     109.302 127.485 141.114  0.00  0.00    +0.000 C 
ATOM     40  C   UNL     1     109.640 127.720 140.400  0.00  0.00    +0.000 C 
ATOM     41  C   UNL     1     109.222 126.683 141.289  0.00  0.00    +0.000 C 
ATOM     42  C   UNL     1     109.482 126.115 140.750  0.00  0.00    +0.000 C 
ATOM     43  C   UNL     1     109.821 126.350 140.035  0.00  0.00    +0.000 C 
ATOM     44  C   UNL     1     110.081 125.784 139.495  0.00  0.00    +0.000 C 
ENDBRANCH  34  40
ENDBRANCH  33  34
ENDBRANCH  28  33
ENDBRANCH  23  32
ENDBRANCH   4  23
BRANCH   5  45
ATOM     45  O   UNL     1     113.459 126.552 136.175  0.00  0.00    +0.000 OA
BRANCH  45  54
ATOM     46  O   UNL     1     112.435 125.564 136.305  0.00  0.00    +0.000 OA
ATOM     47  O   UNL     1     114.084 123.977 137.246  0.00  0.00    +0.000 OA
ATOM     48  O   UNL     1     112.510 123.519 137.062  0.00  0.00    +0.000 OA
ATOM     49  O   UNL     1     114.559 125.494 136.803  0.00  0.00    +0.000 OA
ATOM     50  C   UNL     1     113.534 124.506 136.933  0.00  0.00    +0.000 C 
ATOM     51  C   UNL     1     112.747 124.277 136.840  0.00  0.00    +0.000 C 
ATOM     52  C   UNL     1     113.772 125.265 136.711  0.00  0.00    +0.000 C 
ATOM     53  C   UNL     1     112.197 124.806 136.526  0.00  0.00    +0.000 C 
ATOM     54  C   UNL     1     113.222 125.794 136.397  0.00  0.00    +0.000 C 
BRANCH  53  56
ATOM     55  O   UNL     1     111.006 124.762 135.739  0.00  0.00    +0.000 OA
ATOM     56  C   UNL     1     111.410 124.577 136.434  0.00  0.00    +0.000 C 
ENDBRANCH  53  56
ENDBRANCH  45  54
ENDBRANCH   5  45
TORSDOF 10
ENDMDL
MODEL 6
REMARK VINA RESULT:     -10.4      2.181      5.507
REMARK  Name = 70698920
REMARK  10 active torsions:
REMARK  status: ('A' for Active; 'I' for Inactive)
REMARK    1  A    between atoms: O_2  and  C_28
REMARK    2  A    between atoms: O_2  and  C_32
REMARK    3  A    between atoms: O_5  and  C_30
REMARK    4  A    between atoms: O_5  and  C_41
REMARK    5  A    between atoms: O_12  and  C_38
REMARK    6  A    between atoms: O_12  and  C_42
REMARK    7  A    between atoms: O_20  and  C_53
REMARK    8  A    between atoms: C_23  and  C_32
REMARK    9  A    between atoms: C_37  and  C_40
REMARK   10  A    between atoms: C_43  and  C_50
REMARK                            x       y       z     vdW  Elec       q    Type
REMARK                         _______ _______ _______ _____ _____    ______ ____
ROOT
ATOM      1  O   UNL     1     112.243 126.786 138.732  0.00  0.00    +0.000 OA
ATOM      2  O   UNL     1     113.396 128.794 137.858  0.00  0.00    +0.000 OA
ATOM      3  O   UNL     1     113.009 129.558 139.020  0.00  0.00    +0.000 OA
ATOM      4  C   UNL     1     113.017 127.424 137.715  0.00  0.00    +0.000 A 
ATOM      5  C   UNL     1     111.816 128.235 140.380  0.00  0.00    +0.000 A 
ATOM      6  C   UNL     1     112.633 126.755 138.006  0.00  0.00    +0.000 A 
ATOM      7  C   UNL     1     113.011 128.125 138.150  0.00  0.00    +0.000 A 
ATOM      8  C   UNL     1     112.621 128.157 138.876  0.00  0.00    +0.000 A 
ATOM      9  C   UNL     1     112.237 127.488 139.167  0.00  0.00    +0.000 A 
ATOM     10  C   UNL     1     111.827 127.508 139.922  0.00  0.00    +0.000 A 
ATOM     11  C   UNL     1     112.217 128.933 140.076  0.00  0.00    +0.000 A 
ATOM     12  C   UNL     1     112.622 128.893 139.319  0.00  0.00    +0.000 A 
ENDROOT
BRANCH   6  15
ATOM     13  O   UNL     1     111.340 124.948 136.209  0.00  0.00    +0.000 OA
ATOM     14  O   UNL     1     112.653 123.950 136.268  0.00  0.00    +0.000 OA
ATOM     15  C   UNL     1     112.639 126.054 137.572  0.00  0.00    +0.000 A 
ATOM     16  C   UNL     1     113.295 125.555 137.602  0.00  0.00    +0.000 A 
ATOM     17  C   UNL     1     111.987 125.851 137.108  0.00  0.00    +0.000 A 
ATOM     18  C   UNL     1     113.299 124.853 137.167  0.00  0.00    +0.000 A 
ATOM     19  C   UNL     1     111.992 125.150 136.673  0.00  0.00    +0.000 A 
ATOM     20  C   UNL     1     112.649 124.651 136.703  0.00  0.00    +0.000 A 
BRANCH  18  21
ATOM     21  O   UNL     1     113.956 124.354 137.197  0.00  0.00    +0.000 OA
ATOM     22  C   UNL     1     114.697 124.658 137.397  0.00  0.00    +0.000 C 
ENDBRANCH  18  21
ENDBRANCH   6  15
BRANCH   4  23
ATOM     23  O   UNL     1     113.407 127.392 136.989  0.00  0.00    +0.000 OA
BRANCH  23  32
ATOM     24  O   UNL     1     112.447 128.219 136.329  0.00  0.00    +0.000 OA
ATOM     25  O   UNL     1     112.648 129.552 134.613  0.00  0.00    +0.000 OA
ATOM     26  O   UNL     1     114.189 128.979 134.745  0.00  0.00    +0.000 OA
ATOM     27  O   UNL     1     114.569 127.899 135.933  0.00  0.00    +0.000 OA
ATOM     28  C   UNL     1     112.257 128.759 135.735  0.00  0.00    +0.000 C 
ATOM     29  C   UNL     1     112.838 129.012 135.207  0.00  0.00    +0.000 C 
ATOM     30  C   UNL     1     113.609 128.726 135.272  0.00  0.00    +0.000 C 
ATOM     31  C   UNL     1     113.799 128.186 135.866  0.00  0.00    +0.000 C 
ATOM     32  C   UNL     1     113.217 127.932 136.395  0.00  0.00    +0.000 C 
BRANCH  28  33
ATOM     33  C   UNL     1     111.487 129.046 135.669  0.00  0.00    +0.000 C 
BRANCH  33  34
ATOM     34  O   UNL     1     110.847 128.532 135.757  0.00  0.00    +0.000 OA
BRANCH  34  40
ATOM     35  O   UNL     1     109.966 129.636 135.973  0.00  0.00    +0.000 OA
ATOM     36  O   UNL     1     109.548 127.530 135.582  0.00  0.00    +0.000 OA
ATOM     37  O   UNL     1     108.018 128.133 135.710  0.00  0.00    +0.000 OA
ATOM     38  O   UNL     1     107.786 129.739 136.014  0.00  0.00    +0.000 OA
ATOM     39  C   UNL     1     109.432 128.333 135.734  0.00  0.00    +0.000 C 
ATOM     40  C   UNL     1     110.081 128.834 135.821  0.00  0.00    +0.000 C 
ATOM     41  C   UNL     1     108.667 128.634 135.798  0.00  0.00    +0.000 C 
ATOM     42  C   UNL     1     108.551 129.437 135.950  0.00  0.00    +0.000 C 
ATOM     43  C   UNL     1     109.200 129.938 136.037  0.00  0.00    +0.000 C 
ATOM     44  C   UNL     1     109.086 130.741 136.189  0.00  0.00    +0.000 C 
ENDBRANCH  34  40
ENDBRANCH  33  34
ENDBRANCH  28  33
ENDBRANCH  23  32
ENDBRANCH   4  23
BRANCH   5  45
ATOM     45  O   UNL     1     111.425 128.264 141.106  0.00  0.00    +0.000 OA
BRANCH  45  54
ATOM     46  O   UNL     1     110.199 128.841 140.653  0.00  0.00    +0.000 OA
ATOM     47  O   UNL     1     108.934 127.335 142.154  0.00  0.00    +0.000 OA
ATOM     48  O   UNL     1     108.130 128.415 141.200  0.00  0.00    +0.000 OA
ATOM     49  O   UNL     1     110.582 127.259 142.107  0.00  0.00    +0.000 OA
ATOM     50  C   UNL     1     109.356 127.837 141.654  0.00  0.00    +0.000 C 
ATOM     51  C   UNL     1     108.954 128.377 141.176  0.00  0.00    +0.000 C 
ATOM     52  C   UNL     1     110.180 127.799 141.630  0.00  0.00    +0.000 C 
ATOM     53  C   UNL     1     109.376 128.880 140.676  0.00  0.00    +0.000 C 
ATOM     54  C   UNL     1     110.601 128.301 141.130  0.00  0.00    +0.000 C 
BRANCH  53  56
ATOM     55  O   UNL     1     108.948 129.307 139.382  0.00  0.00    +0.000 OA
ATOM     56  C   UNL     1     108.974 129.419 140.199  0.00  0.00    +0.000 C 
ENDBRANCH  53  56
ENDBRANCH  45  54
ENDBRANCH   5  45
TORSDOF 10
ENDMDL
MODEL 7
REMARK VINA RESULT:     -10.4      1.586      3.129
REMARK  Name = 70698920
REMARK  10 active torsions:
REMARK  status: ('A' for Active; 'I' for Inactive)
REMARK    1  A    between atoms: O_2  and  C_28
REMARK    2  A    between atoms: O_2  and  C_32
REMARK    3  A    between atoms: O_5  and  C_30
REMARK    4  A    between atoms: O_5  and  C_41
REMARK    5  A    between atoms: O_12  and  C_38
REMARK    6  A    between atoms: O_12  and  C_42
REMARK    7  A    between atoms: O_20  and  C_53
REMARK    8  A    between atoms: C_23  and  C_32
REMARK    9  A    between atoms: C_37  and  C_40
REMARK   10  A    between atoms: C_43  and  C_50
REMARK                            x       y       z     vdW  Elec       q    Type
REMARK                         _______ _______ _______ _____ _____    ______ ____
ROOT
ATOM      1  O   UNL     1     111.908 128.712 137.766  0.00  0.00    +0.000 OA
ATOM      2  O   UNL     1     109.967 129.980 136.898  0.00  0.00    +0.000 OA
ATOM      3  O   UNL     1     109.125 128.812 136.992  0.00  0.00    +0.000 OA
ATOM      4  C   UNL     1     111.342 129.932 137.281  0.00  0.00    +0.000 A 
ATOM      5  C   UNL     1     110.349 127.111 137.786  0.00  0.00    +0.000 A 
ATOM      6  C   UNL     1     111.989 129.509 137.570  0.00  0.00    +0.000 A 
ATOM      7  C   UNL     1     110.614 129.558 137.188  0.00  0.00    +0.000 A 
ATOM      8  C   UNL     1     110.531 128.760 137.384  0.00  0.00    +0.000 A 
ATOM      9  C   UNL     1     111.178 128.338 137.673  0.00  0.00    +0.000 A 
ATOM     10  C   UNL     1     111.105 127.507 137.880  0.00  0.00    +0.000 A 
ATOM     11  C   UNL     1     109.674 127.551 137.484  0.00  0.00    +0.000 A 
ATOM     12  C   UNL     1     109.767 128.382 137.282  0.00  0.00    +0.000 A 
ENDROOT
BRANCH   6  15
ATOM     13  O   UNL     1     114.398 130.551 136.439  0.00  0.00    +0.000 OA
ATOM     14  O   UNL     1     114.907 131.005 137.941  0.00  0.00    +0.000 OA
ATOM     15  C   UNL     1     112.718 129.883 137.663  0.00  0.00    +0.000 A 
ATOM     16  C   UNL     1     112.973 130.110 138.415  0.00  0.00    +0.000 A 
ATOM     17  C   UNL     1     113.194 130.030 137.004  0.00  0.00    +0.000 A 
ATOM     18  C   UNL     1     113.703 130.484 138.507  0.00  0.00    +0.000 A 
ATOM     19  C   UNL     1     113.923 130.404 137.098  0.00  0.00    +0.000 A 
ATOM     20  C   UNL     1     114.177 130.631 137.849  0.00  0.00    +0.000 A 
BRANCH  18  21
ATOM     21  O   UNL     1     113.957 130.712 139.258  0.00  0.00    +0.000 OA
ATOM     22  C   UNL     1     113.829 130.215 139.905  0.00  0.00    +0.000 C 
ENDBRANCH  18  21
ENDBRANCH   6  15
BRANCH   4  23
ATOM     23  O   UNL     1     111.425 130.728 137.085  0.00  0.00    +0.000 OA
BRANCH  23  32
ATOM     24  O   UNL     1     110.697 131.163 138.235  0.00  0.00    +0.000 OA
ATOM     25  O   UNL     1     109.582 133.001 138.611  0.00  0.00    +0.000 OA
ATOM     26  O   UNL     1     110.116 133.269 137.073  0.00  0.00    +0.000 OA
ATOM     27  O   UNL     1     111.037 132.133 136.310  0.00  0.00    +0.000 OA
ATOM     28  C   UNL     1     110.236 131.732 138.617  0.00  0.00    +0.000 C 
ATOM     29  C   UNL     1     110.043 132.433 138.230  0.00  0.00    +0.000 C 
ATOM     30  C   UNL     1     110.309 132.568 137.460  0.00  0.00    +0.000 C 
ATOM     31  C   UNL     1     110.770 131.999 137.079  0.00  0.00    +0.000 C 
ATOM     32  C   UNL     1     110.964 131.297 137.466  0.00  0.00    +0.000 C 
BRANCH  28  33
ATOM     33  C   UNL     1     109.970 131.598 139.386  0.00  0.00    +0.000 C 
BRANCH  33  34
ATOM     34  O   UNL     1     110.510 131.422 139.984  0.00  0.00    +0.000 OA
BRANCH  34  40
ATOM     35  O   UNL     1     109.793 130.306 140.516  0.00  0.00    +0.000 OA
ATOM     36  O   UNL     1     111.005 131.828 141.505  0.00  0.00    +0.000 OA
ATOM     37  O   UNL     1     110.536 130.916 142.797  0.00  0.00    +0.000 OA
ATOM     38  O   UNL     1     109.571 129.597 142.568  0.00  0.00    +0.000 OA
ATOM     39  C   UNL     1     110.523 131.169 141.391  0.00  0.00    +0.000 C 
ATOM     40  C   UNL     1     110.275 130.966 140.631  0.00  0.00    +0.000 C 
ATOM     41  C   UNL     1     110.288 130.713 142.037  0.00  0.00    +0.000 C 
ATOM     42  C   UNL     1     109.806 130.053 141.923  0.00  0.00    +0.000 C 
ATOM     43  C   UNL     1     109.558 129.850 141.163  0.00  0.00    +0.000 C 
ATOM     44  C   UNL     1     109.076 129.190 141.048  0.00  0.00    +0.000 C 
ENDBRANCH  34  40
ENDBRANCH  33  34
ENDBRANCH  28  33
ENDBRANCH  23  32
ENDBRANCH   4  23
BRANCH   5  45
ATOM     45  O   UNL     1     110.269 126.313 137.983  0.00  0.00    +0.000 OA
BRANCH  45  54
ATOM     46  O   UNL     1     110.564 125.755 136.701  0.00  0.00    +0.000 OA
ATOM     47  O   UNL     1     111.890 123.968 137.785  0.00  0.00    +0.000 OA
ATOM     48  O   UNL     1     111.742 124.005 136.141  0.00  0.00    +0.000 OA
ATOM     49  O   UNL     1     111.153 125.122 138.705  0.00  0.00    +0.000 OA
ATOM     50  C   UNL     1     111.448 124.563 137.423  0.00  0.00    +0.000 C 
ATOM     51  C   UNL     1     111.374 124.582 136.602  0.00  0.00    +0.000 C 
ATOM     52  C   UNL     1     111.080 125.141 137.884  0.00  0.00    +0.000 C 
ATOM     53  C   UNL     1     110.932 125.178 136.240  0.00  0.00    +0.000 C 
ATOM     54  C   UNL     1     110.638 125.736 137.522  0.00  0.00    +0.000 C 
BRANCH  53  56
ATOM     55  O   UNL     1     110.120 125.328 135.075  0.00  0.00    +0.000 OA
ATOM     56  C   UNL     1     110.858 125.196 135.419  0.00  0.00    +0.000 C 
ENDBRANCH  53  56
ENDBRANCH  45  54
ENDBRANCH   5  45
TORSDOF 10
ENDMDL
MODEL 8
REMARK VINA RESULT:     -10.4      1.944      5.877
REMARK  Name = 70698920
REMARK  10 active torsions:
REMARK  status: ('A' for Active; 'I' for Inactive)
REMARK    1  A    between atoms: O_2  and  C_28
REMARK    2  A    between atoms: O_2  and  C_32
REMARK    3  A    between atoms: O_5  and  C_30
REMARK    4  A    between atoms: O_5  and  C_41
REMARK    5  A    between atoms: O_12  and  C_38
REMARK    6  A    between atoms: O_12  and  C_42
REMARK    7  A    between atoms: O_20  and  C_53
REMARK    8  A    between atoms: C_23  and  C_32
REMARK    9  A    between atoms: C_37  and  C_40
REMARK   10  A    between atoms: C_43  and  C_50
REMARK                            x       y       z     vdW  Elec       q    Type
REMARK                         _______ _______ _______ _____ _____    ______ ____
ROOT
ATOM      1  O   UNL     1     111.292 129.122 139.317  0.00  0.00    +0.000 OA
ATOM      2  O   UNL     1     113.430 129.909 138.351  0.00  0.00    +0.000 OA
ATOM      3  O   UNL     1     114.099 129.740 139.618  0.00  0.00    +0.000 OA
ATOM      4  C   UNL     1     112.043 129.604 138.201  0.00  0.00    +0.000 A 
ATOM      5  C   UNL     1     112.615 128.976 141.113  0.00  0.00    +0.000 A 
ATOM      6  C   UNL     1     111.330 129.342 138.523  0.00  0.00    +0.000 A 
ATOM      7  C   UNL     1     112.717 129.647 138.673  0.00  0.00    +0.000 A 
ATOM      8  C   UNL     1     112.681 129.427 139.468  0.00  0.00    +0.000 A 
ATOM      9  C   UNL     1     111.968 129.165 139.790  0.00  0.00    +0.000 A 
ATOM     10  C   UNL     1     111.916 128.933 140.615  0.00  0.00    +0.000 A 
ATOM     11  C   UNL     1     113.358 129.249 140.777  0.00  0.00    +0.000 A 
ATOM     12  C   UNL     1     113.391 129.477 139.948  0.00  0.00    +0.000 A 
ENDROOT
BRANCH   6  15
ATOM     13  O   UNL     1     109.428 127.788 137.062  0.00  0.00    +0.000 OA
ATOM     14  O   UNL     1     108.628 129.167 136.637  0.00  0.00    +0.000 OA
ATOM     15  C   UNL     1     110.655 129.299 138.052  0.00  0.00    +0.000 A 
ATOM     16  C   UNL     1     110.255 129.988 137.839  0.00  0.00    +0.000 A 
ATOM     17  C   UNL     1     110.379 128.565 137.793  0.00  0.00    +0.000 A 
ATOM     18  C   UNL     1     109.579 129.944 137.367  0.00  0.00    +0.000 A 
ATOM     19  C   UNL     1     109.704 128.522 137.321  0.00  0.00    +0.000 A 
ATOM     20  C   UNL     1     109.304 129.211 137.108  0.00  0.00    +0.000 A 
BRANCH  18  21
ATOM     21  O   UNL     1     109.179 130.633 137.154  0.00  0.00    +0.000 OA
ATOM     22  C   UNL     1     108.988 131.194 137.729  0.00  0.00    +0.000 C 
ENDBRANCH  18  21
ENDBRANCH   6  15
BRANCH   4  23
ATOM     23  O   UNL     1     112.080 129.824 137.407  0.00  0.00    +0.000 OA
BRANCH  23  32
ATOM     24  O   UNL     1     112.784 128.659 136.970  0.00  0.00    +0.000 OA
ATOM     25  O   UNL     1     114.280 128.397 135.403  0.00  0.00    +0.000 OA
ATOM     26  O   UNL     1     113.974 130.014 135.275  0.00  0.00    +0.000 OA
ATOM     27  O   UNL     1     112.874 130.727 136.277  0.00  0.00    +0.000 OA
ATOM     28  C   UNL     1     113.334 128.303 136.469  0.00  0.00    +0.000 C 
ATOM     29  C   UNL     1     113.730 128.754 135.904  0.00  0.00    +0.000 C 
ATOM     30  C   UNL     1     113.577 129.562 135.840  0.00  0.00    +0.000 C 
ATOM     31  C   UNL     1     113.027 129.919 136.341  0.00  0.00    +0.000 C 
ATOM     32  C   UNL     1     112.630 129.467 136.906  0.00  0.00    +0.000 C 
BRANCH  28  33
ATOM     33  C   UNL     1     113.486 127.495 136.533  0.00  0.00    +0.000 C 
BRANCH  33  34
ATOM     34  O   UNL     1     112.865 126.954 136.502  0.00  0.00    +0.000 OA
BRANCH  34  40
ATOM     35  O   UNL     1     113.714 125.909 136.979  0.00  0.00    +0.000 OA
ATOM     36  O   UNL     1     111.745 125.833 136.041  0.00  0.00    +0.000 OA
ATOM     37  O   UNL     1     112.035 124.227 136.288  0.00  0.00    +0.000 OA
ATOM     38  O   UNL     1     113.445 123.743 136.996  0.00  0.00    +0.000 OA
ATOM     39  C   UNL     1     112.450 125.590 136.395  0.00  0.00    +0.000 C 
ATOM     40  C   UNL     1     113.010 126.150 136.625  0.00  0.00    +0.000 C 
ATOM     41  C   UNL     1     112.595 124.788 136.518  0.00  0.00    +0.000 C 
ATOM     42  C   UNL     1     113.300 124.545 136.872  0.00  0.00    +0.000 C 
ATOM     43  C   UNL     1     113.859 125.106 137.103  0.00  0.00    +0.000 C 
ATOM     44  C   UNL     1     114.564 124.864 137.457  0.00  0.00    +0.000 C 
ENDBRANCH  34  40
ENDBRANCH  33  34
ENDBRANCH  28  33
ENDBRANCH  23  32
ENDBRANCH   4  23
BRANCH   5  45
ATOM     45  O   UNL     1     112.575 128.755 141.907  0.00  0.00    +0.000 OA
BRANCH  45  54
ATOM     46  O   UNL     1     112.327 130.066 142.420  0.00  0.00    +0.000 OA
ATOM     47  O   UNL     1     110.858 129.106 144.165  0.00  0.00    +0.000 OA
ATOM     48  O   UNL     1     111.101 130.737 144.096  0.00  0.00    +0.000 OA
ATOM     49  O   UNL     1     111.595 128.115 143.070  0.00  0.00    +0.000 OA
ATOM     50  C   UNL     1     111.348 129.426 143.583  0.00  0.00    +0.000 C 
ATOM     51  C   UNL     1     111.469 130.241 143.548  0.00  0.00    +0.000 C 
ATOM     52  C   UNL     1     111.716 128.930 143.036  0.00  0.00    +0.000 C 
ATOM     53  C   UNL     1     111.959 130.561 142.967  0.00  0.00    +0.000 C 
ATOM     54  C   UNL     1     112.206 129.251 142.454  0.00  0.00    +0.000 C 
BRANCH  53  56
ATOM     55  O   UNL     1     112.825 131.674 142.735  0.00  0.00    +0.000 OA
ATOM     56  C   UNL     1     112.081 131.377 142.932  0.00  0.00    +0.000 C 
ENDBRANCH  53  56
ENDBRANCH  45  54
ENDBRANCH   5  45
TORSDOF 10
ENDMDL
MODEL 9
REMARK VINA RESULT:     -10.4      1.688      3.577
REMARK  Name = 70698920
REMARK  10 active torsions:
REMARK  status: ('A' for Active; 'I' for Inactive)
REMARK    1  A    between atoms: O_2  and  C_28
REMARK    2  A    between atoms: O_2  and  C_32
REMARK    3  A    between atoms: O_5  and  C_30
REMARK    4  A    between atoms: O_5  and  C_41
REMARK    5  A    between atoms: O_12  and  C_38
REMARK    6  A    between atoms: O_12  and  C_42
REMARK    7  A    between atoms: O_20  and  C_53
REMARK    8  A    between atoms: C_23  and  C_32
REMARK    9  A    between atoms: C_37  and  C_40
REMARK   10  A    between atoms: C_43  and  C_50
REMARK                            x       y       z     vdW  Elec       q    Type
REMARK                         _______ _______ _______ _____ _____    ______ ____
ROOT
ATOM      1  O   UNL     1     110.760 129.031 136.711  0.00  0.00    +0.000 OA
ATOM      2  O   UNL     1     109.182 128.361 138.496  0.00  0.00    +0.000 OA
ATOM      3  O   UNL     1     109.301 126.972 138.120  0.00  0.00    +0.000 OA
ATOM      4  C   UNL     1     109.903 129.379 137.801  0.00  0.00    +0.000 A 
ATOM      5  C   UNL     1     110.717 126.820 136.391  0.00  0.00    +0.000 A 
ATOM      6  C   UNL     1     110.429 129.602 137.206  0.00  0.00    +0.000 A 
ATOM      7  C   UNL     1     109.708 128.584 137.901  0.00  0.00    +0.000 A 
ATOM      8  C   UNL     1     110.039 128.012 137.407  0.00  0.00    +0.000 A 
ATOM      9  C   UNL     1     110.565 128.235 136.812  0.00  0.00    +0.000 A 
ATOM     10  C   UNL     1     110.916 127.650 136.291  0.00  0.00    +0.000 A 
ATOM     11  C   UNL     1     110.169 126.587 137.011  0.00  0.00    +0.000 A 
ATOM     12  C   UNL     1     109.828 127.187 137.522  0.00  0.00    +0.000 A 
ENDROOT
BRANCH   6  15
ATOM     13  O   UNL     1     109.722 132.233 136.341  0.00  0.00    +0.000 OA
ATOM     14  O   UNL     1     111.208 132.783 136.799  0.00  0.00    +0.000 OA
ATOM     15  C   UNL     1     110.624 130.397 137.104  0.00  0.00    +0.000 A 
ATOM     16  C   UNL     1     111.367 130.673 137.334  0.00  0.00    +0.000 A 
ATOM     17  C   UNL     1     110.075 130.918 136.773  0.00  0.00    +0.000 A 
ATOM     18  C   UNL     1     111.562 131.468 137.232  0.00  0.00    +0.000 A 
ATOM     19  C   UNL     1     110.271 131.713 136.672  0.00  0.00    +0.000 A 
ATOM     20  C   UNL     1     111.014 131.988 136.901  0.00  0.00    +0.000 A 
BRANCH  18  21
ATOM     21  O   UNL     1     112.305 131.743 137.461  0.00  0.00    +0.000 OA
ATOM     22  C   UNL     1     112.985 131.330 137.239  0.00  0.00    +0.000 C 
ENDBRANCH  18  21
ENDBRANCH   6  15
BRANCH   4  23
ATOM     23  O   UNL     1     109.572 129.950 138.294  0.00  0.00    +0.000 OA
BRANCH  23  32
ATOM     24  O   UNL     1     110.396 129.630 139.417  0.00  0.00    +0.000 OA
ATOM     25  O   UNL     1     110.005 129.758 141.560  0.00  0.00    +0.000 OA
ATOM     26  O   UNL     1     108.572 130.303 140.948  0.00  0.00    +0.000 OA
ATOM     27  O   UNL     1     108.356 130.399 139.315  0.00  0.00    +0.000 OA
ATOM     28  C   UNL     1     110.504 129.582 140.234  0.00  0.00    +0.000 C 
ATOM     29  C   UNL     1     109.896 129.806 140.744  0.00  0.00    +0.000 C 
ATOM     30  C   UNL     1     109.180 130.079 140.438  0.00  0.00    +0.000 C 
ATOM     31  C   UNL     1     109.072 130.127 139.622  0.00  0.00    +0.000 C 
ATOM     32  C   UNL     1     109.680 129.902 139.111  0.00  0.00    +0.000 C 
BRANCH  28  33
ATOM     33  C   UNL     1     111.220 129.310 140.539  0.00  0.00    +0.000 C 
BRANCH  33  34
ATOM     34  O   UNL     1     111.926 129.681 140.328  0.00  0.00    +0.000 OA
BRANCH  34  40
ATOM     35  O   UNL     1     112.681 128.476 140.474  0.00  0.00    +0.000 OA
ATOM     36  O   UNL     1     113.298 130.568 140.556  0.00  0.00    +0.000 OA
ATOM     37  O   UNL     1     114.739 129.808 140.816  0.00  0.00    +0.000 OA
ATOM     38  O   UNL     1     114.808 128.159 140.848  0.00  0.00    +0.000 OA
ATOM     39  C   UNL     1     113.333 129.744 140.572  0.00  0.00    +0.000 C 
ATOM     40  C   UNL     1     112.647 129.300 140.458  0.00  0.00    +0.000 C 
ATOM     41  C   UNL     1     114.053 129.364 140.702  0.00  0.00    +0.000 C 
ATOM     42  C   UNL     1     114.088 128.539 140.718  0.00  0.00    +0.000 C 
ATOM     43  C   UNL     1     113.402 128.096 140.604  0.00  0.00    +0.000 C 
ATOM     44  C   UNL     1     113.436 127.272 140.620  0.00  0.00    +0.000 C 
ENDBRANCH  34  40
ENDBRANCH  33  34
ENDBRANCH  28  33
ENDBRANCH  23  32
ENDBRANCH   4  23
BRANCH   5  45
ATOM     45  O   UNL     1     111.050 126.250 135.895  0.00  0.00    +0.000 OA
BRANCH  45  54
ATOM     46  O   UNL     1     112.291 126.025 136.566  0.00  0.00    +0.000 OA
ATOM     47  O   UNL     1     111.987 123.582 136.310  0.00  0.00    +0.000 OA
ATOM     48  O   UNL     1     113.330 124.173 137.067  0.00  0.00    +0.000 OA
ATOM     49  O   UNL     1     110.847 124.621 135.725  0.00  0.00    +0.000 OA
ATOM     50  C   UNL     1     112.089 124.397 136.396  0.00  0.00    +0.000 C 
ATOM     51  C   UNL     1     112.760 124.692 136.774  0.00  0.00    +0.000 C 
ATOM     52  C   UNL     1     111.519 124.916 136.103  0.00  0.00    +0.000 C 
ATOM     53  C   UNL     1     112.862 125.507 136.859  0.00  0.00    +0.000 C 
ATOM     54  C   UNL     1     111.620 125.730 136.188  0.00  0.00    +0.000 C 
BRANCH  53  56
ATOM     55  O   UNL     1     113.995 126.376 136.866  0.00  0.00    +0.000 OA
ATOM     56  C   UNL     1     113.533 125.801 137.237  0.00  0.00    +0.000 C 
ENDBRANCH  53  56
ENDBRANCH  45  54
ENDBRANCH   5  45
TORSDOF 10
ENDMDL
MODEL 10
REMARK VINA RESULT:     -10.4      2.151      5.864
REMARK  Name = 70698920
REMARK  10 active torsions:
REMARK  status: ('A' for Active; 'I' for Inactive)
REMARK    1  A    between atoms: O_2  and  C_28
REMARK    2  A    between atoms: O_2  and  C_32
REMARK    3  A    between atoms: O_5  and  C_30
REMARK    4  A    between atoms: O_5  and  C_41
REMARK    5  A    between atoms: O_12  and  C_38
REMARK    6  A    between atoms: O_12  and  C_42
REMARK    7  A    between atoms: O_20  and  C_53
REMARK    8  A    between atoms: C_23  and  C_32
REMARK    9  A    between atoms: C_37  and  C_40
REMARK   10  A    between atoms: C_43  and  C_50
REMARK                            x       y       z     vdW  Elec       q    Type
REMARK                         _______ _______ _______ _____ _____    ______ ____
ROOT
ATOM      1  O   UNL     1     112.090 129.301 138.797  0.00  0.00    +0.000 OA
ATOM      2  O   UNL     1     109.634 129.500 138.563  0.00  0.00    +0.000 OA
ATOM      3  O   UNL     1     109.440 129.078 139.929  0.00  0.00    +0.000 OA
ATOM      4  C   UNL     1     110.943 129.611 138.003  0.00  0.00    +0.000 A 
ATOM      5  C   UNL     1     111.446 128.685 140.847  0.00  0.00    +0.000 A 
ATOM      6  C   UNL     1     111.762 129.544 138.081  0.00  0.00    +0.000 A 
ATOM      7  C   UNL     1     110.453 129.434 138.641  0.00  0.00    +0.000 A 
ATOM      8  C   UNL     1     110.780 129.190 139.359  0.00  0.00    +0.000 A 
ATOM      9  C   UNL     1     111.598 129.123 139.437  0.00  0.00    +0.000 A 
ATOM     10  C   UNL     1     111.951 128.871 140.178  0.00  0.00    +0.000 A 
ATOM     11  C   UNL     1     110.593 128.754 140.766  0.00  0.00    +0.000 A 
ATOM     12  C   UNL     1     110.258 129.009 140.016  0.00  0.00    +0.000 A 
ENDROOT
BRANCH   6  15
ATOM     13  O   UNL     1     113.106 131.471 136.453  0.00  0.00    +0.000 OA
ATOM     14  O   UNL     1     113.729 130.254 135.528  0.00  0.00    +0.000 OA
ATOM     15  C   UNL     1     112.254 129.721 137.443  0.00  0.00    +0.000 A 
ATOM     16  C   UNL     1     112.565 129.113 136.980  0.00  0.00    +0.000 A 
ATOM     17  C   UNL     1     112.434 130.507 137.267  0.00  0.00    +0.000 A 
ATOM     18  C   UNL     1     113.057 129.291 136.342  0.00  0.00    +0.000 A 
ATOM     19  C   UNL     1     112.926 130.684 136.629  0.00  0.00    +0.000 A 
ATOM     20  C   UNL     1     113.237 130.076 136.166  0.00  0.00    +0.000 A 
BRANCH  18  21
ATOM     21  O   UNL     1     113.368 128.683 135.879  0.00  0.00    +0.000 OA
ATOM     22  C   UNL     1     113.662 128.000 136.238  0.00  0.00    +0.000 C 
ENDBRANCH  18  21
ENDBRANCH   6  15
BRANCH   4  23
ATOM     23  O   UNL     1     110.617 129.854 137.286  0.00  0.00    +0.000 OA
BRANCH  23  32
ATOM     24  O   UNL     1     110.139 128.557 136.923  0.00  0.00    +0.000 OA
ATOM     25  O   UNL     1     108.400 127.950 135.753  0.00  0.00    +0.000 OA
ATOM     26  O   UNL     1     108.246 129.592 135.711  0.00  0.00    +0.000 OA
ATOM     27  O   UNL     1     109.354 130.544 136.478  0.00  0.00    +0.000 OA
ATOM     28  C   UNL     1     109.584 128.081 136.540  0.00  0.00    +0.000 C 
ATOM     29  C   UNL     1     108.954 128.426 136.136  0.00  0.00    +0.000 C 
ATOM     30  C   UNL     1     108.877 129.247 136.115  0.00  0.00    +0.000 C 
ATOM     31  C   UNL     1     109.431 129.723 136.498  0.00  0.00    +0.000 C 
ATOM     32  C   UNL     1     110.062 129.378 136.903  0.00  0.00    +0.000 C 
BRANCH  28  33
ATOM     33  C   UNL     1     109.661 127.261 136.561  0.00  0.00    +0.000 C 
BRANCH  33  34
ATOM     34  O   UNL     1     110.323 126.900 136.225  0.00  0.00    +0.000 OA
BRANCH  34  40
ATOM     35  O   UNL     1     110.700 126.146 137.379  0.00  0.00    +0.000 OA
ATOM     36  O   UNL     1     110.805 125.656 135.254  0.00  0.00    +0.000 OA
ATOM     37  O   UNL     1     111.423 124.280 135.923  0.00  0.00    +0.000 OA
ATOM     38  O   UNL     1     111.559 124.147 137.562  0.00  0.00    +0.000 OA
ATOM     39  C   UNL     1     110.873 125.589 136.074  0.00  0.00    +0.000 C 
ATOM     40  C   UNL     1     110.632 126.211 136.559  0.00  0.00    +0.000 C 
ATOM     41  C   UNL     1     111.182 124.902 136.408  0.00  0.00    +0.000 C 
ATOM     42  C   UNL     1     111.250 124.835 137.228  0.00  0.00    +0.000 C 
ATOM     43  C   UNL     1     111.009 125.457 137.713  0.00  0.00    +0.000 C 
ATOM     44  C   UNL     1     111.076 125.391 138.533  0.00  0.00    +0.000 C 
ENDBRANCH  34  40
ENDBRANCH  33  34
ENDBRANCH  28  33
ENDBRANCH  23  32
ENDBRANCH   4  23
BRANCH   5  45
ATOM     45  O   UNL     1     111.776 128.441 141.563  0.00  0.00    +0.000 OA
BRANCH  45  54
ATOM     46  O   UNL     1     112.036 129.739 142.103  0.00  0.00    +0.000 OA
ATOM     47  O   UNL     1     111.353 128.943 144.345  0.00  0.00    +0.000 OA
ATOM     48  O   UNL     1     111.840 130.506 144.137  0.00  0.00    +0.000 OA
ATOM     49  O   UNL     1     111.321 127.911 143.058  0.00  0.00    +0.000 OA
ATOM     50  C   UNL     1     111.580 129.208 143.598  0.00  0.00    +0.000 C 
ATOM     51  C   UNL     1     111.824 129.990 143.493  0.00  0.00    +0.000 C 
ATOM     52  C   UNL     1     111.564 128.692 142.954  0.00  0.00    +0.000 C 
ATOM     53  C   UNL     1     112.052 130.255 142.746  0.00  0.00    +0.000 C 
ATOM     54  C   UNL     1     111.792 128.957 142.207  0.00  0.00    +0.000 C 
BRANCH  53  56
ATOM     55  O   UNL     1     112.966 131.202 142.191  0.00  0.00    +0.000 OA
ATOM     56  C   UNL     1     112.295 131.036 142.642  0.00  0.00    +0.000 C 
ENDBRANCH  53  56
ENDBRANCH  45  54
ENDBRANCH   5  45
TORSDOF 10
ENDMDL
