MODEL 1
REMARK VINA RESULT:     -10.6      0.000      0.000
REMARK  Name = 44257777
REMARK  8 active torsions:
REMARK  status: ('A' for Active; 'I' for Inactive)
REMARK    1  A    between atoms: O_2  and  C_20
REMARK    2  A    between atoms: O_2  and  C_25
REMARK    3  A    between atoms: O_13  and  C_38
REMARK    4  A    between atoms: O_13  and  C_46
REMARK    5  A    between atoms: C_22  and  C_26
REMARK    6  A    between atoms: C_24  and  C_29
REMARK    7  A    between atoms: C_37  and  C_42
REMARK    8  A    between atoms: C_44  and  C_47
REMARK                            x       y       z     vdW  Elec       q    Type
REMARK                         _______ _______ _______ _____ _____    ______ ____
ROOT
ATOM      1  O   UNL     1     112.756 127.093 137.439  0.00  0.00    +0.000 OA
ATOM      2  O   UNL     1     111.189 125.458 139.183  0.00  0.00    +0.000 OA
ATOM      3  O   UNL     1     112.075 128.046 140.085  0.00  0.00    +0.000 OA
ATOM      4  O   UNL     1     113.219 128.395 137.854  0.00  0.00    +0.000 OA
ATOM      5  C   UNL     1     111.973 126.275 138.311  0.00  0.00    +0.000 A 
ATOM      6  C   UNL     1     112.383 126.976 138.165  0.00  0.00    +0.000 A 
ATOM      7  C   UNL     1     111.599 126.159 139.038  0.00  0.00    +0.000 A 
ATOM      8  C   UNL     1     112.419 127.561 138.746  0.00  0.00    +0.000 A 
ATOM      9  C   UNL     1     111.635 126.744 139.618  0.00  0.00    +0.000 A 
ATOM     10  C   UNL     1     112.045 127.445 139.472  0.00  0.00    +0.000 A 
ATOM     11  C   UNL     1     112.848 128.287 138.583  0.00  0.00    +0.000 A 
ATOM     12  C   UNL     1     112.501 128.779 139.940  0.00  0.00    +0.000 A 
ATOM     13  C   UNL     1     112.889 128.900 139.183  0.00  0.00    +0.000 A 
ENDROOT
BRANCH   5  19
ATOM     14  O   UNL     1     112.573 125.179 137.620  0.00  0.00    +0.000 OA
ATOM     15  O   UNL     1     110.553 124.961 136.208  0.00  0.00    +0.000 OA
ATOM     16  O   UNL     1     111.828 123.936 135.987  0.00  0.00    +0.000 OA
ATOM     17  C   UNL     1     111.263 125.618 137.260  0.00  0.00    +0.000 C 
ATOM     18  C   UNL     1     111.227 125.034 136.679  0.00  0.00    +0.000 C 
ATOM     19  C   UNL     1     111.937 125.690 137.730  0.00  0.00    +0.000 C 
ATOM     20  C   UNL     1     111.864 124.521 136.568  0.00  0.00    +0.000 C 
ATOM     21  C   UNL     1     112.538 124.594 137.039  0.00  0.00    +0.000 C 
BRANCH  21  23
ATOM     22  O   UNL     1     113.898 124.239 137.294  0.00  0.00    +0.000 OA
ATOM     23  C   UNL     1     113.175 124.082 136.929  0.00  0.00    +0.000 C 
ENDBRANCH  21  23
BRANCH  17  24
ATOM     24  O   UNL     1     110.626 126.130 137.369  0.00  0.00    +0.000 OA
BRANCH  24  29
ATOM     25  O   UNL     1     110.794 126.728 136.082  0.00  0.00    +0.000 OA
ATOM     26  O   UNL     1     109.043 126.595 137.377  0.00  0.00    +0.000 OA
ATOM     27  O   UNL     1     108.420 127.425 136.095  0.00  0.00    +0.000 OA
ATOM     28  O   UNL     1     109.379 127.789 134.803  0.00  0.00    +0.000 OA
ATOM     29  C   UNL     1     110.315 126.545 136.728  0.00  0.00    +0.000 C 
ATOM     30  C   UNL     1     109.523 126.778 136.732  0.00  0.00    +0.000 C 
ATOM     31  C   UNL     1     109.212 127.192 136.090  0.00  0.00    +0.000 C 
ATOM     32  C   UNL     1     109.690 127.375 135.445  0.00  0.00    +0.000 C 
ATOM     33  C   UNL     1     110.483 127.142 135.440  0.00  0.00    +0.000 C 
ENDBRANCH  24  29
ENDBRANCH  17  24
ENDBRANCH   5  19
BRANCH  12  35
ATOM     34  C   UNL     1     112.603 130.528 141.688  0.00  0.00    +0.000 A 
ATOM     35  C   UNL     1     112.535 129.362 140.522  0.00  0.00    +0.000 A 
ATOM     36  C   UNL     1     111.982 130.525 141.144  0.00  0.00    +0.000 A 
ATOM     37  C   UNL     1     113.189 129.950 141.649  0.00  0.00    +0.000 A 
ATOM     38  C   UNL     1     111.948 129.941 140.561  0.00  0.00    +0.000 A 
ATOM     39  C   UNL     1     113.155 129.366 141.065  0.00  0.00    +0.000 A 
BRANCH  34  40
ATOM     40  O   UNL     1     112.638 131.111 142.270  0.00  0.00    +0.000 OA
BRANCH  40  49
ATOM     41  O   UNL     1     111.978 130.380 143.305  0.00  0.00    +0.000 OA
ATOM     42  O   UNL     1     110.814 132.443 144.022  0.00  0.00    +0.000 OA
ATOM     43  O   UNL     1     110.543 131.025 144.818  0.00  0.00    +0.000 OA
ATOM     44  O   UNL     1     111.862 132.487 142.748  0.00  0.00    +0.000 OA
ATOM     45  C   UNL     1     111.202 131.756 143.783  0.00  0.00    +0.000 C 
ATOM     46  C   UNL     1     111.067 131.046 144.181  0.00  0.00    +0.000 C 
ATOM     47  C   UNL     1     111.727 131.777 143.146  0.00  0.00    +0.000 C 
ATOM     48  C   UNL     1     111.454 130.359 143.942  0.00  0.00    +0.000 C 
ATOM     49  C   UNL     1     112.114 131.090 142.907  0.00  0.00    +0.000 C 
BRANCH  48  51
ATOM     50  O   UNL     1     111.953 129.227 144.658  0.00  0.00    +0.000 OA
ATOM     51  C   UNL     1     111.319 129.649 144.340  0.00  0.00    +0.000 C 
ENDBRANCH  48  51
ENDBRANCH  40  49
ENDBRANCH  34  40
ENDBRANCH  12  35
TORSDOF 8
ENDMDL
MODEL 2
REMARK VINA RESULT:     -10.5      7.485      9.981
REMARK  Name = 44257777
REMARK  8 active torsions:
REMARK  status: ('A' for Active; 'I' for Inactive)
REMARK    1  A    between atoms: O_2  and  C_20
REMARK    2  A    between atoms: O_2  and  C_25
REMARK    3  A    between atoms: O_13  and  C_38
REMARK    4  A    between atoms: O_13  and  C_46
REMARK    5  A    between atoms: C_22  and  C_26
REMARK    6  A    between atoms: C_24  and  C_29
REMARK    7  A    between atoms: C_37  and  C_42
REMARK    8  A    between atoms: C_44  and  C_47
REMARK                            x       y       z     vdW  Elec       q    Type
REMARK                         _______ _______ _______ _____ _____    ______ ____
ROOT
ATOM      1  O   UNL     1     106.492 125.407 145.316  0.00  0.00    +0.000 OA
ATOM      2  O   UNL     1     105.694 127.269 147.332  0.00  0.00    +0.000 OA
ATOM      3  O   UNL     1     105.554 128.038 144.561  0.00  0.00    +0.000 OA
ATOM      4  O   UNL     1     106.436 125.754 143.917  0.00  0.00    +0.000 OA
ATOM      5  C   UNL     1     106.093 126.338 146.325  0.00  0.00    +0.000 A 
ATOM      6  C   UNL     1     106.204 126.151 145.529  0.00  0.00    +0.000 A 
ATOM      7  C   UNL     1     105.805 127.082 146.537  0.00  0.00    +0.000 A 
ATOM      8  C   UNL     1     106.028 126.707 144.946  0.00  0.00    +0.000 A 
ATOM      9  C   UNL     1     105.629 127.638 145.954  0.00  0.00    +0.000 A 
ATOM     10  C   UNL     1     105.741 127.450 145.158  0.00  0.00    +0.000 A 
ATOM     11  C   UNL     1     106.148 126.500 144.121  0.00  0.00    +0.000 A 
ATOM     12  C   UNL     1     105.667 127.849 143.729  0.00  0.00    +0.000 A 
ATOM     13  C   UNL     1     105.967 127.075 143.509  0.00  0.00    +0.000 A 
ENDROOT
BRANCH   5  19
ATOM     14  O   UNL     1     107.049 125.668 147.147  0.00  0.00    +0.000 OA
ATOM     15  O   UNL     1     105.234 124.338 148.177  0.00  0.00    +0.000 OA
ATOM     16  O   UNL     1     106.796 124.111 148.657  0.00  0.00    +0.000 OA
ATOM     17  C   UNL     1     105.664 125.338 147.250  0.00  0.00    +0.000 C 
ATOM     18  C   UNL     1     105.839 124.782 147.834  0.00  0.00    +0.000 C 
ATOM     19  C   UNL     1     106.269 125.781 146.908  0.00  0.00    +0.000 C 
ATOM     20  C   UNL     1     106.620 124.668 148.074  0.00  0.00    +0.000 C 
ATOM     21  C   UNL     1     107.225 125.111 147.730  0.00  0.00    +0.000 C 
BRANCH  21  23
ATOM     22  O   UNL     1     108.624 125.331 147.535  0.00  0.00    +0.000 OA
ATOM     23  C   UNL     1     108.007 124.998 147.970  0.00  0.00    +0.000 C 
ENDBRANCH  21  23
BRANCH  17  24
ATOM     24  O   UNL     1     104.882 125.452 147.011  0.00  0.00    +0.000 OA
BRANCH  24  29
ATOM     25  O   UNL     1     104.781 124.152 146.425  0.00  0.00    +0.000 OA
ATOM     26  O   UNL     1     103.251 125.467 147.256  0.00  0.00    +0.000 OA
ATOM     27  O   UNL     1     102.334 124.176 146.793  0.00  0.00    +0.000 OA
ATOM     28  O   UNL     1     103.048 122.868 146.085  0.00  0.00    +0.000 OA
ATOM     29  C   UNL     1     104.424 124.806 146.779  0.00  0.00    +0.000 C 
ATOM     30  C   UNL     1     103.608 124.814 146.902  0.00  0.00    +0.000 C 
ATOM     31  C   UNL     1     103.150 124.168 146.670  0.00  0.00    +0.000 C 
ATOM     32  C   UNL     1     103.506 123.514 146.316  0.00  0.00    +0.000 C 
ATOM     33  C   UNL     1     104.323 123.506 146.193  0.00  0.00    +0.000 C 
ENDBRANCH  24  29
ENDBRANCH  17  24
ENDBRANCH   5  19
BRANCH  12  35
ATOM     34  C   UNL     1     105.137 129.525 141.987  0.00  0.00    +0.000 A 
ATOM     35  C   UNL     1     105.490 128.408 143.148  0.00  0.00    +0.000 A 
ATOM     36  C   UNL     1     104.528 129.175 142.421  0.00  0.00    +0.000 A 
ATOM     37  C   UNL     1     105.921 129.317 142.133  0.00  0.00    +0.000 A 
ATOM     38  C   UNL     1     104.705 128.615 143.002  0.00  0.00    +0.000 A 
ATOM     39  C   UNL     1     106.098 128.758 142.715  0.00  0.00    +0.000 A 
BRANCH  34  40
ATOM     40  O   UNL     1     104.960 130.083 141.406  0.00  0.00    +0.000 OA
BRANCH  40  49
ATOM     41  O   UNL     1     105.268 131.260 142.155  0.00  0.00    +0.000 OA
ATOM     42  O   UNL     1     103.286 132.390 141.194  0.00  0.00    +0.000 OA
ATOM     43  O   UNL     1     104.255 133.190 142.263  0.00  0.00    +0.000 OA
ATOM     44  O   UNL     1     103.639 130.836 140.765  0.00  0.00    +0.000 OA
ATOM     45  C   UNL     1     103.947 132.014 141.514  0.00  0.00    +0.000 C 
ATOM     46  C   UNL     1     104.432 132.413 142.049  0.00  0.00    +0.000 C 
ATOM     47  C   UNL     1     104.123 131.236 141.300  0.00  0.00    +0.000 C 
ATOM     48  C   UNL     1     105.091 132.037 142.369  0.00  0.00    +0.000 C 
ATOM     49  C   UNL     1     104.783 130.860 141.620  0.00  0.00    +0.000 C 
BRANCH  48  51
ATOM     50  O   UNL     1     106.382 132.522 142.745  0.00  0.00    +0.000 OA
ATOM     51  C   UNL     1     105.576 132.437 142.903  0.00  0.00    +0.000 C 
ENDBRANCH  48  51
ENDBRANCH  40  49
ENDBRANCH  34  40
ENDBRANCH  12  35
TORSDOF 8
ENDMDL
MODEL 3
REMARK VINA RESULT:     -10.3      7.465      9.052
REMARK  Name = 44257777
REMARK  8 active torsions:
REMARK  status: ('A' for Active; 'I' for Inactive)
REMARK    1  A    between atoms: O_2  and  C_20
REMARK    2  A    between atoms: O_2  and  C_25
REMARK    3  A    between atoms: O_13  and  C_38
REMARK    4  A    between atoms: O_13  and  C_46
REMARK    5  A    between atoms: C_22  and  C_26
REMARK    6  A    between atoms: C_24  and  C_29
REMARK    7  A    between atoms: C_37  and  C_42
REMARK    8  A    between atoms: C_44  and  C_47
REMARK                            x       y       z     vdW  Elec       q    Type
REMARK                         _______ _______ _______ _____ _____    ______ ____
ROOT
ATOM      1  O   UNL     1     104.793 127.654 141.101  0.00  0.00    +0.000 OA
ATOM      2  O   UNL     1     105.619 128.015 143.813  0.00  0.00    +0.000 OA
ATOM      3  O   UNL     1     103.624 129.767 142.696  0.00  0.00    +0.000 OA
ATOM      4  O   UNL     1     103.797 128.510 140.505  0.00  0.00    +0.000 OA
ATOM      5  C   UNL     1     105.206 127.834 142.457  0.00  0.00    +0.000 A 
ATOM      6  C   UNL     1     104.739 128.061 141.816  0.00  0.00    +0.000 A 
ATOM      7  C   UNL     1     105.151 128.243 143.173  0.00  0.00    +0.000 A 
ATOM      8  C   UNL     1     104.217 128.696 141.891  0.00  0.00    +0.000 A 
ATOM      9  C   UNL     1     104.630 128.878 143.247  0.00  0.00    +0.000 A 
ATOM     10  C   UNL     1     104.163 129.104 142.606  0.00  0.00    +0.000 A 
ATOM     11  C   UNL     1     103.736 128.923 141.216  0.00  0.00    +0.000 A 
ATOM     12  C   UNL     1     103.135 130.008 142.031  0.00  0.00    +0.000 A 
ATOM     13  C   UNL     1     103.192 129.583 141.287  0.00  0.00    +0.000 A 
ENDROOT
BRANCH   5  19
ATOM     14  O   UNL     1     105.506 126.451 142.648  0.00  0.00    +0.000 OA
ATOM     15  O   UNL     1     107.736 126.794 141.630  0.00  0.00    +0.000 OA
ATOM     16  O   UNL     1     107.293 125.295 142.160  0.00  0.00    +0.000 OA
ATOM     17  C   UNL     1     106.470 127.314 142.044  0.00  0.00    +0.000 C 
ATOM     18  C   UNL     1     106.993 126.679 141.969  0.00  0.00    +0.000 C 
ATOM     19  C   UNL     1     105.728 127.199 142.383  0.00  0.00    +0.000 C 
ATOM     20  C   UNL     1     106.771 125.930 142.234  0.00  0.00    +0.000 C 
ATOM     21  C   UNL     1     106.028 125.816 142.573  0.00  0.00    +0.000 C 
BRANCH  21  23
ATOM     22  O   UNL     1     105.464 124.977 143.584  0.00  0.00    +0.000 OA
ATOM     23  C   UNL     1     105.806 125.066 142.838  0.00  0.00    +0.000 C 
ENDBRANCH  21  23
BRANCH  17  24
ATOM     24  O   UNL     1     106.692 128.063 141.779  0.00  0.00    +0.000 OA
BRANCH  24  29
ATOM     25  O   UNL     1     107.768 128.145 142.717  0.00  0.00    +0.000 OA
ATOM     26  O   UNL     1     107.438 129.185 140.827  0.00  0.00    +0.000 OA
ATOM     27  O   UNL     1     108.886 129.828 141.287  0.00  0.00    +0.000 OA
ATOM     28  O   UNL     1     109.589 129.349 142.701  0.00  0.00    +0.000 OA
ATOM     29  C   UNL     1     107.417 128.384 142.010  0.00  0.00    +0.000 C 
ATOM     30  C   UNL     1     107.789 128.945 141.534  0.00  0.00    +0.000 C 
ATOM     31  C   UNL     1     108.513 129.267 141.765  0.00  0.00    +0.000 C 
ATOM     32  C   UNL     1     108.865 129.028 142.471  0.00  0.00    +0.000 C 
ATOM     33  C   UNL     1     108.493 128.467 142.948  0.00  0.00    +0.000 C 
ENDBRANCH  24  29
ENDBRANCH  17  24
ENDBRANCH   5  19
BRANCH  12  35
ATOM     34  C   UNL     1     101.573 131.915 142.262  0.00  0.00    +0.000 A 
ATOM     35  C   UNL     1     102.614 130.644 142.108  0.00  0.00    +0.000 A 
ATOM     36  C   UNL     1     102.109 131.746 142.866  0.00  0.00    +0.000 A 
ATOM     37  C   UNL     1     101.557 131.449 141.583  0.00  0.00    +0.000 A 
ATOM     38  C   UNL     1     102.631 131.110 142.789  0.00  0.00    +0.000 A 
ATOM     39  C   UNL     1     102.078 130.813 141.505  0.00  0.00    +0.000 A 
BRANCH  34  40
ATOM     40  O   UNL     1     101.052 132.550 142.340  0.00  0.00    +0.000 OA
BRANCH  40  49
ATOM     41  O   UNL     1     101.765 133.510 141.557  0.00  0.00    +0.000 OA
ATOM     42  O   UNL     1     101.252 135.257 143.234  0.00  0.00    +0.000 OA
ATOM     43  O   UNL     1     102.135 135.634 141.893  0.00  0.00    +0.000 OA
ATOM     44  O   UNL     1     100.710 133.715 143.457  0.00  0.00    +0.000 OA
ATOM     45  C   UNL     1     101.423 134.675 142.675  0.00  0.00    +0.000 C 
ATOM     46  C   UNL     1     101.865 134.863 142.004  0.00  0.00    +0.000 C 
ATOM     47  C   UNL     1     101.152 133.903 142.787  0.00  0.00    +0.000 C 
ATOM     48  C   UNL     1     102.035 134.282 141.446  0.00  0.00    +0.000 C 
ATOM     49  C   UNL     1     101.323 133.321 142.228  0.00  0.00    +0.000 C 
BRANCH  48  51
ATOM     50  O   UNL     1     103.222 134.132 140.665  0.00  0.00    +0.000 OA
ATOM     51  C   UNL     1     102.477 134.470 140.775  0.00  0.00    +0.000 C 
ENDBRANCH  48  51
ENDBRANCH  40  49
ENDBRANCH  34  40
ENDBRANCH  12  35
TORSDOF 8
ENDMDL
MODEL 4
REMARK VINA RESULT:     -10.3      6.797      9.644
REMARK  Name = 44257777
REMARK  8 active torsions:
REMARK  status: ('A' for Active; 'I' for Inactive)
REMARK    1  A    between atoms: O_2  and  C_20
REMARK    2  A    between atoms: O_2  and  C_25
REMARK    3  A    between atoms: O_13  and  C_38
REMARK    4  A    between atoms: O_13  and  C_46
REMARK    5  A    between atoms: C_22  and  C_26
REMARK    6  A    between atoms: C_24  and  C_29
REMARK    7  A    between atoms: C_37  and  C_42
REMARK    8  A    between atoms: C_44  and  C_47
REMARK                            x       y       z     vdW  Elec       q    Type
REMARK                         _______ _______ _______ _____ _____    ______ ____
ROOT
ATOM      1  O   UNL     1     109.897 132.242 144.394  0.00  0.00    +0.000 OA
ATOM      2  O   UNL     1     111.824 130.409 145.440  0.00  0.00    +0.000 OA
ATOM      3  O   UNL     1     109.045 129.654 145.368  0.00  0.00    +0.000 OA
ATOM      4  O   UNL     1     108.497 131.902 144.341  0.00  0.00    +0.000 OA
ATOM      5  C   UNL     1     110.861 131.326 144.917  0.00  0.00    +0.000 A 
ATOM      6  C   UNL     1     110.079 131.511 144.729  0.00  0.00    +0.000 A 
ATOM      7  C   UNL     1     111.042 130.593 145.252  0.00  0.00    +0.000 A 
ATOM      8  C   UNL     1     109.479 130.964 144.876  0.00  0.00    +0.000 A 
ATOM      9  C   UNL     1     110.442 130.047 145.399  0.00  0.00    +0.000 A 
ATOM     10  C   UNL     1     109.661 130.232 145.210  0.00  0.00    +0.000 A 
ATOM     11  C   UNL     1     108.669 131.168 144.675  0.00  0.00    +0.000 A 
ATOM     12  C   UNL     1     108.228 129.841 145.174  0.00  0.00    +0.000 A 
ATOM     13  C   UNL     1     108.040 130.603 144.825  0.00  0.00    +0.000 A 
ENDROOT
BRANCH   5  19
ATOM     14  O   UNL     1     111.920 131.808 144.090  0.00  0.00    +0.000 OA
ATOM     15  O   UNL     1     112.340 133.644 145.695  0.00  0.00    +0.000 OA
ATOM     16  O   UNL     1     113.260 133.514 144.332  0.00  0.00    +0.000 OA
ATOM     17  C   UNL     1     111.600 132.484 145.306  0.00  0.00    +0.000 C 
ATOM     18  C   UNL     1     112.200 133.032 145.160  0.00  0.00    +0.000 C 
ATOM     19  C   UNL     1     111.461 131.873 144.771  0.00  0.00    +0.000 C 
ATOM     20  C   UNL     1     112.661 132.967 144.478  0.00  0.00    +0.000 C 
ATOM     21  C   UNL     1     112.520 132.355 143.943  0.00  0.00    +0.000 C 
BRANCH  21  23
ATOM     22  O   UNL     1     112.651 131.983 142.570  0.00  0.00    +0.000 OA
ATOM     23  C   UNL     1     112.980 132.290 143.261  0.00  0.00    +0.000 C 
ENDBRANCH  21  23
BRANCH  17  24
ATOM     24  O   UNL     1     111.140 132.549 145.988  0.00  0.00    +0.000 OA
BRANCH  24  29
ATOM     25  O   UNL     1     112.236 132.333 146.880  0.00  0.00    +0.000 OA
ATOM     26  O   UNL     1     110.395 133.478 147.130  0.00  0.00    +0.000 OA
ATOM     27  O   UNL     1     111.117 133.727 148.592  0.00  0.00    +0.000 OA
ATOM     28  O   UNL     1     112.586 133.046 148.913  0.00  0.00    +0.000 OA
ATOM     29  C   UNL     1     111.502 132.674 146.719  0.00  0.00    +0.000 C 
ATOM     30  C   UNL     1     111.129 133.138 147.290  0.00  0.00    +0.000 C 
ATOM     31  C   UNL     1     111.491 133.262 148.021  0.00  0.00    +0.000 C 
ATOM     32  C   UNL     1     112.224 132.922 148.182  0.00  0.00    +0.000 C 
ATOM     33  C   UNL     1     112.598 132.458 147.611  0.00  0.00    +0.000 C 
ENDBRANCH  24  29
ENDBRANCH  17  24
ENDBRANCH   5  19
BRANCH  12  35
ATOM     34  C   UNL     1     106.435 128.194 145.617  0.00  0.00    +0.000 A 
ATOM     35  C   UNL     1     107.630 129.292 145.322  0.00  0.00    +0.000 A 
ATOM     36  C   UNL     1     106.666 128.721 146.209  0.00  0.00    +0.000 A 
ATOM     37  C   UNL     1     106.801 128.216 144.879  0.00  0.00    +0.000 A 
ATOM     38  C   UNL     1     107.264 129.270 146.061  0.00  0.00    +0.000 A 
ATOM     39  C   UNL     1     107.399 128.765 144.731  0.00  0.00    +0.000 A 
BRANCH  34  40
ATOM     40  O   UNL     1     105.837 127.645 145.765  0.00  0.00    +0.000 OA
BRANCH  40  49
ATOM     41  O   UNL     1     106.561 126.646 146.485  0.00  0.00    +0.000 OA
ATOM     42  O   UNL     1     105.526 124.887 145.084  0.00  0.00    +0.000 OA
ATOM     43  O   UNL     1     106.595 124.474 146.270  0.00  0.00    +0.000 OA
ATOM     44  O   UNL     1     105.147 126.473 144.831  0.00  0.00    +0.000 OA
ATOM     45  C   UNL     1     105.871 125.473 145.551  0.00  0.00    +0.000 C 
ATOM     46  C   UNL     1     106.405 125.267 146.144  0.00  0.00    +0.000 C 
ATOM     47  C   UNL     1     105.681 126.267 145.424  0.00  0.00    +0.000 C 
ATOM     48  C   UNL     1     106.750 125.853 146.611  0.00  0.00    +0.000 C 
ATOM     49  C   UNL     1     106.026 126.852 145.891  0.00  0.00    +0.000 C 
BRANCH  48  51
ATOM     50  O   UNL     1     108.070 125.896 147.156  0.00  0.00    +0.000 OA
ATOM     51  C   UNL     1     107.284 125.647 147.204  0.00  0.00    +0.000 C 
ENDBRANCH  48  51
ENDBRANCH  40  49
ENDBRANCH  34  40
ENDBRANCH  12  35
TORSDOF 8
ENDMDL
MODEL 5
REMARK VINA RESULT:     -10.1      0.923      1.835
REMARK  Name = 44257777
REMARK  8 active torsions:
REMARK  status: ('A' for Active; 'I' for Inactive)
REMARK    1  A    between atoms: O_2  and  C_20
REMARK    2  A    between atoms: O_2  and  C_25
REMARK    3  A    between atoms: O_13  and  C_38
REMARK    4  A    between atoms: O_13  and  C_46
REMARK    5  A    between atoms: C_22  and  C_26
REMARK    6  A    between atoms: C_24  and  C_29
REMARK    7  A    between atoms: C_37  and  C_42
REMARK    8  A    between atoms: C_44  and  C_47
REMARK                            x       y       z     vdW  Elec       q    Type
REMARK                         _______ _______ _______ _____ _____    ______ ____
ROOT
ATOM      1  O   UNL     1     110.759 125.313 139.135  0.00  0.00    +0.000 OA
ATOM      2  O   UNL     1     112.490 127.068 137.688  0.00  0.00    +0.000 OA
ATOM      3  O   UNL     1     111.688 127.762 140.366  0.00  0.00    +0.000 OA
ATOM      4  O   UNL     1     110.334 125.625 140.478  0.00  0.00    +0.000 OA
ATOM      5  C   UNL     1     111.624 126.190 138.411  0.00  0.00    +0.000 A 
ATOM      6  C   UNL     1     111.201 126.009 139.095  0.00  0.00    +0.000 A 
ATOM      7  C   UNL     1     112.066 126.886 138.372  0.00  0.00    +0.000 A 
ATOM      8  C   UNL     1     111.219 126.523 139.740  0.00  0.00    +0.000 A 
ATOM      9  C   UNL     1     112.084 127.400 139.017  0.00  0.00    +0.000 A 
ATOM     10  C   UNL     1     111.661 127.218 139.701  0.00  0.00    +0.000 A 
ATOM     11  C   UNL     1     110.774 126.323 140.447  0.00  0.00    +0.000 A 
ATOM     12  C   UNL     1     111.248 127.578 141.082  0.00  0.00    +0.000 A 
ATOM     13  C   UNL     1     110.788 126.854 141.122  0.00  0.00    +0.000 A 
ENDROOT
BRANCH   5  19
ATOM     14  O   UNL     1     112.215 125.132 137.655  0.00  0.00    +0.000 OA
ATOM     15  O   UNL     1     110.330 125.223 136.054  0.00  0.00    +0.000 OA
ATOM     16  O   UNL     1     111.550 124.134 135.831  0.00  0.00    +0.000 OA
ATOM     17  C   UNL     1     110.978 125.707 137.233  0.00  0.00    +0.000 C 
ATOM     18  C   UNL     1     110.958 125.193 136.588  0.00  0.00    +0.000 C 
ATOM     19  C   UNL     1     111.606 125.676 137.766  0.00  0.00    +0.000 C 
ATOM     20  C   UNL     1     111.569 124.648 136.476  0.00  0.00    +0.000 C 
ATOM     21  C   UNL     1     112.197 124.618 137.010  0.00  0.00    +0.000 C 
BRANCH  21  23
ATOM     22  O   UNL     1     113.503 124.139 137.338  0.00  0.00    +0.000 OA
ATOM     23  C   UNL     1     112.807 124.074 136.899  0.00  0.00    +0.000 C 
ENDBRANCH  21  23
BRANCH  17  24
ATOM     24  O   UNL     1     110.367 126.251 137.344  0.00  0.00    +0.000 OA
BRANCH  24  29
ATOM     25  O   UNL     1     110.677 126.961 136.143  0.00  0.00    +0.000 OA
ATOM     26  O   UNL     1     108.811 126.792 137.261  0.00  0.00    +0.000 OA
ATOM     27  O   UNL     1     108.343 127.772 136.020  0.00  0.00    +0.000 OA
ATOM     28  O   UNL     1     109.431 128.212 134.860  0.00  0.00    +0.000 OA
ATOM     29  C   UNL     1     110.134 126.741 136.723  0.00  0.00    +0.000 C 
ATOM     30  C   UNL     1     109.355 127.011 136.682  0.00  0.00    +0.000 C 
ATOM     31  C   UNL     1     109.121 127.502 136.061  0.00  0.00    +0.000 C 
ATOM     32  C   UNL     1     109.664 127.721 135.481  0.00  0.00    +0.000 C 
ATOM     33  C   UNL     1     110.443 127.451 135.522  0.00  0.00    +0.000 C 
ENDBRANCH  24  29
ENDBRANCH  17  24
ENDBRANCH   5  19
BRANCH  12  35
ATOM     34  C   UNL     1     111.309 129.126 143.012  0.00  0.00    +0.000 A 
ATOM     35  C   UNL     1     111.268 128.094 141.725  0.00  0.00    +0.000 A 
ATOM     36  C   UNL     1     111.928 128.595 142.890  0.00  0.00    +0.000 A 
ATOM     37  C   UNL     1     110.670 129.141 142.492  0.00  0.00    +0.000 A 
ATOM     38  C   UNL     1     111.908 128.078 142.246  0.00  0.00    +0.000 A 
ATOM     39  C   UNL     1     110.649 128.625 141.847  0.00  0.00    +0.000 A 
BRANCH  34  40
ATOM     40  O   UNL     1     111.329 129.642 143.656  0.00  0.00    +0.000 OA
BRANCH  40  49
ATOM     41  O   UNL     1     112.169 130.659 143.107  0.00  0.00    +0.000 OA
ATOM     42  O   UNL     1     110.685 132.398 144.055  0.00  0.00    +0.000 OA
ATOM     43  O   UNL     1     112.020 132.834 143.191  0.00  0.00    +0.000 OA
ATOM     44  O   UNL     1     110.339 130.801 144.288  0.00  0.00    +0.000 OA
ATOM     45  C   UNL     1     111.180 131.818 143.739  0.00  0.00    +0.000 C 
ATOM     46  C   UNL     1     111.847 132.036 143.307  0.00  0.00    +0.000 C 
ATOM     47  C   UNL     1     111.007 131.019 143.855  0.00  0.00    +0.000 C 
ATOM     48  C   UNL     1     112.342 131.457 142.991  0.00  0.00    +0.000 C 
ATOM     49  C   UNL     1     111.501 130.440 143.540  0.00  0.00    +0.000 C 
BRANCH  48  51
ATOM     50  O   UNL     1     113.150 131.337 141.819  0.00  0.00    +0.000 OA
ATOM     51  C   UNL     1     113.010 131.675 142.559  0.00  0.00    +0.000 C 
ENDBRANCH  48  51
ENDBRANCH  40  49
ENDBRANCH  34  40
ENDBRANCH  12  35
TORSDOF 8
ENDMDL
MODEL 6
REMARK VINA RESULT:     -10.1      3.409      5.411
REMARK  Name = 44257777
REMARK  8 active torsions:
REMARK  status: ('A' for Active; 'I' for Inactive)
REMARK    1  A    between atoms: O_2  and  C_20
REMARK    2  A    between atoms: O_2  and  C_25
REMARK    3  A    between atoms: O_13  and  C_38
REMARK    4  A    between atoms: O_13  and  C_46
REMARK    5  A    between atoms: C_22  and  C_26
REMARK    6  A    between atoms: C_24  and  C_29
REMARK    7  A    between atoms: C_37  and  C_42
REMARK    8  A    between atoms: C_44  and  C_47
REMARK                            x       y       z     vdW  Elec       q    Type
REMARK                         _______ _______ _______ _____ _____    ______ ____
ROOT
ATOM      1  O   UNL     1     112.797 126.509 139.007  0.00  0.00    +0.000 OA
ATOM      2  O   UNL     1     111.507 125.440 136.691  0.00  0.00    +0.000 OA
ATOM      3  O   UNL     1     110.002 125.769 139.125  0.00  0.00    +0.000 OA
ATOM      4  O   UNL     1     112.078 126.689 140.244  0.00  0.00    +0.000 OA
ATOM      5  C   UNL     1     112.152 125.974 137.849  0.00  0.00    +0.000 A 
ATOM      6  C   UNL     1     112.122 126.209 138.639  0.00  0.00    +0.000 A 
ATOM      7  C   UNL     1     111.476 125.674 137.482  0.00  0.00    +0.000 A 
ATOM      8  C   UNL     1     111.417 126.143 139.062  0.00  0.00    +0.000 A 
ATOM      9  C   UNL     1     110.771 125.608 137.905  0.00  0.00    +0.000 A 
ATOM     10  C   UNL     1     110.742 125.842 138.695  0.00  0.00    +0.000 A 
ATOM     11  C   UNL     1     111.398 126.390 139.885  0.00  0.00    +0.000 A 
ATOM     12  C   UNL     1     109.964 126.011 139.949  0.00  0.00    +0.000 A 
ATOM     13  C   UNL     1     110.667 126.324 140.331  0.00  0.00    +0.000 A 
ENDROOT
BRANCH   5  19
ATOM     14  O   UNL     1     113.450 125.477 137.522  0.00  0.00    +0.000 OA
ATOM     15  O   UNL     1     113.784 127.369 135.963  0.00  0.00    +0.000 OA
ATOM     16  O   UNL     1     114.972 126.240 136.155  0.00  0.00    +0.000 OA
ATOM     17  C   UNL     1     112.968 126.671 136.906  0.00  0.00    +0.000 C 
ATOM     18  C   UNL     1     113.673 126.738 136.483  0.00  0.00    +0.000 C 
ATOM     19  C   UNL     1     112.857 126.041 137.425  0.00  0.00    +0.000 C 
ATOM     20  C   UNL     1     114.267 126.174 136.579  0.00  0.00    +0.000 C 
ATOM     21  C   UNL     1     114.155 125.543 137.099  0.00  0.00    +0.000 C 
BRANCH  21  23
ATOM     22  O   UNL     1     114.556 124.215 137.444  0.00  0.00    +0.000 OA
ATOM     23  C   UNL     1     114.749 124.978 137.195  0.00  0.00    +0.000 C 
ENDBRANCH  21  23
BRANCH  17  24
ATOM     24  O   UNL     1     112.374 127.236 136.809  0.00  0.00    +0.000 OA
BRANCH  24  29
ATOM     25  O   UNL     1     113.167 128.287 137.368  0.00  0.00    +0.000 OA
ATOM     26  O   UNL     1     111.509 128.347 135.950  0.00  0.00    +0.000 OA
ATOM     27  O   UNL     1     111.868 129.952 136.079  0.00  0.00    +0.000 OA
ATOM     28  O   UNL     1     113.093 130.447 137.067  0.00  0.00    +0.000 OA
ATOM     29  C   UNL     1     112.554 128.039 136.874  0.00  0.00    +0.000 C 
ATOM     30  C   UNL     1     112.121 128.594 136.444  0.00  0.00    +0.000 C 
ATOM     31  C   UNL     1     112.301 129.397 136.509  0.00  0.00    +0.000 C 
ATOM     32  C   UNL     1     112.913 129.645 137.002  0.00  0.00    +0.000 C 
ATOM     33  C   UNL     1     113.347 129.090 137.432  0.00  0.00    +0.000 C 
ENDBRANCH  24  29
ENDBRANCH  17  24
ENDBRANCH   5  19
BRANCH  12  35
ATOM     34  C   UNL     1     107.845 125.809 141.211  0.00  0.00    +0.000 A 
ATOM     35  C   UNL     1     109.257 125.944 140.370  0.00  0.00    +0.000 A 
ATOM     36  C   UNL     1     108.045 126.526 140.855  0.00  0.00    +0.000 A 
ATOM     37  C   UNL     1     108.349 125.161 141.148  0.00  0.00    +0.000 A 
ATOM     38  C   UNL     1     108.752 126.593 140.434  0.00  0.00    +0.000 A 
ATOM     39  C   UNL     1     109.057 125.228 140.726  0.00  0.00    +0.000 A 
BRANCH  34  40
ATOM     40  O   UNL     1     107.138 125.742 141.632  0.00  0.00    +0.000 OA
BRANCH  40  49
ATOM     41  O   UNL     1     106.351 125.202 140.569  0.00  0.00    +0.000 OA
ATOM     42  O   UNL     1     105.175 123.739 142.182  0.00  0.00    +0.000 OA
ATOM     43  O   UNL     1     104.781 123.687 140.582  0.00  0.00    +0.000 OA
ATOM     44  O   UNL     1     106.354 124.767 142.708  0.00  0.00    +0.000 OA
ATOM     45  C   UNL     1     105.567 124.227 141.644  0.00  0.00    +0.000 C 
ATOM     46  C   UNL     1     105.370 124.201 140.844  0.00  0.00    +0.000 C 
ATOM     47  C   UNL     1     106.157 124.741 141.907  0.00  0.00    +0.000 C 
ATOM     48  C   UNL     1     105.761 124.688 140.307  0.00  0.00    +0.000 C 
ATOM     49  C   UNL     1     106.549 125.228 141.370  0.00  0.00    +0.000 C 
BRANCH  48  51
ATOM     50  O   UNL     1     105.327 125.351 139.118  0.00  0.00    +0.000 OA
ATOM     51  C   UNL     1     105.564 124.662 139.506  0.00  0.00    +0.000 C 
ENDBRANCH  48  51
ENDBRANCH  40  49
ENDBRANCH  34  40
ENDBRANCH  12  35
TORSDOF 8
ENDMDL
MODEL 7
REMARK VINA RESULT:     -10.0      4.587      8.423
REMARK  Name = 44257777
REMARK  8 active torsions:
REMARK  status: ('A' for Active; 'I' for Inactive)
REMARK    1  A    between atoms: O_2  and  C_20
REMARK    2  A    between atoms: O_2  and  C_25
REMARK    3  A    between atoms: O_13  and  C_38
REMARK    4  A    between atoms: O_13  and  C_46
REMARK    5  A    between atoms: C_22  and  C_26
REMARK    6  A    between atoms: C_24  and  C_29
REMARK    7  A    between atoms: C_37  and  C_42
REMARK    8  A    between atoms: C_44  and  C_47
REMARK                            x       y       z     vdW  Elec       q    Type
REMARK                         _______ _______ _______ _____ _____    ______ ____
ROOT
ATOM      1  O   UNL     1     109.737 131.929 144.656  0.00  0.00    +0.000 OA
ATOM      2  O   UNL     1     111.699 129.875 144.970  0.00  0.00    +0.000 OA
ATOM      3  O   UNL     1     108.912 129.233 145.306  0.00  0.00    +0.000 OA
ATOM      4  O   UNL     1     108.332 131.648 144.816  0.00  0.00    +0.000 OA
ATOM      5  C   UNL     1     110.719 130.902 144.813  0.00  0.00    +0.000 A 
ATOM      6  C   UNL     1     109.929 131.143 144.816  0.00  0.00    +0.000 A 
ATOM      7  C   UNL     1     110.910 130.115 144.973  0.00  0.00    +0.000 A 
ATOM      8  C   UNL     1     109.332 130.597 144.977  0.00  0.00    +0.000 A 
ATOM      9  C   UNL     1     110.313 129.569 145.134  0.00  0.00    +0.000 A 
ATOM     10  C   UNL     1     109.524 129.810 145.136  0.00  0.00    +0.000 A 
ATOM     11  C   UNL     1     108.515 130.860 144.977  0.00  0.00    +0.000 A 
ATOM     12  C   UNL     1     108.087 129.477 145.310  0.00  0.00    +0.000 A 
ATOM     13  C   UNL     1     107.888 130.296 145.144  0.00  0.00    +0.000 A 
ENDROOT
BRANCH   5  19
ATOM     14  O   UNL     1     111.747 131.782 145.269  0.00  0.00    +0.000 OA
ATOM     15  O   UNL     1     112.243 132.416 142.929  0.00  0.00    +0.000 OA
ATOM     16  O   UNL     1     113.107 133.085 144.165  0.00  0.00    +0.000 OA
ATOM     17  C   UNL     1     111.480 131.659 143.872  0.00  0.00    +0.000 C 
ATOM     18  C   UNL     1     112.077 132.205 143.709  0.00  0.00    +0.000 C 
ATOM     19  C   UNL     1     111.316 131.448 144.651  0.00  0.00    +0.000 C 
ATOM     20  C   UNL     1     112.510 132.539 144.327  0.00  0.00    +0.000 C 
ATOM     21  C   UNL     1     112.345 132.328 145.107  0.00  0.00    +0.000 C 
BRANCH  21  23
ATOM     22  O   UNL     1     112.417 132.791 146.457  0.00  0.00    +0.000 OA
ATOM     23  C   UNL     1     112.776 132.662 145.726  0.00  0.00    +0.000 C 
ENDBRANCH  21  23
BRANCH  17  24
ATOM     24  O   UNL     1     111.049 131.325 143.253  0.00  0.00    +0.000 OA
BRANCH  24  29
ATOM     25  O   UNL     1     112.190 130.652 142.717  0.00  0.00    +0.000 OA
ATOM     26  O   UNL     1     110.336 131.301 141.765  0.00  0.00    +0.000 OA
ATOM     27  O   UNL     1     111.121 130.617 140.485  0.00  0.00    +0.000 OA
ATOM     28  O   UNL     1     112.619 129.957 140.693  0.00  0.00    +0.000 OA
ATOM     29  C   UNL     1     111.441 130.983 142.613  0.00  0.00    +0.000 C 
ATOM     30  C   UNL     1     111.085 130.971 141.869  0.00  0.00    +0.000 C 
ATOM     31  C   UNL     1     111.478 130.629 141.229  0.00  0.00    +0.000 C 
ATOM     32  C   UNL     1     112.226 130.299 141.332  0.00  0.00    +0.000 C 
ATOM     33  C   UNL     1     112.583 130.310 142.077  0.00  0.00    +0.000 C 
ENDBRANCH  24  29
ENDBRANCH  17  24
ENDBRANCH   5  19
BRANCH  12  35
ATOM     34  C   UNL     1     106.302 127.833 145.796  0.00  0.00    +0.000 A 
ATOM     35  C   UNL     1     107.492 128.929 145.472  0.00  0.00    +0.000 A 
ATOM     36  C   UNL     1     106.519 128.387 146.368  0.00  0.00    +0.000 A 
ATOM     37  C   UNL     1     106.679 127.828 145.063  0.00  0.00    +0.000 A 
ATOM     38  C   UNL     1     107.115 128.935 146.206  0.00  0.00    +0.000 A 
ATOM     39  C   UNL     1     107.275 128.376 144.901  0.00  0.00    +0.000 A 
BRANCH  34  40
ATOM     40  O   UNL     1     105.707 127.285 145.958  0.00  0.00    +0.000 OA
BRANCH  40  49
ATOM     41  O   UNL     1     106.511 126.413 146.755  0.00  0.00    +0.000 OA
ATOM     42  O   UNL     1     105.281 124.461 145.858  0.00  0.00    +0.000 OA
ATOM     43  O   UNL     1     106.494 124.240 146.954  0.00  0.00    +0.000 OA
ATOM     44  O   UNL     1     104.887 125.984 145.361  0.00  0.00    +0.000 OA
ATOM     45  C   UNL     1     105.691 125.112 146.157  0.00  0.00    +0.000 C 
ATOM     46  C   UNL     1     106.298 125.002 146.705  0.00  0.00    +0.000 C 
ATOM     47  C   UNL     1     105.494 125.874 145.908  0.00  0.00    +0.000 C 
ATOM     48  C   UNL     1     106.707 125.651 147.004  0.00  0.00    +0.000 C 
ATOM     49  C   UNL     1     105.903 126.524 146.207  0.00  0.00    +0.000 C 
BRANCH  48  51
ATOM     50  O   UNL     1     108.101 125.640 147.321  0.00  0.00    +0.000 OA
ATOM     51  C   UNL     1     107.314 125.541 147.551  0.00  0.00    +0.000 C 
ENDBRANCH  48  51
ENDBRANCH  40  49
ENDBRANCH  34  40
ENDBRANCH  12  35
TORSDOF 8
ENDMDL
MODEL 8
REMARK VINA RESULT:      -9.9      1.077      2.817
REMARK  Name = 44257777
REMARK  8 active torsions:
REMARK  status: ('A' for Active; 'I' for Inactive)
REMARK    1  A    between atoms: O_2  and  C_20
REMARK    2  A    between atoms: O_2  and  C_25
REMARK    3  A    between atoms: O_13  and  C_38
REMARK    4  A    between atoms: O_13  and  C_46
REMARK    5  A    between atoms: C_22  and  C_26
REMARK    6  A    between atoms: C_24  and  C_29
REMARK    7  A    between atoms: C_37  and  C_42
REMARK    8  A    between atoms: C_44  and  C_47
REMARK                            x       y       z     vdW  Elec       q    Type
REMARK                         _______ _______ _______ _____ _____    ______ ____
ROOT
ATOM      1  O   UNL     1     110.029 126.716 138.134  0.00  0.00    +0.000 OA
ATOM      2  O   UNL     1     111.387 128.334 136.207  0.00  0.00    +0.000 OA
ATOM      3  O   UNL     1     111.673 128.931 139.010  0.00  0.00    +0.000 OA
ATOM      4  O   UNL     1     110.147 126.983 139.546  0.00  0.00    +0.000 OA
ATOM      5  C   UNL     1     110.708 127.525 137.170  0.00  0.00    +0.000 A 
ATOM      6  C   UNL     1     110.526 127.351 137.956  0.00  0.00    +0.000 A 
ATOM      7  C   UNL     1     111.205 128.159 136.993  0.00  0.00    +0.000 A 
ATOM      8  C   UNL     1     110.841 127.810 138.564  0.00  0.00    +0.000 A 
ATOM      9  C   UNL     1     111.520 128.619 137.601  0.00  0.00    +0.000 A 
ATOM     10  C   UNL     1     111.338 128.445 138.386  0.00  0.00    +0.000 A 
ATOM     11  C   UNL     1     110.645 127.619 139.378  0.00  0.00    +0.000 A 
ATOM     12  C   UNL     1     111.487 128.754 139.831  0.00  0.00    +0.000 A 
ATOM     13  C   UNL     1     110.970 128.094 140.015  0.00  0.00    +0.000 A 
ENDROOT
BRANCH   5  19
ATOM     14  O   UNL     1     109.617 127.189 136.311  0.00  0.00    +0.000 OA
ATOM     15  O   UNL     1     111.000 125.437 135.241  0.00  0.00    +0.000 OA
ATOM     16  O   UNL     1     109.447 125.685 134.738  0.00  0.00    +0.000 OA
ATOM     17  C   UNL     1     110.853 126.481 136.206  0.00  0.00    +0.000 C 
ATOM     18  C   UNL     1     110.539 126.021 135.598  0.00  0.00    +0.000 C 
ATOM     19  C   UNL     1     110.392 127.065 136.562  0.00  0.00    +0.000 C 
ATOM     20  C   UNL     1     109.763 126.145 135.346  0.00  0.00    +0.000 C 
ATOM     21  C   UNL     1     109.302 126.729 135.703  0.00  0.00    +0.000 C 
BRANCH  21  23
ATOM     22  O   UNL     1     108.067 127.441 135.805  0.00  0.00    +0.000 OA
ATOM     23  C   UNL     1     108.526 126.853 135.452  0.00  0.00    +0.000 C 
ENDBRANCH  21  23
BRANCH  17  24
ATOM     24  O   UNL     1     111.629 126.357 136.457  0.00  0.00    +0.000 OA
BRANCH  24  29
ATOM     25  O   UNL     1     111.360 125.030 136.915  0.00  0.00    +0.000 OA
ATOM     26  O   UNL     1     113.213 125.956 136.228  0.00  0.00    +0.000 OA
ATOM     27  O   UNL     1     113.736 124.429 136.571  0.00  0.00    +0.000 OA
ATOM     28  O   UNL     1     112.675 123.302 137.143  0.00  0.00    +0.000 OA
ATOM     29  C   UNL     1     111.890 125.594 136.628  0.00  0.00    +0.000 C 
ATOM     30  C   UNL     1     112.682 125.393 136.514  0.00  0.00    +0.000 C 
ATOM     31  C   UNL     1     112.943 124.629 136.685  0.00  0.00    +0.000 C 
ATOM     32  C   UNL     1     112.414 124.066 136.971  0.00  0.00    +0.000 C 
ATOM     33  C   UNL     1     111.621 124.266 137.086  0.00  0.00    +0.000 C 
ENDBRANCH  24  29
ENDBRANCH  17  24
ENDBRANCH   5  19
BRANCH  12  35
ATOM     34  C   UNL     1     112.437 130.139 141.649  0.00  0.00    +0.000 A 
ATOM     35  C   UNL     1     111.804 129.216 140.437  0.00  0.00    +0.000 A 
ATOM     36  C   UNL     1     112.778 129.411 141.465  0.00  0.00    +0.000 A 
ATOM     37  C   UNL     1     111.780 130.406 141.229  0.00  0.00    +0.000 A 
ATOM     38  C   UNL     1     112.461 128.949 140.858  0.00  0.00    +0.000 A 
ATOM     39  C   UNL     1     111.463 129.944 140.622  0.00  0.00    +0.000 A 
BRANCH  34  40
ATOM     40  O   UNL     1     112.754 130.601 142.255  0.00  0.00    +0.000 OA
BRANCH  40  49
ATOM     41  O   UNL     1     112.021 130.034 143.343  0.00  0.00    +0.000 OA
ATOM     42  O   UNL     1     111.737 132.287 144.327  0.00  0.00    +0.000 OA
ATOM     43  O   UNL     1     111.100 130.969 145.086  0.00  0.00    +0.000 OA
ATOM     44  O   UNL     1     112.564 132.103 142.911  0.00  0.00    +0.000 OA
ATOM     45  C   UNL     1     111.832 131.536 143.999  0.00  0.00    +0.000 C 
ATOM     46  C   UNL     1     111.513 130.877 144.378  0.00  0.00    +0.000 C 
ATOM     47  C   UNL     1     112.246 131.444 143.290  0.00  0.00    +0.000 C 
ATOM     48  C   UNL     1     111.608 130.126 144.051  0.00  0.00    +0.000 C 
ATOM     49  C   UNL     1     112.340 130.693 142.963  0.00  0.00    +0.000 C 
BRANCH  48  51
ATOM     50  O   UNL     1     111.748 128.788 144.532  0.00  0.00    +0.000 OA
ATOM     51  C   UNL     1     111.289 129.467 144.431  0.00  0.00    +0.000 C 
ENDBRANCH  48  51
ENDBRANCH  40  49
ENDBRANCH  34  40
ENDBRANCH  12  35
TORSDOF 8
ENDMDL
MODEL 9
REMARK VINA RESULT:      -9.9      2.343      3.219
REMARK  Name = 44257777
REMARK  8 active torsions:
REMARK  status: ('A' for Active; 'I' for Inactive)
REMARK    1  A    between atoms: O_2  and  C_20
REMARK    2  A    between atoms: O_2  and  C_25
REMARK    3  A    between atoms: O_13  and  C_38
REMARK    4  A    between atoms: O_13  and  C_46
REMARK    5  A    between atoms: C_22  and  C_26
REMARK    6  A    between atoms: C_24  and  C_29
REMARK    7  A    between atoms: C_37  and  C_42
REMARK    8  A    between atoms: C_44  and  C_47
REMARK                            x       y       z     vdW  Elec       q    Type
REMARK                         _______ _______ _______ _____ _____    ______ ____
ROOT
ATOM      1  O   UNL     1     111.844 128.356 138.094  0.00  0.00    +0.000 OA
ATOM      2  O   UNL     1     112.498 131.054 137.417  0.00  0.00    +0.000 OA
ATOM      3  O   UNL     1     111.828 130.401 140.141  0.00  0.00    +0.000 OA
ATOM      4  O   UNL     1     111.503 127.988 139.446  0.00  0.00    +0.000 OA
ATOM      5  C   UNL     1     112.171 129.705 137.755  0.00  0.00    +0.000 A 
ATOM      6  C   UNL     1     111.951 129.143 138.317  0.00  0.00    +0.000 A 
ATOM      7  C   UNL     1     112.278 130.492 137.979  0.00  0.00    +0.000 A 
ATOM      8  C   UNL     1     111.837 129.368 139.103  0.00  0.00    +0.000 A 
ATOM      9  C   UNL     1     112.164 130.717 138.765  0.00  0.00    +0.000 A 
ATOM     10  C   UNL     1     111.944 130.154 139.326  0.00  0.00    +0.000 A 
ATOM     11  C   UNL     1     111.608 128.773 139.678  0.00  0.00    +0.000 A 
ATOM     12  C   UNL     1     111.599 129.819 140.731  0.00  0.00    +0.000 A 
ATOM     13  C   UNL     1     111.488 129.000 140.498  0.00  0.00    +0.000 A 
ENDROOT
BRANCH   5  19
ATOM     14  O   UNL     1     112.994 129.129 136.739  0.00  0.00    +0.000 OA
ATOM     15  O   UNL     1     111.205 129.510 135.072  0.00  0.00    +0.000 OA
ATOM     16  O   UNL     1     112.625 128.807 134.612  0.00  0.00    +0.000 OA
ATOM     17  C   UNL     1     111.688 129.607 136.414  0.00  0.00    +0.000 C 
ATOM     18  C   UNL     1     111.801 129.383 135.628  0.00  0.00    +0.000 C 
ATOM     19  C   UNL     1     112.285 129.480 136.969  0.00  0.00    +0.000 C 
ATOM     20  C   UNL     1     112.512 129.031 135.398  0.00  0.00    +0.000 C 
ATOM     21  C   UNL     1     113.108 128.904 135.954  0.00  0.00    +0.000 C 
BRANCH  21  23
ATOM     22  O   UNL     1     114.531 128.954 135.831  0.00  0.00    +0.000 OA
ATOM     23  C   UNL     1     113.818 128.553 135.724  0.00  0.00    +0.000 C 
ENDBRANCH  21  23
BRANCH  17  24
ATOM     24  O   UNL     1     110.978 129.959 136.644  0.00  0.00    +0.000 OA
BRANCH  24  29
ATOM     25  O   UNL     1     110.196 128.795 136.369  0.00  0.00    +0.000 OA
ATOM     26  O   UNL     1     109.666 130.911 136.339  0.00  0.00    +0.000 OA
ATOM     27  O   UNL     1     108.228 130.224 135.912  0.00  0.00    +0.000 OA
ATOM     28  O   UNL     1     108.102 128.583 135.789  0.00  0.00    +0.000 OA
ATOM     29  C   UNL     1     110.260 129.615 136.430  0.00  0.00    +0.000 C 
ATOM     30  C   UNL     1     109.603 130.091 136.278  0.00  0.00    +0.000 C 
ATOM     31  C   UNL     1     108.885 129.747 136.064  0.00  0.00    +0.000 C 
ATOM     32  C   UNL     1     108.821 128.928 136.003  0.00  0.00    +0.000 C 
ATOM     33  C   UNL     1     109.477 128.450 136.155  0.00  0.00    +0.000 C 
ENDBRANCH  24  29
ENDBRANCH  17  24
ENDBRANCH   5  19
BRANCH  12  35
ATOM     34  C   UNL     1     111.259 130.502 143.086  0.00  0.00    +0.000 A 
ATOM     35  C   UNL     1     111.485 130.047 141.516  0.00  0.00    +0.000 A 
ATOM     36  C   UNL     1     110.670 130.645 142.527  0.00  0.00    +0.000 A 
ATOM     37  C   UNL     1     111.961 130.132 142.861  0.00  0.00    +0.000 A 
ATOM     38  C   UNL     1     110.783 130.417 141.741  0.00  0.00    +0.000 A 
ATOM     39  C   UNL     1     112.074 129.905 142.075  0.00  0.00    +0.000 A 
BRANCH  34  40
ATOM     40  O   UNL     1     111.146 130.730 143.871  0.00  0.00    +0.000 OA
BRANCH  40  49
ATOM     41  O   UNL     1     111.704 132.039 143.741  0.00  0.00    +0.000 OA
ATOM     42  O   UNL     1     112.648 131.863 146.022  0.00  0.00    +0.000 OA
ATOM     43  O   UNL     1     112.891 133.230 145.132  0.00  0.00    +0.000 OA
ATOM     44  O   UNL     1     111.776 130.612 145.392  0.00  0.00    +0.000 OA
ATOM     45  C   UNL     1     112.333 131.921 145.262  0.00  0.00    +0.000 C 
ATOM     46  C   UNL     1     112.455 132.605 144.817  0.00  0.00    +0.000 C 
ATOM     47  C   UNL     1     111.897 131.296 144.946  0.00  0.00    +0.000 C 
ATOM     48  C   UNL     1     112.140 132.664 144.057  0.00  0.00    +0.000 C 
ATOM     49  C   UNL     1     111.583 131.354 144.187  0.00  0.00    +0.000 C 
BRANCH  48  51
ATOM     50  O   UNL     1     111.615 133.761 143.307  0.00  0.00    +0.000 OA
ATOM     51  C   UNL     1     112.261 133.347 143.612  0.00  0.00    +0.000 C 
ENDBRANCH  48  51
ENDBRANCH  40  49
ENDBRANCH  34  40
ENDBRANCH  12  35
TORSDOF 8
ENDMDL
MODEL 10
REMARK VINA RESULT:      -9.9      2.494      4.411
REMARK  Name = 44257777
REMARK  8 active torsions:
REMARK  status: ('A' for Active; 'I' for Inactive)
REMARK    1  A    between atoms: O_2  and  C_20
REMARK    2  A    between atoms: O_2  and  C_25
REMARK    3  A    between atoms: O_13  and  C_38
REMARK    4  A    between atoms: O_13  and  C_46
REMARK    5  A    between atoms: C_22  and  C_26
REMARK    6  A    between atoms: C_24  and  C_29
REMARK    7  A    between atoms: C_37  and  C_42
REMARK    8  A    between atoms: C_44  and  C_47
REMARK                            x       y       z     vdW  Elec       q    Type
REMARK                         _______ _______ _______ _____ _____    ______ ____
ROOT
ATOM      1  O   UNL     1     112.089 128.444 141.843  0.00  0.00    +0.000 OA
ATOM      2  O   UNL     1     113.961 130.153 140.522  0.00  0.00    +0.000 OA
ATOM      3  O   UNL     1     112.583 131.106 142.865  0.00  0.00    +0.000 OA
ATOM      4  O   UNL     1     111.379 128.884 143.019  0.00  0.00    +0.000 OA
ATOM      5  C   UNL     1     113.025 129.298 141.182  0.00  0.00    +0.000 A 
ATOM      6  C   UNL     1     112.483 129.167 141.790  0.00  0.00    +0.000 A 
ATOM      7  C   UNL     1     113.419 130.022 141.130  0.00  0.00    +0.000 A 
ATOM      8  C   UNL     1     112.335 129.759 142.346  0.00  0.00    +0.000 A 
ATOM      9  C   UNL     1     113.271 130.614 141.686  0.00  0.00    +0.000 A 
ATOM     10  C   UNL     1     112.729 130.482 142.293  0.00  0.00    +0.000 A 
ATOM     11  C   UNL     1     111.768 129.610 142.974  0.00  0.00    +0.000 A 
ATOM     12  C   UNL     1     112.020 130.975 143.502  0.00  0.00    +0.000 A 
ATOM     13  C   UNL     1     111.610 130.222 143.556  0.00  0.00    +0.000 A 
ENDROOT
BRANCH   5  19
ATOM     14  O   UNL     1     113.677 128.082 140.814  0.00  0.00    +0.000 OA
ATOM     15  O   UNL     1     112.608 128.183 138.585  0.00  0.00    +0.000 OA
ATOM     16  O   UNL     1     113.616 126.932 138.960  0.00  0.00    +0.000 OA
ATOM     17  C   UNL     1     112.816 128.741 139.884  0.00  0.00    +0.000 C 
ATOM     18  C   UNL     1     112.964 128.150 139.328  0.00  0.00    +0.000 C 
ATOM     19  C   UNL     1     113.173 128.707 140.627  0.00  0.00    +0.000 C 
ATOM     20  C   UNL     1     113.468 127.524 139.515  0.00  0.00    +0.000 C 
ATOM     21  C   UNL     1     113.825 127.490 140.259  0.00  0.00    +0.000 C 
BRANCH  21  23
ATOM     22  O   UNL     1     114.937 126.975 140.994  0.00  0.00    +0.000 OA
ATOM     23  C   UNL     1     114.329 126.865 140.447  0.00  0.00    +0.000 C 
ENDBRANCH  21  23
BRANCH  17  24
ATOM     24  O   UNL     1     112.312 129.366 139.696  0.00  0.00    +0.000 OA
BRANCH  24  29
ATOM     25  O   UNL     1     111.167 128.519 139.570  0.00  0.00    +0.000 OA
ATOM     26  O   UNL     1     111.623 130.450 138.660  0.00  0.00    +0.000 OA
ATOM     27  O   UNL     1     110.135 130.145 138.016  0.00  0.00    +0.000 OA
ATOM     28  O   UNL     1     109.335 128.756 138.408  0.00  0.00    +0.000 OA
ATOM     29  C   UNL     1     111.568 129.213 139.374  0.00  0.00    +0.000 C 
ATOM     30  C   UNL     1     111.223 129.755 138.856  0.00  0.00    +0.000 C 
ATOM     31  C   UNL     1     110.479 129.602 138.534  0.00  0.00    +0.000 C 
ATOM     32  C   UNL     1     110.079 128.909 138.730  0.00  0.00    +0.000 C 
ATOM     33  C   UNL     1     110.423 128.366 139.248  0.00  0.00    +0.000 C 
ENDBRANCH  24  29
ENDBRANCH  17  24
ENDBRANCH   5  19
BRANCH  12  35
ATOM     34  C   UNL     1     111.581 132.756 145.164  0.00  0.00    +0.000 A 
ATOM     35  C   UNL     1     111.874 131.569 144.056  0.00  0.00    +0.000 A 
ATOM     36  C   UNL     1     111.774 131.994 145.417  0.00  0.00    +0.000 A 
ATOM     37  C   UNL     1     111.535 132.924 144.358  0.00  0.00    +0.000 A 
ATOM     38  C   UNL     1     111.920 131.400 144.862  0.00  0.00    +0.000 A 
ATOM     39  C   UNL     1     111.681 132.330 143.803  0.00  0.00    +0.000 A 
BRANCH  34  40
ATOM     40  O   UNL     1     111.435 133.350 145.718  0.00  0.00    +0.000 OA
BRANCH  40  49
ATOM     41  O   UNL     1     110.011 133.233 145.742  0.00  0.00    +0.000 OA
ATOM     42  O   UNL     1     110.021 133.625 148.186  0.00  0.00    +0.000 OA
ATOM     43  O   UNL     1     108.595 133.379 147.395  0.00  0.00    +0.000 OA
ATOM     44  O   UNL     1     111.442 133.611 147.347  0.00  0.00    +0.000 OA
ATOM     45  C   UNL     1     110.018 133.495 147.371  0.00  0.00    +0.000 C 
ATOM     46  C   UNL     1     109.305 133.371 146.976  0.00  0.00    +0.000 C 
ATOM     47  C   UNL     1     110.729 133.487 146.951  0.00  0.00    +0.000 C 
ATOM     48  C   UNL     1     109.301 133.241 146.162  0.00  0.00    +0.000 C 
ATOM     49  C   UNL     1     110.725 133.357 146.138  0.00  0.00    +0.000 C 
BRANCH  48  51
ATOM     50  O   UNL     1     108.394 133.583 145.113  0.00  0.00    +0.000 OA
ATOM     51  C   UNL     1     108.588 133.117 145.766  0.00  0.00    +0.000 C 
ENDBRANCH  48  51
ENDBRANCH  40  49
ENDBRANCH  34  40
ENDBRANCH  12  35
TORSDOF 8
ENDMDL
