MODEL 1
REMARK VINA RESULT:      -7.7      0.000      0.000
REMARK  Name = 10851748
REMARK  3 active torsions:
REMARK  status: ('A' for Active; 'I' for Inactive)
REMARK    1  A    between atoms: O_2  and  C_12
REMARK    2  A    between atoms: O_4  and  C_16
REMARK    3  A    between atoms: C_6  and  C_10
REMARK                            x       y       z     vdW  Elec       q    Type
REMARK                         _______ _______ _______ _____ _____    ______ ____
ROOT
ATOM      1  O   UNL     1     104.719 124.251 146.886  0.00  0.00    +0.000 OA
ATOM      2  O   UNL     1     103.202 125.745 148.148  0.00  0.00    +0.000 OA
ATOM      3  C   UNL     1     105.031 124.835 147.378  0.00  0.00    +0.000 C 
ATOM      4  C   UNL     1     104.526 125.333 147.798  0.00  0.00    +0.000 C 
ATOM      5  C   UNL     1     103.396 124.663 147.235  0.00  0.00    +0.000 A 
ATOM      6  C   UNL     1     103.902 124.165 146.814  0.00  0.00    +0.000 A 
ATOM      7  C   UNL     1     103.707 125.247 147.727  0.00  0.00    +0.000 C 
ATOM      8  C   UNL     1     103.589 123.552 146.298  0.00  0.00    +0.000 A 
ATOM      9  C   UNL     1     102.543 124.582 147.169  0.00  0.00    +0.000 A 
ATOM     10  C   UNL     1     102.739 123.457 146.220  0.00  0.00    +0.000 A 
ATOM     11  C   UNL     1     102.213 123.976 146.658  0.00  0.00    +0.000 A 
ENDROOT
BRANCH   3  13
ATOM     12  O   UNL     1     108.301 125.181 147.663  0.00  0.00    +0.000 OA
ATOM     13  C   UNL     1     105.848 124.921 147.449  0.00  0.00    +0.000 A 
ATOM     14  C   UNL     1     106.241 124.607 148.103  0.00  0.00    +0.000 A 
ATOM     15  C   UNL     1     106.273 125.322 146.866  0.00  0.00    +0.000 A 
ATOM     16  C   UNL     1     107.058 124.694 148.174  0.00  0.00    +0.000 A 
ATOM     17  C   UNL     1     107.091 125.409 146.938  0.00  0.00    +0.000 A 
ATOM     18  C   UNL     1     107.483 125.095 147.592  0.00  0.00    +0.000 A 
ENDBRANCH   3  13
BRANCH   8  19
ATOM     19  O   UNL     1     104.103 123.059 145.882  0.00  0.00    +0.000 OA
ATOM     20  C   UNL     1     104.121 123.085 145.057  0.00  0.00    +0.000 C 
ENDBRANCH   8  19
BRANCH  10  21
ATOM     21  O   UNL     1     102.430 122.872 145.727  0.00  0.00    +0.000 OA
ATOM     22  C   UNL     1     101.616 122.739 145.705  0.00  0.00    +0.000 C 
ENDBRANCH  10  21
TORSDOF 3
ENDMDL
MODEL 2
REMARK VINA RESULT:      -7.7     12.968     13.680
REMARK  Name = 10851748
REMARK  3 active torsions:
REMARK  status: ('A' for Active; 'I' for Inactive)
REMARK    1  A    between atoms: O_2  and  C_12
REMARK    2  A    between atoms: O_4  and  C_16
REMARK    3  A    between atoms: C_6  and  C_10
REMARK                            x       y       z     vdW  Elec       q    Type
REMARK                         _______ _______ _______ _____ _____    ______ ____
ROOT
ATOM      1  O   UNL     1     112.241 126.705 136.122  0.00  0.00    +0.000 OA
ATOM      2  O   UNL     1     110.582 125.002 135.435  0.00  0.00    +0.000 OA
ATOM      3  C   UNL     1     112.361 125.911 136.315  0.00  0.00    +0.000 C 
ATOM      4  C   UNL     1     111.808 125.344 136.086  0.00  0.00    +0.000 C 
ATOM      5  C   UNL     1     111.016 126.363 135.472  0.00  0.00    +0.000 A 
ATOM      6  C   UNL     1     111.569 126.930 135.701  0.00  0.00    +0.000 A 
ATOM      7  C   UNL     1     111.135 125.569 135.664  0.00  0.00    +0.000 C 
ATOM      8  C   UNL     1     111.456 127.760 135.507  0.00  0.00    +0.000 A 
ATOM      9  C   UNL     1     110.312 126.585 135.033  0.00  0.00    +0.000 A 
ATOM     10  C   UNL     1     110.758 128.001 135.068  0.00  0.00    +0.000 A 
ATOM     11  C   UNL     1     110.182 127.410 134.830  0.00  0.00    +0.000 A 
ENDROOT
BRANCH   3  13
ATOM     12  O   UNL     1     115.051 125.008 138.000  0.00  0.00    +0.000 OA
ATOM     13  C   UNL     1     113.033 125.686 136.736  0.00  0.00    +0.000 A 
ATOM     14  C   UNL     1     113.683 125.368 136.338  0.00  0.00    +0.000 A 
ATOM     15  C   UNL     1     113.057 125.778 137.555  0.00  0.00    +0.000 A 
ATOM     16  C   UNL     1     114.355 125.142 136.759  0.00  0.00    +0.000 A 
ATOM     17  C   UNL     1     113.730 125.552 137.977  0.00  0.00    +0.000 A 
ATOM     18  C   UNL     1     114.378 125.234 137.578  0.00  0.00    +0.000 A 
ENDBRANCH   3  13
BRANCH   8  19
ATOM     19  O   UNL     1     112.015 128.321 135.740  0.00  0.00    +0.000 OA
ATOM     20  C   UNL     1     112.478 128.701 135.173  0.00  0.00    +0.000 C 
ENDBRANCH   8  19
BRANCH  10  21
ATOM     21  O   UNL     1     110.641 128.795 134.877  0.00  0.00    +0.000 OA
ATOM     22  C   UNL     1     109.893 129.059 134.650  0.00  0.00    +0.000 C 
ENDBRANCH  10  21
TORSDOF 3
ENDMDL
MODEL 3
REMARK VINA RESULT:      -7.6      2.659      3.431
REMARK  Name = 10851748
REMARK  3 active torsions:
REMARK  status: ('A' for Active; 'I' for Inactive)
REMARK    1  A    between atoms: O_2  and  C_12
REMARK    2  A    between atoms: O_4  and  C_16
REMARK    3  A    between atoms: C_6  and  C_10
REMARK                            x       y       z     vdW  Elec       q    Type
REMARK                         _______ _______ _______ _____ _____    ______ ____
ROOT
ATOM      1  O   UNL     1     106.689 125.512 146.298  0.00  0.00    +0.000 OA
ATOM      2  O   UNL     1     106.728 127.984 146.421  0.00  0.00    +0.000 OA
ATOM      3  C   UNL     1     106.927 125.886 146.994  0.00  0.00    +0.000 C 
ATOM      4  C   UNL     1     106.940 126.710 147.035  0.00  0.00    +0.000 C 
ATOM      5  C   UNL     1     106.477 126.785 145.685  0.00  0.00    +0.000 A 
ATOM      6  C   UNL     1     106.464 125.961 145.644  0.00  0.00    +0.000 A 
ATOM      7  C   UNL     1     106.715 127.160 146.380  0.00  0.00    +0.000 C 
ATOM      8  C   UNL     1     106.219 125.559 144.925  0.00  0.00    +0.000 A 
ATOM      9  C   UNL     1     106.245 127.264 145.010  0.00  0.00    +0.000 A 
ATOM     10  C   UNL     1     105.983 126.021 144.240  0.00  0.00    +0.000 A 
ATOM     11  C   UNL     1     105.997 126.879 144.283  0.00  0.00    +0.000 A 
ENDROOT
BRANCH   3  13
ATOM     12  O   UNL     1     107.827 124.090 149.612  0.00  0.00    +0.000 OA
ATOM     13  C   UNL     1     107.152 125.437 147.648  0.00  0.00    +0.000 A 
ATOM     14  C   UNL     1     106.589 125.212 148.208  0.00  0.00    +0.000 A 
ATOM     15  C   UNL     1     107.940 125.213 147.743  0.00  0.00    +0.000 A 
ATOM     16  C   UNL     1     106.814 124.764 148.862  0.00  0.00    +0.000 A 
ATOM     17  C   UNL     1     108.165 124.763 148.398  0.00  0.00    +0.000 A 
ATOM     18  C   UNL     1     107.602 124.539 148.957  0.00  0.00    +0.000 A 
ENDBRANCH   3  13
BRANCH   8  19
ATOM     19  O   UNL     1     106.209 124.734 144.893  0.00  0.00    +0.000 OA
ATOM     20  C   UNL     1     105.490 124.332 144.848  0.00  0.00    +0.000 C 
ENDBRANCH   8  19
BRANCH  10  21
ATOM     21  O   UNL     1     105.746 125.644 143.546  0.00  0.00    +0.000 OA
ATOM     22  C   UNL     1     105.827 126.027 142.820  0.00  0.00    +0.000 C 
ENDBRANCH  10  21
TORSDOF 3
ENDMDL
MODEL 4
REMARK VINA RESULT:      -7.5      1.086      4.355
REMARK  Name = 10851748
REMARK  3 active torsions:
REMARK  status: ('A' for Active; 'I' for Inactive)
REMARK    1  A    between atoms: O_2  and  C_12
REMARK    2  A    between atoms: O_4  and  C_16
REMARK    3  A    between atoms: C_6  and  C_10
REMARK                            x       y       z     vdW  Elec       q    Type
REMARK                         _______ _______ _______ _____ _____    ______ ____
ROOT
ATOM      1  O   UNL     1     105.090 124.389 147.436  0.00  0.00    +0.000 OA
ATOM      2  O   UNL     1     106.385 125.352 145.560  0.00  0.00    +0.000 OA
ATOM      3  C   UNL     1     104.742 124.465 146.692  0.00  0.00    +0.000 C 
ATOM      4  C   UNL     1     105.174 124.787 146.066  0.00  0.00    +0.000 C 
ATOM      5  C   UNL     1     106.300 124.954 146.930  0.00  0.00    +0.000 A 
ATOM      6  C   UNL     1     105.868 124.633 147.555  0.00  0.00    +0.000 A 
ATOM      7  C   UNL     1     105.953 125.031 146.185  0.00  0.00    +0.000 C 
ATOM      8  C   UNL     1     106.219 124.548 148.336  0.00  0.00    +0.000 A 
ATOM      9  C   UNL     1     107.112 125.213 147.042  0.00  0.00    +0.000 A 
ATOM     10  C   UNL     1     107.029 124.801 148.466  0.00  0.00    +0.000 A 
ATOM     11  C   UNL     1     107.479 125.135 147.814  0.00  0.00    +0.000 A 
ENDROOT
BRANCH   3  13
ATOM     12  O   UNL     1     101.626 123.487 146.214  0.00  0.00    +0.000 OA
ATOM     13  C   UNL     1     103.964 124.221 146.572  0.00  0.00    +0.000 A 
ATOM     14  C   UNL     1     103.338 124.689 146.839  0.00  0.00    +0.000 A 
ATOM     15  C   UNL     1     103.810 123.509 146.186  0.00  0.00    +0.000 A 
ATOM     16  C   UNL     1     102.560 124.445 146.720  0.00  0.00    +0.000 A 
ATOM     17  C   UNL     1     103.030 123.264 146.066  0.00  0.00    +0.000 A 
ATOM     18  C   UNL     1     102.406 123.732 146.334  0.00  0.00    +0.000 A 
ENDBRANCH   3  13
BRANCH   8  19
ATOM     19  O   UNL     1     105.779 124.226 148.955  0.00  0.00    +0.000 OA
ATOM     20  C   UNL     1     105.545 124.703 149.587  0.00  0.00    +0.000 C 
ENDBRANCH   8  19
BRANCH  10  21
ATOM     21  O   UNL     1     107.374 124.723 149.211  0.00  0.00    +0.000 OA
ATOM     22  C   UNL     1     108.181 124.564 149.278  0.00  0.00    +0.000 C 
ENDBRANCH  10  21
TORSDOF 3
ENDMDL
MODEL 5
REMARK VINA RESULT:      -7.5      7.921      8.821
REMARK  Name = 10851748
REMARK  3 active torsions:
REMARK  status: ('A' for Active; 'I' for Inactive)
REMARK    1  A    between atoms: O_2  and  C_12
REMARK    2  A    between atoms: O_4  and  C_16
REMARK    3  A    between atoms: C_6  and  C_10
REMARK                            x       y       z     vdW  Elec       q    Type
REMARK                         _______ _______ _______ _____ _____    ______ ____
ROOT
ATOM      1  O   UNL     1     102.920 130.485 142.108  0.00  0.00    +0.000 OA
ATOM      2  O   UNL     1     102.690 129.348 139.922  0.00  0.00    +0.000 OA
ATOM      3  C   UNL     1     102.417 130.796 141.532  0.00  0.00    +0.000 C 
ATOM      4  C   UNL     1     102.340 130.417 140.804  0.00  0.00    +0.000 C 
ATOM      5  C   UNL     1     103.269 129.417 141.226  0.00  0.00    +0.000 A 
ATOM      6  C   UNL     1     103.346 129.796 141.955  0.00  0.00    +0.000 A 
ATOM      7  C   UNL     1     102.767 129.727 140.650  0.00  0.00    +0.000 C 
ATOM      8  C   UNL     1     103.867 129.482 142.563  0.00  0.00    +0.000 A 
ATOM      9  C   UNL     1     103.708 128.698 141.055  0.00  0.00    +0.000 A 
ATOM     10  C   UNL     1     104.313 128.765 142.409  0.00  0.00    +0.000 A 
ATOM     11  C   UNL     1     104.233 128.370 141.650  0.00  0.00    +0.000 A 
ENDROOT
BRANCH   3  13
ATOM     12  O   UNL     1     100.711 133.554 142.145  0.00  0.00    +0.000 OA
ATOM     13  C   UNL     1     101.991 131.485 141.685  0.00  0.00    +0.000 A 
ATOM     14  C   UNL     1     102.310 132.221 141.490  0.00  0.00    +0.000 A 
ATOM     15  C   UNL     1     101.245 131.440 142.034  0.00  0.00    +0.000 A 
ATOM     16  C   UNL     1     101.884 132.910 141.643  0.00  0.00    +0.000 A 
ATOM     17  C   UNL     1     100.818 132.130 142.187  0.00  0.00    +0.000 A 
ATOM     18  C   UNL     1     101.138 132.864 141.991  0.00  0.00    +0.000 A 
ENDBRANCH   3  13
BRANCH   8  19
ATOM     19  O   UNL     1     103.937 129.868 143.288  0.00  0.00    +0.000 OA
ATOM     20  C   UNL     1     104.640 130.256 143.483  0.00  0.00    +0.000 C 
ENDBRANCH   8  19
BRANCH  10  21
ATOM     21  O   UNL     1     104.816 128.456 142.986  0.00  0.00    +0.000 OA
ATOM     22  C   UNL     1     105.197 127.736 142.859  0.00  0.00    +0.000 C 
ENDBRANCH  10  21
TORSDOF 3
ENDMDL
MODEL 6
REMARK VINA RESULT:      -7.4     11.810     13.579
REMARK  Name = 10851748
REMARK  3 active torsions:
REMARK  status: ('A' for Active; 'I' for Inactive)
REMARK    1  A    between atoms: O_2  and  C_12
REMARK    2  A    between atoms: O_4  and  C_16
REMARK    3  A    between atoms: C_6  and  C_10
REMARK                            x       y       z     vdW  Elec       q    Type
REMARK                         _______ _______ _______ _____ _____    ______ ____
ROOT
ATOM      1  O   UNL     1     111.815 125.899 136.306  0.00  0.00    +0.000 OA
ATOM      2  O   UNL     1     111.661 123.453 136.647  0.00  0.00    +0.000 OA
ATOM      3  C   UNL     1     111.077 125.532 136.326  0.00  0.00    +0.000 C 
ATOM      4  C   UNL     1     111.025 124.716 136.440  0.00  0.00    +0.000 C 
ATOM      5  C   UNL     1     112.450 124.636 136.513  0.00  0.00    +0.000 A 
ATOM      6  C   UNL     1     112.501 125.452 136.399  0.00  0.00    +0.000 A 
ATOM      7  C   UNL     1     111.712 124.268 136.533  0.00  0.00    +0.000 C 
ATOM      8  C   UNL     1     113.265 125.847 136.376  0.00  0.00    +0.000 A 
ATOM      9  C   UNL     1     113.158 124.159 136.611  0.00  0.00    +0.000 A 
ATOM     10  C   UNL     1     113.983 125.386 136.472  0.00  0.00    +0.000 A 
ATOM     11  C   UNL     1     113.930 124.537 136.591  0.00  0.00    +0.000 A 
ENDROOT
BRANCH   3  13
ATOM     12  O   UNL     1     108.329 127.321 135.953  0.00  0.00    +0.000 OA
ATOM     13  C   UNL     1     110.390 125.979 136.233  0.00  0.00    +0.000 A 
ATOM     14  C   UNL     1     110.077 126.103 135.480  0.00  0.00    +0.000 A 
ATOM     15  C   UNL     1     110.016 126.302 136.893  0.00  0.00    +0.000 A 
ATOM     16  C   UNL     1     109.391 126.550 135.386  0.00  0.00    +0.000 A 
ATOM     17  C   UNL     1     109.329 126.750 136.800  0.00  0.00    +0.000 A 
ATOM     18  C   UNL     1     109.017 126.874 136.046  0.00  0.00    +0.000 A 
ENDBRANCH   3  13
BRANCH   8  19
ATOM     19  O   UNL     1     113.306 126.663 136.261  0.00  0.00    +0.000 OA
ATOM     20  C   UNL     1     113.522 127.156 136.887  0.00  0.00    +0.000 C 
ENDBRANCH   8  19
BRANCH  10  21
ATOM     21  O   UNL     1     114.720 125.756 136.451  0.00  0.00    +0.000 OA
ATOM     22  C   UNL     1     115.388 125.333 136.216  0.00  0.00    +0.000 C 
ENDBRANCH  10  21
TORSDOF 3
ENDMDL
MODEL 7
REMARK VINA RESULT:      -7.4      1.024      4.094
REMARK  Name = 10851748
REMARK  3 active torsions:
REMARK  status: ('A' for Active; 'I' for Inactive)
REMARK    1  A    between atoms: O_2  and  C_12
REMARK    2  A    between atoms: O_4  and  C_16
REMARK    3  A    between atoms: C_6  and  C_10
REMARK                            x       y       z     vdW  Elec       q    Type
REMARK                         _______ _______ _______ _____ _____    ______ ____
ROOT
ATOM      1  O   UNL     1     103.990 124.212 146.866  0.00  0.00    +0.000 OA
ATOM      2  O   UNL     1     103.711 124.744 149.267  0.00  0.00    +0.000 OA
ATOM      3  C   UNL     1     103.260 124.096 147.231  0.00  0.00    +0.000 C 
ATOM      4  C   UNL     1     103.167 124.273 148.032  0.00  0.00    +0.000 C 
ATOM      5  C   UNL     1     104.534 124.683 148.100  0.00  0.00    +0.000 A 
ATOM      6  C   UNL     1     104.627 124.505 147.299  0.00  0.00    +0.000 A 
ATOM      7  C   UNL     1     103.804 124.567 148.466  0.00  0.00    +0.000 C 
ATOM      8  C   UNL     1     105.383 124.622 146.907  0.00  0.00    +0.000 A 
ATOM      9  C   UNL     1     105.190 124.989 148.562  0.00  0.00    +0.000 A 
ATOM     10  C   UNL     1     106.050 124.928 147.353  0.00  0.00    +0.000 A 
ATOM     11  C   UNL     1     105.953 125.112 148.187  0.00  0.00    +0.000 A 
ENDROOT
BRANCH   3  13
ATOM     12  O   UNL     1     100.710 122.922 145.495  0.00  0.00    +0.000 OA
ATOM     13  C   UNL     1     102.623 123.802 146.798  0.00  0.00    +0.000 A 
ATOM     14  C   UNL     1     102.645 123.033 146.500  0.00  0.00    +0.000 A 
ATOM     15  C   UNL     1     101.963 124.278 146.661  0.00  0.00    +0.000 A 
ATOM     16  C   UNL     1     102.008 122.739 146.067  0.00  0.00    +0.000 A 
ATOM     17  C   UNL     1     101.325 123.984 146.226  0.00  0.00    +0.000 A 
ATOM     18  C   UNL     1     101.348 123.215 145.930  0.00  0.00    +0.000 A 
ENDBRANCH   3  13
BRANCH   8  19
ATOM     19  O   UNL     1     105.466 124.442 146.106  0.00  0.00    +0.000 OA
ATOM     20  C   UNL     1     105.560 125.049 145.554  0.00  0.00    +0.000 C 
ENDBRANCH   8  19
BRANCH  10  21
ATOM     21  O   UNL     1     106.779 125.043 146.985  0.00  0.00    +0.000 OA
ATOM     22  C   UNL     1     107.437 125.260 147.432  0.00  0.00    +0.000 C 
ENDBRANCH  10  21
TORSDOF 3
ENDMDL
MODEL 8
REMARK VINA RESULT:      -7.4     12.492     13.763
REMARK  Name = 10851748
REMARK  3 active torsions:
REMARK  status: ('A' for Active; 'I' for Inactive)
REMARK    1  A    between atoms: O_2  and  C_12
REMARK    2  A    between atoms: O_4  and  C_16
REMARK    3  A    between atoms: C_6  and  C_10
REMARK                            x       y       z     vdW  Elec       q    Type
REMARK                         _______ _______ _______ _____ _____    ______ ____
ROOT
ATOM      1  O   UNL     1     112.728 126.473 136.636  0.00  0.00    +0.000 OA
ATOM      2  O   UNL     1     115.039 125.608 136.443  0.00  0.00    +0.000 OA
ATOM      3  C   UNL     1     113.356 126.997 136.530  0.00  0.00    +0.000 C 
ATOM      4  C   UNL     1     114.127 126.709 136.465  0.00  0.00    +0.000 C 
ATOM      5  C   UNL     1     113.639 125.374 136.614  0.00  0.00    +0.000 A 
ATOM      6  C   UNL     1     112.869 125.662 136.678  0.00  0.00    +0.000 A 
ATOM      7  C   UNL     1     114.268 125.896 136.507  0.00  0.00    +0.000 C 
ATOM      8  C   UNL     1     112.205 125.127 136.790  0.00  0.00    +0.000 A 
ATOM      9  C   UNL     1     113.799 124.530 136.656  0.00  0.00    +0.000 A 
ATOM     10  C   UNL     1     112.346 124.281 136.834  0.00  0.00    +0.000 A 
ATOM     11  C   UNL     1     113.148 123.980 136.767  0.00  0.00    +0.000 A 
ENDROOT
BRANCH   3  13
ATOM     12  O   UNL     1     112.792 130.244 136.362  0.00  0.00    +0.000 OA
ATOM     13  C   UNL     1     113.215 127.808 136.488  0.00  0.00    +0.000 A 
ATOM     14  C   UNL     1     113.102 128.170 135.755  0.00  0.00    +0.000 A 
ATOM     15  C   UNL     1     113.188 128.258 137.179  0.00  0.00    +0.000 A 
ATOM     16  C   UNL     1     112.961 128.982 135.713  0.00  0.00    +0.000 A 
ATOM     17  C   UNL     1     113.046 129.071 137.137  0.00  0.00    +0.000 A 
ATOM     18  C   UNL     1     112.933 129.432 136.404  0.00  0.00    +0.000 A 
ENDBRANCH   3  13
BRANCH   8  19
ATOM     19  O   UNL     1     111.439 125.425 136.853  0.00  0.00    +0.000 OA
ATOM     20  C   UNL     1     110.901 125.314 136.236  0.00  0.00    +0.000 C 
ENDBRANCH   8  19
BRANCH  10  21
ATOM     21  O   UNL     1     111.716 123.760 136.941  0.00  0.00    +0.000 OA
ATOM     22  C   UNL     1     111.858 122.985 137.186  0.00  0.00    +0.000 C 
ENDBRANCH  10  21
TORSDOF 3
ENDMDL
MODEL 9
REMARK VINA RESULT:      -7.4      9.595     10.292
REMARK  Name = 10851748
REMARK  3 active torsions:
REMARK  status: ('A' for Active; 'I' for Inactive)
REMARK    1  A    between atoms: O_2  and  C_12
REMARK    2  A    between atoms: O_4  and  C_16
REMARK    3  A    between atoms: C_6  and  C_10
REMARK                            x       y       z     vdW  Elec       q    Type
REMARK                         _______ _______ _______ _____ _____    ______ ____
ROOT
ATOM      1  O   UNL     1     102.867 132.040 141.190  0.00  0.00    +0.000 OA
ATOM      2  O   UNL     1     100.710 132.289 142.379  0.00  0.00    +0.000 OA
ATOM      3  C   UNL     1     102.451 131.370 141.434  0.00  0.00    +0.000 C 
ATOM      4  C   UNL     1     101.732 131.453 141.831  0.00  0.00    +0.000 C 
ATOM      5  C   UNL     1     101.845 132.875 141.738  0.00  0.00    +0.000 A 
ATOM      6  C   UNL     1     102.564 132.792 141.342  0.00  0.00    +0.000 A 
ATOM      7  C   UNL     1     101.429 132.206 141.983  0.00  0.00    +0.000 C 
ATOM      8  C   UNL     1     103.007 133.481 141.082  0.00  0.00    +0.000 A 
ATOM      9  C   UNL     1     101.520 133.653 141.902  0.00  0.00    +0.000 A 
ATOM     10  C   UNL     1     102.697 134.267 141.238  0.00  0.00    +0.000 A 
ATOM     11  C   UNL     1     101.949 134.354 141.650  0.00  0.00    +0.000 A 
ENDROOT
BRANCH   3  13
ATOM     12  O   UNL     1     103.662 128.361 140.828  0.00  0.00    +0.000 OA
ATOM     13  C   UNL     1     102.753 130.618 141.283  0.00  0.00    +0.000 A 
ATOM     14  C   UNL     1     102.524 130.210 140.603  0.00  0.00    +0.000 A 
ATOM     15  C   UNL     1     103.285 130.274 141.811  0.00  0.00    +0.000 A 
ATOM     16  C   UNL     1     102.827 129.458 140.452  0.00  0.00    +0.000 A 
ATOM     17  C   UNL     1     103.588 129.521 141.659  0.00  0.00    +0.000 A 
ATOM     18  C   UNL     1     103.359 129.114 140.980  0.00  0.00    +0.000 A 
ENDBRANCH   3  13
BRANCH   8  19
ATOM     19  O   UNL     1     103.725 133.388 140.687  0.00  0.00    +0.000 OA
ATOM     20  C   UNL     1     103.783 133.581 139.887  0.00  0.00    +0.000 C 
ENDBRANCH   8  19
BRANCH  10  21
ATOM     21  O   UNL     1     103.115 134.935 140.992  0.00  0.00    +0.000 OA
ATOM     22  C   UNL     1     102.893 135.682 141.261  0.00  0.00    +0.000 C 
ENDBRANCH  10  21
TORSDOF 3
ENDMDL
MODEL 10
REMARK VINA RESULT:      -7.3     13.354     14.046
REMARK  Name = 10851748
REMARK  3 active torsions:
REMARK  status: ('A' for Active; 'I' for Inactive)
REMARK    1  A    between atoms: O_2  and  C_12
REMARK    2  A    between atoms: O_4  and  C_16
REMARK    3  A    between atoms: C_6  and  C_10
REMARK                            x       y       z     vdW  Elec       q    Type
REMARK                         _______ _______ _______ _____ _____    ______ ____
ROOT
ATOM      1  O   UNL     1     112.610 126.972 136.173  0.00  0.00    +0.000 OA
ATOM      2  O   UNL     1     113.854 129.099 135.935  0.00  0.00    +0.000 OA
ATOM      3  C   UNL     1     113.400 127.017 136.410  0.00  0.00    +0.000 C 
ATOM      4  C   UNL     1     113.814 127.726 136.331  0.00  0.00    +0.000 C 
ATOM      5  C   UNL     1     112.651 128.344 135.778  0.00  0.00    +0.000 A 
ATOM      6  C   UNL     1     112.236 127.635 135.857  0.00  0.00    +0.000 A 
ATOM      7  C   UNL     1     113.439 128.390 136.014  0.00  0.00    +0.000 C 
ATOM      8  C   UNL     1     111.413 127.576 135.614  0.00  0.00    +0.000 A 
ATOM      9  C   UNL     1     112.271 129.043 135.450  0.00  0.00    +0.000 A 
ATOM     10  C   UNL     1     111.018 128.264 135.284  0.00  0.00    +0.000 A 
ATOM     11  C   UNL     1     111.450 129.002 135.202  0.00  0.00    +0.000 A 
ENDROOT
BRANCH   3  13
ATOM     12  O   UNL     1     114.898 124.362 137.674  0.00  0.00    +0.000 OA
ATOM     13  C   UNL     1     113.774 126.354 136.726  0.00  0.00    +0.000 A 
ATOM     14  C   UNL     1     113.671 126.161 137.522  0.00  0.00    +0.000 A 
ATOM     15  C   UNL     1     114.251 125.882 136.246  0.00  0.00    +0.000 A 
ATOM     16  C   UNL     1     114.046 125.498 137.838  0.00  0.00    +0.000 A 
ATOM     17  C   UNL     1     114.627 125.218 136.562  0.00  0.00    +0.000 A 
ATOM     18  C   UNL     1     114.523 125.027 137.358  0.00  0.00    +0.000 A 
ENDBRANCH   3  13
BRANCH   8  19
ATOM     19  O   UNL     1     111.007 126.863 135.697  0.00  0.00    +0.000 OA
ATOM     20  C   UNL     1     110.793 126.430 135.028  0.00  0.00    +0.000 C 
ENDBRANCH   8  19
BRANCH  10  21
ATOM     21  O   UNL     1     110.229 128.216 135.048  0.00  0.00    +0.000 OA
ATOM     22  C   UNL     1     109.807 128.904 134.880  0.00  0.00    +0.000 C 
ENDBRANCH  10  21
TORSDOF 3
ENDMDL
