MODEL 1
REMARK VINA RESULT:     -10.3      0.000      0.000
REMARK  Name = 56776173
REMARK  6 active torsions:
REMARK  status: ('A' for Active; 'I' for Inactive)
REMARK    1  A    between atoms: O_1  and  C_16
REMARK    2  A    between atoms: O_1  and  C_21
REMARK    3  A    between atoms: C_18  and  C_26
REMARK    4  A    between atoms: C_20  and  C_27
REMARK    5  A    between atoms: C_25  and  C_28
REMARK    6  A    between atoms: C_35  and  C_37
REMARK                            x       y       z     vdW  Elec       q    Type
REMARK                         _______ _______ _______ _____ _____    ______ ____
ROOT
ATOM      1  O   UNL     1     106.264 125.661 145.008  0.00  0.00    +0.000 OA
ATOM      2  O   UNL     1     105.089 127.829 144.793  0.00  0.00    +0.000 OA
ATOM      3  O   UNL     1     105.637 127.331 146.267  0.00  0.00    +0.000 OA
ATOM      4  C   UNL     1     105.598 126.633 144.199  0.00  0.00    +0.000 C 
ATOM      5  C   UNL     1     105.481 127.106 144.865  0.00  0.00    +0.000 C 
ATOM      6  C   UNL     1     105.990 125.910 144.271  0.00  0.00    +0.000 C 
ATOM      7  C   UNL     1     105.755 126.857 145.601  0.00  0.00    +0.000 C 
ATOM      8  C   UNL     1     106.147 126.135 145.674  0.00  0.00    +0.000 C 
ENDROOT
BRANCH   8  13
ATOM      9  O   UNL     1     105.223 125.076 146.550  0.00  0.00    +0.000 OA
ATOM     10  O   UNL     1     107.590 126.692 146.248  0.00  0.00    +0.000 OA
ATOM     11  O   UNL     1     107.243 125.139 148.622  0.00  0.00    +0.000 OA
ATOM     12  O   UNL     1     106.072 124.316 148.812  0.00  0.00    +0.000 OA
ATOM     13  C   UNL     1     106.421 125.886 146.411  0.00  0.00    +0.000 A 
ATOM     14  C   UNL     1     105.973 125.358 146.860  0.00  0.00    +0.000 A 
ATOM     15  C   UNL     1     107.142 126.164 146.698  0.00  0.00    +0.000 A 
ATOM     16  C   UNL     1     106.247 125.109 147.598  0.00  0.00    +0.000 A 
ATOM     17  C   UNL     1     107.416 125.915 147.436  0.00  0.00    +0.000 A 
ATOM     18  C   UNL     1     106.969 125.388 147.885  0.00  0.00    +0.000 A 
ATOM     19  C   UNL     1     105.791 124.560 148.076  0.00  0.00    +0.000 A 
ATOM     20  C   UNL     1     104.752 124.526 147.014  0.00  0.00    +0.000 A 
ATOM     21  C   UNL     1     105.038 124.267 147.782  0.00  0.00    +0.000 A 
BRANCH  20  23
ATOM     22  O   UNL     1     101.869 123.418 145.854  0.00  0.00    +0.000 OA
ATOM     23  C   UNL     1     104.031 124.250 146.724  0.00  0.00    +0.000 A 
ATOM     24  C   UNL     1     103.330 124.631 146.931  0.00  0.00    +0.000 A 
ATOM     25  C   UNL     1     104.012 123.591 146.228  0.00  0.00    +0.000 A 
ATOM     26  C   UNL     1     102.608 124.355 146.641  0.00  0.00    +0.000 A 
ATOM     27  C   UNL     1     103.291 123.314 145.938  0.00  0.00    +0.000 A 
ATOM     28  C   UNL     1     102.589 123.696 146.145  0.00  0.00    +0.000 A 
ENDBRANCH  20  23
ENDBRANCH   8  13
BRANCH   6  30
ATOM     29  O   UNL     1     106.267 124.632 143.694  0.00  0.00    +0.000 OA
ATOM     30  C   UNL     1     106.108 125.437 143.606  0.00  0.00    +0.000 C 
ENDBRANCH   6  30
BRANCH   4  31
ATOM     31  O   UNL     1     105.324 126.882 143.462  0.00  0.00    +0.000 OA
BRANCH  31  36
ATOM     32  O   UNL     1     106.555 127.564 143.211  0.00  0.00    +0.000 OA
ATOM     33  O   UNL     1     104.631 127.663 142.185  0.00  0.00    +0.000 OA
ATOM     34  O   UNL     1     105.514 128.736 141.295  0.00  0.00    +0.000 OA
ATOM     35  O   UNL     1     107.091 129.027 141.683  0.00  0.00    +0.000 OA
ATOM     36  C   UNL     1     105.766 127.418 143.018  0.00  0.00    +0.000 C 
ATOM     37  C   UNL     1     105.419 127.809 142.378  0.00  0.00    +0.000 C 
ATOM     38  C   UNL     1     105.861 128.345 141.934  0.00  0.00    +0.000 C 
ATOM     39  C   UNL     1     106.649 128.491 142.128  0.00  0.00    +0.000 C 
ATOM     40  C   UNL     1     106.996 128.100 142.767  0.00  0.00    +0.000 C 
BRANCH  40  42
ATOM     41  O   UNL     1     108.355 127.663 142.839  0.00  0.00    +0.000 OA
ATOM     42  C   UNL     1     107.784 128.246 142.961  0.00  0.00    +0.000 C 
ENDBRANCH  40  42
ENDBRANCH  31  36
ENDBRANCH   4  31
TORSDOF 6
ENDMDL
MODEL 2
REMARK VINA RESULT:     -10.0      8.409     10.567
REMARK  Name = 56776173
REMARK  6 active torsions:
REMARK  status: ('A' for Active; 'I' for Inactive)
REMARK    1  A    between atoms: O_1  and  C_16
REMARK    2  A    between atoms: O_1  and  C_21
REMARK    3  A    between atoms: C_18  and  C_26
REMARK    4  A    between atoms: C_20  and  C_27
REMARK    5  A    between atoms: C_25  and  C_28
REMARK    6  A    between atoms: C_35  and  C_37
REMARK                            x       y       z     vdW  Elec       q    Type
REMARK                         _______ _______ _______ _____ _____    ______ ____
ROOT
ATOM      1  O   UNL     1     112.516 127.757 139.811  0.00  0.00    +0.000 OA
ATOM      2  O   UNL     1     113.442 129.797 138.759  0.00  0.00    +0.000 OA
ATOM      3  O   UNL     1     112.062 129.116 138.163  0.00  0.00    +0.000 OA
ATOM      4  C   UNL     1     113.514 128.778 139.758  0.00  0.00    +0.000 C 
ATOM      5  C   UNL     1     113.133 129.117 139.109  0.00  0.00    +0.000 C 
ATOM      6  C   UNL     1     113.205 128.097 140.108  0.00  0.00    +0.000 C 
ATOM      7  C   UNL     1     112.444 128.776 138.812  0.00  0.00    +0.000 C 
ATOM      8  C   UNL     1     112.135 128.096 139.162  0.00  0.00    +0.000 C 
ENDROOT
BRANCH   8  13
ATOM      9  O   UNL     1     112.266 126.836 138.095  0.00  0.00    +0.000 OA
ATOM     10  O   UNL     1     110.661 128.671 139.631  0.00  0.00    +0.000 OA
ATOM     11  O   UNL     1     109.376 126.732 137.970  0.00  0.00    +0.000 OA
ATOM     12  O   UNL     1     110.144 125.795 137.185  0.00  0.00    +0.000 OA
ATOM     13  C   UNL     1     111.445 127.755 138.864  0.00  0.00    +0.000 A 
ATOM     14  C   UNL     1     111.493 127.127 138.331  0.00  0.00    +0.000 A 
ATOM     15  C   UNL     1     110.709 128.043 139.098  0.00  0.00    +0.000 A 
ATOM     16  C   UNL     1     110.803 126.785 138.033  0.00  0.00    +0.000 A 
ATOM     17  C   UNL     1     110.019 127.701 138.800  0.00  0.00    +0.000 A 
ATOM     18  C   UNL     1     110.066 127.073 138.268  0.00  0.00    +0.000 A 
ATOM     19  C   UNL     1     110.839 126.131 137.478  0.00  0.00    +0.000 A 
ATOM     20  C   UNL     1     112.322 126.182 137.541  0.00  0.00    +0.000 A 
ATOM     21  C   UNL     1     111.603 125.826 137.230  0.00  0.00    +0.000 A 
BRANCH  20  23
ATOM     22  O   UNL     1     115.275 125.041 136.609  0.00  0.00    +0.000 OA
ATOM     23  C   UNL     1     113.060 125.896 137.308  0.00  0.00    +0.000 A 
ATOM     24  C   UNL     1     113.415 125.280 137.726  0.00  0.00    +0.000 A 
ATOM     25  C   UNL     1     113.444 126.227 136.657  0.00  0.00    +0.000 A 
ATOM     26  C   UNL     1     114.153 124.994 137.493  0.00  0.00    +0.000 A 
ATOM     27  C   UNL     1     114.182 125.942 136.424  0.00  0.00    +0.000 A 
ATOM     28  C   UNL     1     114.537 125.325 136.842  0.00  0.00    +0.000 A 
ENDBRANCH  20  23
ENDBRANCH   8  13
BRANCH   6  30
ATOM     29  O   UNL     1     113.465 126.963 140.938  0.00  0.00    +0.000 OA
ATOM     30  C   UNL     1     113.587 127.759 140.756  0.00  0.00    +0.000 C 
ENDBRANCH   6  30
BRANCH   4  31
ATOM     31  O   UNL     1     114.204 129.119 140.056  0.00  0.00    +0.000 OA
BRANCH  31  36
ATOM     32  O   UNL     1     113.473 129.910 140.995  0.00  0.00    +0.000 OA
ATOM     33  O   UNL     1     115.481 130.157 140.175  0.00  0.00    +0.000 OA
ATOM     34  O   UNL     1     115.389 131.467 141.173  0.00  0.00    +0.000 OA
ATOM     35  O   UNL     1     114.020 131.739 142.052  0.00  0.00    +0.000 OA
ATOM     36  C   UNL     1     114.158 129.773 140.555  0.00  0.00    +0.000 C 
ATOM     37  C   UNL     1     114.797 130.293 140.614  0.00  0.00    +0.000 C 
ATOM     38  C   UNL     1     114.750 130.948 141.114  0.00  0.00    +0.000 C 
ATOM     39  C   UNL     1     114.066 131.084 141.553  0.00  0.00    +0.000 C 
ATOM     40  C   UNL     1     113.427 130.565 141.494  0.00  0.00    +0.000 C 
BRANCH  40  42
ATOM     41  O   UNL     1     112.075 131.021 141.569  0.00  0.00    +0.000 OA
ATOM     42  C   UNL     1     112.743 130.701 141.933  0.00  0.00    +0.000 C 
ENDBRANCH  40  42
ENDBRANCH  31  36
ENDBRANCH   4  31
TORSDOF 6
ENDMDL
MODEL 3
REMARK VINA RESULT:     -10.0      9.124     10.040
REMARK  Name = 56776173
REMARK  6 active torsions:
REMARK  status: ('A' for Active; 'I' for Inactive)
REMARK    1  A    between atoms: O_1  and  C_16
REMARK    2  A    between atoms: O_1  and  C_21
REMARK    3  A    between atoms: C_18  and  C_26
REMARK    4  A    between atoms: C_20  and  C_27
REMARK    5  A    between atoms: C_25  and  C_28
REMARK    6  A    between atoms: C_35  and  C_37
REMARK                            x       y       z     vdW  Elec       q    Type
REMARK                         _______ _______ _______ _____ _____    ______ ____
ROOT
ATOM      1  O   UNL     1     111.708 128.789 137.315  0.00  0.00    +0.000 OA
ATOM      2  O   UNL     1     109.341 128.584 138.010  0.00  0.00    +0.000 OA
ATOM      3  O   UNL     1     110.548 128.314 139.103  0.00  0.00    +0.000 OA
ATOM      4  C   UNL     1     110.316 128.856 137.001  0.00  0.00    +0.000 C 
ATOM      5  C   UNL     1     110.131 128.653 137.779  0.00  0.00    +0.000 C 
ATOM      6  C   UNL     1     111.106 128.924 136.770  0.00  0.00    +0.000 C 
ATOM      7  C   UNL     1     110.733 128.518 138.324  0.00  0.00    +0.000 C 
ATOM      8  C   UNL     1     111.522 128.586 138.094  0.00  0.00    +0.000 C 
ENDROOT
BRANCH   8  13
ATOM      9  O   UNL     1     112.230 127.090 138.144  0.00  0.00    +0.000 OA
ATOM     10  O   UNL     1     112.002 129.795 139.109  0.00  0.00    +0.000 OA
ATOM     11  O   UNL     1     113.935 128.045 140.279  0.00  0.00    +0.000 OA
ATOM     12  O   UNL     1     114.081 126.683 139.824  0.00  0.00    +0.000 OA
ATOM     13  C   UNL     1     112.126 128.451 138.640  0.00  0.00    +0.000 A 
ATOM     14  C   UNL     1     112.489 127.711 138.678  0.00  0.00    +0.000 A 
ATOM     15  C   UNL     1     112.365 129.055 139.147  0.00  0.00    +0.000 A 
ATOM     16  C   UNL     1     113.093 127.575 139.225  0.00  0.00    +0.000 A 
ATOM     17  C   UNL     1     112.969 128.919 139.694  0.00  0.00    +0.000 A 
ATOM     18  C   UNL     1     113.332 128.180 139.733  0.00  0.00    +0.000 A 
ATOM     19  C   UNL     1     113.479 126.810 139.275  0.00  0.00    +0.000 A 
ATOM     20  C   UNL     1     112.605 126.317 138.179  0.00  0.00    +0.000 A 
ATOM     21  C   UNL     1     113.234 126.176 138.749  0.00  0.00    +0.000 A 
BRANCH  20  23
ATOM     22  O   UNL     1     111.640 123.907 136.142  0.00  0.00    +0.000 OA
ATOM     23  C   UNL     1     112.363 125.714 137.670  0.00  0.00    +0.000 A 
ATOM     24  C   UNL     1     111.746 125.213 137.888  0.00  0.00    +0.000 A 
ATOM     25  C   UNL     1     112.740 125.613 136.943  0.00  0.00    +0.000 A 
ATOM     26  C   UNL     1     111.504 124.610 137.379  0.00  0.00    +0.000 A 
ATOM     27  C   UNL     1     112.499 125.011 136.434  0.00  0.00    +0.000 A 
ATOM     28  C   UNL     1     111.880 124.509 136.652  0.00  0.00    +0.000 A 
ENDBRANCH  20  23
ENDBRANCH   8  13
BRANCH   6  30
ATOM     29  O   UNL     1     112.036 128.953 135.686  0.00  0.00    +0.000 OA
ATOM     30  C   UNL     1     111.291 129.128 135.992  0.00  0.00    +0.000 C 
ENDBRANCH   6  30
BRANCH   4  31
ATOM     31  O   UNL     1     109.713 128.991 136.455  0.00  0.00    +0.000 OA
BRANCH  31  36
ATOM     32  O   UNL     1     109.645 130.373 136.815  0.00  0.00    +0.000 OA
ATOM     33  O   UNL     1     108.229 129.105 135.741  0.00  0.00    +0.000 OA
ATOM     34  O   UNL     1     107.420 130.543 135.745  0.00  0.00    +0.000 OA
ATOM     35  O   UNL     1     108.095 131.867 136.461  0.00  0.00    +0.000 OA
ATOM     36  C   UNL     1     109.309 129.710 136.456  0.00  0.00    +0.000 C 
ATOM     37  C   UNL     1     108.566 129.767 136.099  0.00  0.00    +0.000 C 
ATOM     38  C   UNL     1     108.162 130.486 136.101  0.00  0.00    +0.000 C 
ATOM     39  C   UNL     1     108.499 131.148 136.459  0.00  0.00    +0.000 C 
ATOM     40  C   UNL     1     109.241 131.091 136.816  0.00  0.00    +0.000 C 
BRANCH  40  42
ATOM     41  O   UNL     1     110.239 132.114 136.837  0.00  0.00    +0.000 OA
ATOM     42  C   UNL     1     109.578 131.753 137.175  0.00  0.00    +0.000 C 
ENDBRANCH  40  42
ENDBRANCH  31  36
ENDBRANCH   4  31
TORSDOF 6
ENDMDL
MODEL 4
REMARK VINA RESULT:     -10.0      8.637     10.615
REMARK  Name = 56776173
REMARK  6 active torsions:
REMARK  status: ('A' for Active; 'I' for Inactive)
REMARK    1  A    between atoms: O_1  and  C_16
REMARK    2  A    between atoms: O_1  and  C_21
REMARK    3  A    between atoms: C_18  and  C_26
REMARK    4  A    between atoms: C_20  and  C_27
REMARK    5  A    between atoms: C_25  and  C_28
REMARK    6  A    between atoms: C_35  and  C_37
REMARK                            x       y       z     vdW  Elec       q    Type
REMARK                         _______ _______ _______ _____ _____    ______ ____
ROOT
ATOM      1  O   UNL     1     112.134 126.841 138.599  0.00  0.00    +0.000 OA
ATOM      2  O   UNL     1     113.332 128.785 137.643  0.00  0.00    +0.000 OA
ATOM      3  O   UNL     1     113.440 127.309 136.913  0.00  0.00    +0.000 OA
ATOM      4  C   UNL     1     112.479 128.227 138.645  0.00  0.00    +0.000 C 
ATOM      5  C   UNL     1     112.932 128.136 137.961  0.00  0.00    +0.000 C 
ATOM      6  C   UNL     1     112.080 127.578 138.963  0.00  0.00    +0.000 C 
ATOM      7  C   UNL     1     112.986 127.399 137.597  0.00  0.00    +0.000 C 
ATOM      8  C   UNL     1     112.587 126.751 137.915  0.00  0.00    +0.000 C 
ENDROOT
BRANCH   8  13
ATOM      9  O   UNL     1     111.386 126.288 136.874  0.00  0.00    +0.000 OA
ATOM     10  O   UNL     1     113.875 125.768 138.228  0.00  0.00    +0.000 OA
ATOM     11  O   UNL     1     112.804 123.799 136.455  0.00  0.00    +0.000 OA
ATOM     12  O   UNL     1     111.560 124.021 135.757  0.00  0.00    +0.000 OA
ATOM     13  C   UNL     1     112.641 126.013 137.550  0.00  0.00    +0.000 A 
ATOM     14  C   UNL     1     112.051 125.767 137.028  0.00  0.00    +0.000 A 
ATOM     15  C   UNL     1     113.285 125.522 137.706  0.00  0.00    +0.000 A 
ATOM     16  C   UNL     1     112.105 125.028 136.663  0.00  0.00    +0.000 A 
ATOM     17  C   UNL     1     113.339 124.783 137.341  0.00  0.00    +0.000 A 
ATOM     18  C   UNL     1     112.750 124.537 136.820  0.00  0.00    +0.000 A 
ATOM     19  C   UNL     1     111.498 124.760 136.118  0.00  0.00    +0.000 A 
ATOM     20  C   UNL     1     110.768 126.037 136.331  0.00  0.00    +0.000 A 
ATOM     21  C   UNL     1     110.824 125.267 135.951  0.00  0.00    +0.000 A 
BRANCH  20  23
ATOM     22  O   UNL     1     108.196 128.009 135.714  0.00  0.00    +0.000 OA
ATOM     23  C   UNL     1     110.125 126.530 136.176  0.00  0.00    +0.000 A 
ATOM     24  C   UNL     1     110.140 127.036 135.525  0.00  0.00    +0.000 A 
ATOM     25  C   UNL     1     109.467 126.518 136.674  0.00  0.00    +0.000 A 
ATOM     26  C   UNL     1     109.497 127.529 135.370  0.00  0.00    +0.000 A 
ATOM     27  C   UNL     1     108.824 127.010 136.520  0.00  0.00    +0.000 A 
ATOM     28  C   UNL     1     108.839 127.517 135.867  0.00  0.00    +0.000 A 
ENDBRANCH  20  23
ENDBRANCH   8  13
BRANCH   6  30
ATOM     29  O   UNL     1     111.066 127.098 139.849  0.00  0.00    +0.000 OA
ATOM     30  C   UNL     1     111.626 127.669 139.646  0.00  0.00    +0.000 C 
ENDBRANCH   6  30
BRANCH   4  31
ATOM     31  O   UNL     1     112.425 128.965 139.010  0.00  0.00    +0.000 OA
BRANCH  31  36
ATOM     32  O   UNL     1     113.574 128.685 139.812  0.00  0.00    +0.000 OA
ATOM     33  O   UNL     1     112.553 130.567 139.384  0.00  0.00    +0.000 OA
ATOM     34  O   UNL     1     113.766 131.088 140.373  0.00  0.00    +0.000 OA
ATOM     35  O   UNL     1     114.850 130.008 140.989  0.00  0.00    +0.000 OA
ATOM     36  C   UNL     1     113.031 129.225 139.504  0.00  0.00    +0.000 C 
ATOM     37  C   UNL     1     113.095 130.027 139.691  0.00  0.00    +0.000 C 
ATOM     38  C   UNL     1     113.702 130.287 140.186  0.00  0.00    +0.000 C 
ATOM     39  C   UNL     1     114.244 129.748 140.494  0.00  0.00    +0.000 C 
ATOM     40  C   UNL     1     114.180 128.946 140.307  0.00  0.00    +0.000 C 
BRANCH  40  42
ATOM     41  O   UNL     1     114.457 127.759 141.052  0.00  0.00    +0.000 OA
ATOM     42  C   UNL     1     114.722 128.407 140.615  0.00  0.00    +0.000 C 
ENDBRANCH  40  42
ENDBRANCH  31  36
ENDBRANCH   4  31
TORSDOF 6
ENDMDL
MODEL 5
REMARK VINA RESULT:      -9.9      8.955     10.905
REMARK  Name = 56776173
REMARK  6 active torsions:
REMARK  status: ('A' for Active; 'I' for Inactive)
REMARK    1  A    between atoms: O_1  and  C_16
REMARK    2  A    between atoms: O_1  and  C_21
REMARK    3  A    between atoms: C_18  and  C_26
REMARK    4  A    between atoms: C_20  and  C_27
REMARK    5  A    between atoms: C_25  and  C_28
REMARK    6  A    between atoms: C_35  and  C_37
REMARK                            x       y       z     vdW  Elec       q    Type
REMARK                         _______ _______ _______ _____ _____    ______ ____
ROOT
ATOM      1  O   UNL     1     110.139 128.279 136.816  0.00  0.00    +0.000 OA
ATOM      2  O   UNL     1     111.814 129.875 135.938  0.00  0.00    +0.000 OA
ATOM      3  O   UNL     1     111.727 128.348 135.320  0.00  0.00    +0.000 OA
ATOM      4  C   UNL     1     110.741 129.574 136.833  0.00  0.00    +0.000 C 
ATOM      5  C   UNL     1     111.256 129.342 136.231  0.00  0.00    +0.000 C 
ATOM      6  C   UNL     1     110.182 129.041 137.125  0.00  0.00    +0.000 C 
ATOM      7  C   UNL     1     111.212 128.580 135.922  0.00  0.00    +0.000 C 
ATOM      8  C   UNL     1     110.654 128.047 136.214  0.00  0.00    +0.000 C 
ENDROOT
BRANCH   8  13
ATOM      9  O   UNL     1     111.439 126.822 137.004  0.00  0.00    +0.000 OA
ATOM     10  O   UNL     1     109.795 127.764 134.834  0.00  0.00    +0.000 OA
ATOM     11  O   UNL     1     110.479 124.993 134.976  0.00  0.00    +0.000 OA
ATOM     12  O   UNL     1     111.300 124.481 136.047  0.00  0.00    +0.000 OA
ATOM     13  C   UNL     1     110.610 127.284 135.905  0.00  0.00    +0.000 A 
ATOM     14  C   UNL     1     110.996 126.662 136.286  0.00  0.00    +0.000 A 
ATOM     15  C   UNL     1     110.181 127.143 135.215  0.00  0.00    +0.000 A 
ATOM     16  C   UNL     1     110.952 125.897 135.976  0.00  0.00    +0.000 A 
ATOM     17  C   UNL     1     110.137 126.378 134.905  0.00  0.00    +0.000 A 
ATOM     18  C   UNL     1     110.522 125.757 135.286  0.00  0.00    +0.000 A 
ATOM     19  C   UNL     1     111.349 125.241 136.363  0.00  0.00    +0.000 A 
ATOM     20  C   UNL     1     111.843 126.178 137.405  0.00  0.00    +0.000 A 
ATOM     21  C   UNL     1     111.798 125.382 137.083  0.00  0.00    +0.000 A 
BRANCH  20  23
ATOM     22  O   UNL     1     113.557 126.755 140.166  0.00  0.00    +0.000 OA
ATOM     23  C   UNL     1     112.272 126.322 138.095  0.00  0.00    +0.000 A 
ATOM     24  C   UNL     1     113.079 126.491 138.052  0.00  0.00    +0.000 A 
ATOM     25  C   UNL     1     111.894 126.298 138.828  0.00  0.00    +0.000 A 
ATOM     26  C   UNL     1     113.507 126.635 138.742  0.00  0.00    +0.000 A 
ATOM     27  C   UNL     1     112.322 126.442 139.518  0.00  0.00    +0.000 A 
ATOM     28  C   UNL     1     113.129 126.611 139.475  0.00  0.00    +0.000 A 
ENDBRANCH  20  23
ENDBRANCH   8  13
BRANCH   6  30
ATOM     29  O   UNL     1     109.281 128.704 138.182  0.00  0.00    +0.000 OA
ATOM     30  C   UNL     1     109.668 129.273 137.727  0.00  0.00    +0.000 C 
ENDBRANCH   6  30
BRANCH   4  31
ATOM     31  O   UNL     1     110.785 130.338 137.142  0.00  0.00    +0.000 OA
BRANCH  31  36
ATOM     32  O   UNL     1     109.895 130.814 136.131  0.00  0.00    +0.000 OA
ATOM     33  O   UNL     1     111.122 131.893 137.579  0.00  0.00    +0.000 OA
ATOM     34  O   UNL     1     110.400 133.147 136.786  0.00  0.00    +0.000 OA
ATOM     35  O   UNL     1     109.343 132.846 135.556  0.00  0.00    +0.000 OA
ATOM     36  C   UNL     1     110.425 130.964 136.746  0.00  0.00    +0.000 C 
ATOM     37  C   UNL     1     110.593 131.743 136.964  0.00  0.00    +0.000 C 
ATOM     38  C   UNL     1     110.232 132.370 136.567  0.00  0.00    +0.000 C 
ATOM     39  C   UNL     1     109.703 132.219 135.953  0.00  0.00    +0.000 C 
ATOM     40  C   UNL     1     109.535 131.441 135.734  0.00  0.00    +0.000 C 
BRANCH  40  42
ATOM     41  O   UNL     1     108.269 130.957 135.281  0.00  0.00    +0.000 OA
ATOM     42  C   UNL     1     109.006 131.291 135.120  0.00  0.00    +0.000 C 
ENDBRANCH  40  42
ENDBRANCH  31  36
ENDBRANCH   4  31
TORSDOF 6
ENDMDL
MODEL 6
REMARK VINA RESULT:      -9.9      6.372     10.118
REMARK  Name = 56776173
REMARK  6 active torsions:
REMARK  status: ('A' for Active; 'I' for Inactive)
REMARK    1  A    between atoms: O_1  and  C_16
REMARK    2  A    between atoms: O_1  and  C_21
REMARK    3  A    between atoms: C_18  and  C_26
REMARK    4  A    between atoms: C_20  and  C_27
REMARK    5  A    between atoms: C_25  and  C_28
REMARK    6  A    between atoms: C_35  and  C_37
REMARK                            x       y       z     vdW  Elec       q    Type
REMARK                         _______ _______ _______ _____ _____    ______ ____
ROOT
ATOM      1  O   UNL     1     111.177 127.488 138.398  0.00  0.00    +0.000 OA
ATOM      2  O   UNL     1     110.884 125.949 140.314  0.00  0.00    +0.000 OA
ATOM      3  O   UNL     1     110.212 125.583 138.852  0.00  0.00    +0.000 OA
ATOM      4  C   UNL     1     111.415 127.158 139.767  0.00  0.00    +0.000 C 
ATOM      5  C   UNL     1     110.981 126.462 139.674  0.00  0.00    +0.000 C 
ATOM      6  C   UNL     1     111.513 127.671 139.128  0.00  0.00    +0.000 C 
ATOM      7  C   UNL     1     110.646 126.279 138.944  0.00  0.00    +0.000 C 
ATOM      8  C   UNL     1     110.743 126.792 138.305  0.00  0.00    +0.000 C 
ENDROOT
BRANCH   8  13
ATOM      9  O   UNL     1     111.662 125.987 137.187  0.00  0.00    +0.000 OA
ATOM     10  O   UNL     1     109.185 127.227 137.981  0.00  0.00    +0.000 OA
ATOM     11  O   UNL     1     109.400 126.059 135.381  0.00  0.00    +0.000 OA
ATOM     12  O   UNL     1     110.623 125.429 134.945  0.00  0.00    +0.000 OA
ATOM     13  C   UNL     1     110.408 126.609 137.574  0.00  0.00    +0.000 A 
ATOM     14  C   UNL     1     110.852 126.208 137.006  0.00  0.00    +0.000 A 
ATOM     15  C   UNL     1     109.629 126.826 137.412  0.00  0.00    +0.000 A 
ATOM     16  C   UNL     1     110.515 126.025 136.274  0.00  0.00    +0.000 A 
ATOM     17  C   UNL     1     109.293 126.643 136.680  0.00  0.00    +0.000 A 
ATOM     18  C   UNL     1     109.736 126.242 136.112  0.00  0.00    +0.000 A 
ATOM     19  C   UNL     1     110.967 125.608 135.673  0.00  0.00    +0.000 A 
ATOM     20  C   UNL     1     112.129 125.570 136.598  0.00  0.00    +0.000 A 
ATOM     21  C   UNL     1     111.779 125.379 135.836  0.00  0.00    +0.000 A 
BRANCH  20  23
ATOM     22  O   UNL     1     115.245 124.706 137.256  0.00  0.00    +0.000 OA
ATOM     23  C   UNL     1     112.908 125.353 136.763  0.00  0.00    +0.000 A 
ATOM     24  C   UNL     1     113.074 124.601 137.059  0.00  0.00    +0.000 A 
ATOM     25  C   UNL     1     113.521 125.889 136.631  0.00  0.00    +0.000 A 
ATOM     26  C   UNL     1     113.852 124.385 137.224  0.00  0.00    +0.000 A 
ATOM     27  C   UNL     1     114.300 125.674 136.796  0.00  0.00    +0.000 A 
ATOM     28  C   UNL     1     114.466 124.921 137.092  0.00  0.00    +0.000 A 
ENDBRANCH  20  23
ENDBRANCH   8  13
BRANCH   6  30
ATOM     29  O   UNL     1     112.291 128.729 138.564  0.00  0.00    +0.000 OA
ATOM     30  C   UNL     1     111.946 128.367 139.220  0.00  0.00    +0.000 C 
ENDBRANCH   6  30
BRANCH   4  31
ATOM     31  O   UNL     1     111.751 127.341 140.498  0.00  0.00    +0.000 OA
BRANCH  31  36
ATOM     32  O   UNL     1     110.510 127.904 140.930  0.00  0.00    +0.000 OA
ATOM     33  O   UNL     1     112.385 127.586 142.002  0.00  0.00    +0.000 OA
ATOM     34  O   UNL     1     111.462 128.271 143.185  0.00  0.00    +0.000 OA
ATOM     35  O   UNL     1     109.905 128.711 142.865  0.00  0.00    +0.000 OA
ATOM     36  C   UNL     1     111.289 127.683 141.089  0.00  0.00    +0.000 C 
ATOM     37  C   UNL     1     111.607 127.806 141.842  0.00  0.00    +0.000 C 
ATOM     38  C   UNL     1     111.144 128.149 142.433  0.00  0.00    +0.000 C 
ATOM     39  C   UNL     1     110.366 128.369 142.274  0.00  0.00    +0.000 C 
ATOM     40  C   UNL     1     110.049 128.246 141.521  0.00  0.00    +0.000 C 
BRANCH  40  42
ATOM     41  O   UNL     1     109.116 129.103 140.860  0.00  0.00    +0.000 OA
ATOM     42  C   UNL     1     109.271 128.467 141.361  0.00  0.00    +0.000 C 
ENDBRANCH  40  42
ENDBRANCH  31  36
ENDBRANCH   4  31
TORSDOF 6
ENDMDL
MODEL 7
REMARK VINA RESULT:      -9.8      7.850     10.335
REMARK  Name = 56776173
REMARK  6 active torsions:
REMARK  status: ('A' for Active; 'I' for Inactive)
REMARK    1  A    between atoms: O_1  and  C_16
REMARK    2  A    between atoms: O_1  and  C_21
REMARK    3  A    between atoms: C_18  and  C_26
REMARK    4  A    between atoms: C_20  and  C_27
REMARK    5  A    between atoms: C_25  and  C_28
REMARK    6  A    between atoms: C_35  and  C_37
REMARK                            x       y       z     vdW  Elec       q    Type
REMARK                         _______ _______ _______ _____ _____    ______ ____
ROOT
ATOM      1  O   UNL     1     110.402 127.388 138.287  0.00  0.00    +0.000 OA
ATOM      2  O   UNL     1     111.498 129.568 137.871  0.00  0.00    +0.000 OA
ATOM      3  O   UNL     1     110.905 128.688 136.607  0.00  0.00    +0.000 OA
ATOM      4  C   UNL     1     111.064 128.554 138.780  0.00  0.00    +0.000 C 
ATOM      5  C   UNL     1     111.132 128.841 138.009  0.00  0.00    +0.000 C 
ATOM      6  C   UNL     1     110.698 127.827 138.918  0.00  0.00    +0.000 C 
ATOM      7  C   UNL     1     110.836 128.401 137.378  0.00  0.00    +0.000 C 
ATOM      8  C   UNL     1     110.471 127.675 137.516  0.00  0.00    +0.000 C 
ENDROOT
BRANCH   8  13
ATOM      9  O   UNL     1     111.411 126.475 136.870  0.00  0.00    +0.000 OA
ATOM     10  O   UNL     1     108.967 127.999 136.919  0.00  0.00    +0.000 OA
ATOM     11  O   UNL     1     109.285 125.916 134.988  0.00  0.00    +0.000 OA
ATOM     12  O   UNL     1     110.494 125.130 134.930  0.00  0.00    +0.000 OA
ATOM     13  C   UNL     1     110.174 127.235 136.884  0.00  0.00    +0.000 A 
ATOM     14  C   UNL     1     110.630 126.634 136.551  0.00  0.00    +0.000 A 
ATOM     15  C   UNL     1     109.423 127.397 136.586  0.00  0.00    +0.000 A 
ATOM     16  C   UNL     1     110.333 126.194 135.918  0.00  0.00    +0.000 A 
ATOM     17  C   UNL     1     109.126 126.957 135.953  0.00  0.00    +0.000 A 
ATOM     18  C   UNL     1     109.581 126.356 135.620  0.00  0.00    +0.000 A 
ATOM     19  C   UNL     1     110.798 125.565 135.562  0.00  0.00    +0.000 A 
ATOM     20  C   UNL     1     111.891 125.850 136.527  0.00  0.00    +0.000 A 
ATOM     21  C   UNL     1     111.582 125.391 135.868  0.00  0.00    +0.000 A 
BRANCH  20  23
ATOM     22  O   UNL     1     114.897 125.210 137.729  0.00  0.00    +0.000 OA
ATOM     23  C   UNL     1     112.643 125.690 136.827  0.00  0.00    +0.000 A 
ATOM     24  C   UNL     1     113.298 126.100 136.538  0.00  0.00    +0.000 A 
ATOM     25  C   UNL     1     112.739 125.120 137.416  0.00  0.00    +0.000 A 
ATOM     26  C   UNL     1     114.050 125.940 136.839  0.00  0.00    +0.000 A 
ATOM     27  C   UNL     1     113.490 124.960 137.716  0.00  0.00    +0.000 A 
ATOM     28  C   UNL     1     114.146 125.370 137.428  0.00  0.00    +0.000 A 
ENDBRANCH  20  23
ENDBRANCH   8  13
BRANCH   6  30
ATOM     29  O   UNL     1     110.536 126.732 139.822  0.00  0.00    +0.000 OA
ATOM     30  C   UNL     1     110.629 127.541 139.689  0.00  0.00    +0.000 C 
ENDBRANCH   6  30
BRANCH   4  31
ATOM     31  O   UNL     1     111.360 128.994 139.412  0.00  0.00    +0.000 OA
BRANCH  31  36
ATOM     32  O   UNL     1     110.129 129.714 139.508  0.00  0.00    +0.000 OA
ATOM     33  O   UNL     1     112.067 130.064 140.451  0.00  0.00    +0.000 OA
ATOM     34  O   UNL     1     111.189 131.318 141.067  0.00  0.00    +0.000 OA
ATOM     35  O   UNL     1     109.606 131.502 140.644  0.00  0.00    +0.000 OA
ATOM     36  C   UNL     1     110.922 129.621 139.719  0.00  0.00    +0.000 C 
ATOM     37  C   UNL     1     111.275 130.156 140.240  0.00  0.00    +0.000 C 
ATOM     38  C   UNL     1     110.836 130.783 140.547  0.00  0.00    +0.000 C 
ATOM     39  C   UNL     1     110.044 130.875 140.336  0.00  0.00    +0.000 C 
ATOM     40  C   UNL     1     109.691 130.340 139.816  0.00  0.00    +0.000 C 
BRANCH  40  42
ATOM     41  O   UNL     1     108.337 129.884 139.859  0.00  0.00    +0.000 OA
ATOM     42  C   UNL     1     108.899 130.433 139.605  0.00  0.00    +0.000 C 
ENDBRANCH  40  42
ENDBRANCH  31  36
ENDBRANCH   4  31
TORSDOF 6
ENDMDL
MODEL 8
REMARK VINA RESULT:      -9.8      6.781      9.767
REMARK  Name = 56776173
REMARK  6 active torsions:
REMARK  status: ('A' for Active; 'I' for Inactive)
REMARK    1  A    between atoms: O_1  and  C_16
REMARK    2  A    between atoms: O_1  and  C_21
REMARK    3  A    between atoms: C_18  and  C_26
REMARK    4  A    between atoms: C_20  and  C_27
REMARK    5  A    between atoms: C_25  and  C_28
REMARK    6  A    between atoms: C_35  and  C_37
REMARK                            x       y       z     vdW  Elec       q    Type
REMARK                         _______ _______ _______ _____ _____    ______ ____
ROOT
ATOM      1  O   UNL     1     111.526 126.394 139.232  0.00  0.00    +0.000 OA
ATOM      2  O   UNL     1     111.248 128.837 138.947  0.00  0.00    +0.000 OA
ATOM      3  O   UNL     1     112.655 128.109 138.489  0.00  0.00    +0.000 OA
ATOM      4  C   UNL     1     110.730 127.573 139.366  0.00  0.00    +0.000 C 
ATOM      5  C   UNL     1     111.341 128.022 139.042  0.00  0.00    +0.000 C 
ATOM      6  C   UNL     1     110.823 126.758 139.461  0.00  0.00    +0.000 C 
ATOM      7  C   UNL     1     112.044 127.658 138.813  0.00  0.00    +0.000 C 
ATOM      8  C   UNL     1     112.137 126.844 138.908  0.00  0.00    +0.000 C 
ENDROOT
BRANCH   8  13
ATOM      9  O   UNL     1     112.214 126.128 137.417  0.00  0.00    +0.000 OA
ATOM     10  O   UNL     1     113.434 126.839 139.928  0.00  0.00    +0.000 OA
ATOM     11  O   UNL     1     114.953 125.387 137.991  0.00  0.00    +0.000 OA
ATOM     12  O   UNL     1     114.379 125.012 136.721  0.00  0.00    +0.000 OA
ATOM     13  C   UNL     1     112.841 126.480 138.679  0.00  0.00    +0.000 A 
ATOM     14  C   UNL     1     112.896 126.119 137.939  0.00  0.00    +0.000 A 
ATOM     15  C   UNL     1     113.489 126.477 139.188  0.00  0.00    +0.000 A 
ATOM     16  C   UNL     1     113.601 125.754 137.709  0.00  0.00    +0.000 A 
ATOM     17  C   UNL     1     114.194 126.113 138.959  0.00  0.00    +0.000 A 
ATOM     18  C   UNL     1     114.249 125.751 138.220  0.00  0.00    +0.000 A 
ATOM     19  C   UNL     1     113.671 125.374 136.942  0.00  0.00    +0.000 A 
ATOM     20  C   UNL     1     112.266 125.753 136.645  0.00  0.00    +0.000 A 
ATOM     21  C   UNL     1     112.999 125.373 136.406  0.00  0.00    +0.000 A 
BRANCH  20  23
ATOM     22  O   UNL     1     109.666 125.769 134.612  0.00  0.00    +0.000 OA
ATOM     23  C   UNL     1     111.616 125.757 136.136  0.00  0.00    +0.000 A 
ATOM     24  C   UNL     1     111.478 126.408 135.648  0.00  0.00    +0.000 A 
ATOM     25  C   UNL     1     111.104 125.111 136.116  0.00  0.00    +0.000 A 
ATOM     26  C   UNL     1     110.828 126.412 135.140  0.00  0.00    +0.000 A 
ATOM     27  C   UNL     1     110.455 125.114 135.609  0.00  0.00    +0.000 A 
ATOM     28  C   UNL     1     110.316 125.766 135.120  0.00  0.00    +0.000 A 
ENDBRANCH  20  23
ENDBRANCH   8  13
BRANCH   6  30
ATOM     29  O   UNL     1     110.231 125.486 139.732  0.00  0.00    +0.000 OA
ATOM     30  C   UNL     1     110.212 126.309 139.785  0.00  0.00    +0.000 C 
ENDBRANCH   6  30
BRANCH   4  31
ATOM     31  O   UNL     1     110.026 127.937 139.595  0.00  0.00    +0.000 OA
BRANCH  31  36
ATOM     32  O   UNL     1     110.550 128.203 140.898  0.00  0.00    +0.000 OA
ATOM     33  O   UNL     1     108.821 129.034 139.856  0.00  0.00    +0.000 OA
ATOM     34  O   UNL     1     108.742 129.849 141.288  0.00  0.00    +0.000 OA
ATOM     35  O   UNL     1     109.868 129.566 142.460  0.00  0.00    +0.000 OA
ATOM     36  C   UNL     1     109.987 128.344 140.311  0.00  0.00    +0.000 C 
ATOM     37  C   UNL     1     109.384 128.893 140.441  0.00  0.00    +0.000 C 
ATOM     38  C   UNL     1     109.345 129.300 141.158  0.00  0.00    +0.000 C 
ATOM     39  C   UNL     1     109.907 129.159 141.744  0.00  0.00    +0.000 C 
ATOM     40  C   UNL     1     110.510 128.610 141.614  0.00  0.00    +0.000 C 
BRANCH  40  42
ATOM     41  O   UNL     1     111.111 127.732 142.567  0.00  0.00    +0.000 OA
ATOM     42  C   UNL     1     111.073 128.469 142.200  0.00  0.00    +0.000 C 
ENDBRANCH  40  42
ENDBRANCH  31  36
ENDBRANCH   4  31
TORSDOF 6
ENDMDL
MODEL 9
REMARK VINA RESULT:      -9.7      7.293     11.009
REMARK  Name = 56776173
REMARK  6 active torsions:
REMARK  status: ('A' for Active; 'I' for Inactive)
REMARK    1  A    between atoms: O_1  and  C_16
REMARK    2  A    between atoms: O_1  and  C_21
REMARK    3  A    between atoms: C_18  and  C_26
REMARK    4  A    between atoms: C_20  and  C_27
REMARK    5  A    between atoms: C_25  and  C_28
REMARK    6  A    between atoms: C_35  and  C_37
REMARK                            x       y       z     vdW  Elec       q    Type
REMARK                         _______ _______ _______ _____ _____    ______ ____
ROOT
ATOM      1  O   UNL     1     113.530 128.841 139.221  0.00  0.00    +0.000 OA
ATOM      2  O   UNL     1     111.114 129.075 139.703  0.00  0.00    +0.000 OA
ATOM      3  O   UNL     1     111.765 129.814 138.380  0.00  0.00    +0.000 OA
ATOM      4  C   UNL     1     112.398 128.550 140.043  0.00  0.00    +0.000 C 
ATOM      5  C   UNL     1     111.920 128.997 139.542  0.00  0.00    +0.000 C 
ATOM      6  C   UNL     1     113.204 128.472 139.882  0.00  0.00    +0.000 C 
ATOM      7  C   UNL     1     112.245 129.366 138.881  0.00  0.00    +0.000 C 
ATOM      8  C   UNL     1     113.050 129.288 138.719  0.00  0.00    +0.000 C 
ENDROOT
BRANCH   8  13
ATOM      9  O   UNL     1     113.234 128.410 137.328  0.00  0.00    +0.000 OA
ATOM     10  O   UNL     1     113.505 130.873 138.799  0.00  0.00    +0.000 OA
ATOM     11  O   UNL     1     114.354 130.766 136.072  0.00  0.00    +0.000 OA
ATOM     12  O   UNL     1     114.235 129.552 135.300  0.00  0.00    +0.000 OA
ATOM     13  C   UNL     1     113.376 129.658 138.058  0.00  0.00    +0.000 A 
ATOM     14  C   UNL     1     113.474 129.234 137.356  0.00  0.00    +0.000 A 
ATOM     15  C   UNL     1     113.603 130.449 138.097  0.00  0.00    +0.000 A 
ATOM     16  C   UNL     1     113.801 129.604 136.694  0.00  0.00    +0.000 A 
ATOM     17  C   UNL     1     113.930 130.819 137.435  0.00  0.00    +0.000 A 
ATOM     18  C   UNL     1     114.028 130.396 136.734  0.00  0.00    +0.000 A 
ATOM     19  C   UNL     1     113.909 129.175 135.957  0.00  0.00    +0.000 A 
ATOM     20  C   UNL     1     113.334 127.964 136.599  0.00  0.00    +0.000 A 
ATOM     21  C   UNL     1     113.674 128.349 135.909  0.00  0.00    +0.000 A 
BRANCH  20  23
ATOM     22  O   UNL     1     112.422 124.797 136.452  0.00  0.00    +0.000 OA
ATOM     23  C   UNL     1     113.106 127.172 136.562  0.00  0.00    +0.000 A 
ATOM     24  C   UNL     1     112.333 126.975 136.352  0.00  0.00    +0.000 A 
ATOM     25  C   UNL     1     113.651 126.578 136.736  0.00  0.00    +0.000 A 
ATOM     26  C   UNL     1     112.104 126.183 136.315  0.00  0.00    +0.000 A 
ATOM     27  C   UNL     1     113.423 125.786 136.699  0.00  0.00    +0.000 A 
ATOM     28  C   UNL     1     112.649 125.588 136.488  0.00  0.00    +0.000 A 
ENDBRANCH  20  23
ENDBRANCH   8  13
BRANCH   6  30
ATOM     29  O   UNL     1     114.318 127.597 140.074  0.00  0.00    +0.000 OA
ATOM     30  C   UNL     1     113.683 128.025 140.383  0.00  0.00    +0.000 C 
ENDBRANCH   6  30
BRANCH   4  31
ATOM     31  O   UNL     1     112.072 128.180 140.705  0.00  0.00    +0.000 OA
BRANCH  31  36
ATOM     32  O   UNL     1     112.338 129.344 141.491  0.00  0.00    +0.000 OA
ATOM     33  O   UNL     1     111.266 127.506 141.977  0.00  0.00    +0.000 OA
ATOM     34  O   UNL     1     111.129 128.332 143.398  0.00  0.00    +0.000 OA
ATOM     35  O   UNL     1     111.798 129.832 143.548  0.00  0.00    +0.000 OA
ATOM     36  C   UNL     1     112.004 128.593 141.415  0.00  0.00    +0.000 C 
ATOM     37  C   UNL     1     111.600 128.255 142.052  0.00  0.00    +0.000 C 
ATOM     38  C   UNL     1     111.532 128.669 142.762  0.00  0.00    +0.000 C 
ATOM     39  C   UNL     1     111.866 129.419 142.838  0.00  0.00    +0.000 C 
ATOM     40  C   UNL     1     112.270 129.757 142.201  0.00  0.00    +0.000 C 
BRANCH  40  42
ATOM     41  O   UNL     1     112.256 131.154 141.901  0.00  0.00    +0.000 OA
ATOM     42  C   UNL     1     112.604 130.506 142.276  0.00  0.00    +0.000 C 
ENDBRANCH  40  42
ENDBRANCH  31  36
ENDBRANCH   4  31
TORSDOF 6
ENDMDL
MODEL 10
REMARK VINA RESULT:      -9.7      9.885     11.056
REMARK  Name = 56776173
REMARK  6 active torsions:
REMARK  status: ('A' for Active; 'I' for Inactive)
REMARK    1  A    between atoms: O_1  and  C_16
REMARK    2  A    between atoms: O_1  and  C_21
REMARK    3  A    between atoms: C_18  and  C_26
REMARK    4  A    between atoms: C_20  and  C_27
REMARK    5  A    between atoms: C_25  and  C_28
REMARK    6  A    between atoms: C_35  and  C_37
REMARK                            x       y       z     vdW  Elec       q    Type
REMARK                         _______ _______ _______ _____ _____    ______ ____
ROOT
ATOM      1  O   UNL     1     113.424 127.290 136.469  0.00  0.00    +0.000 OA
ATOM      2  O   UNL     1     112.944 128.276 138.688  0.00  0.00    +0.000 OA
ATOM      3  O   UNL     1     112.892 126.639 138.485  0.00  0.00    +0.000 OA
ATOM      4  C   UNL     1     113.290 128.437 137.311  0.00  0.00    +0.000 C 
ATOM      5  C   UNL     1     113.104 127.947 137.948  0.00  0.00    +0.000 C 
ATOM      6  C   UNL     1     113.450 128.107 136.571  0.00  0.00    +0.000 C 
ATOM      7  C   UNL     1     113.078 127.129 137.847  0.00  0.00    +0.000 C 
ATOM      8  C   UNL     1     113.238 126.800 137.108  0.00  0.00    +0.000 C 
ENDROOT
BRANCH   8  13
ATOM      9  O   UNL     1     111.835 126.109 136.563  0.00  0.00    +0.000 OA
ATOM     10  O   UNL     1     114.569 125.884 137.445  0.00  0.00    +0.000 OA
ATOM     11  O   UNL     1     113.135 123.527 136.700  0.00  0.00    +0.000 OA
ATOM     12  O   UNL     1     111.765 123.596 136.253  0.00  0.00    +0.000 OA
ATOM     13  C   UNL     1     113.212 125.982 137.006  0.00  0.00    +0.000 A 
ATOM     14  C   UNL     1     112.521 125.622 136.735  0.00  0.00    +0.000 A 
ATOM     15  C   UNL     1     113.877 125.525 137.174  0.00  0.00    +0.000 A 
ATOM     16  C   UNL     1     112.495 124.802 136.633  0.00  0.00    +0.000 A 
ATOM     17  C   UNL     1     113.852 124.705 137.072  0.00  0.00    +0.000 A 
ATOM     18  C   UNL     1     113.161 124.345 136.802  0.00  0.00    +0.000 A 
ATOM     19  C   UNL     1     111.782 124.415 136.352  0.00  0.00    +0.000 A 
ATOM     20  C   UNL     1     111.112 125.740 136.281  0.00  0.00    +0.000 A 
ATOM     21  C   UNL     1     111.085 124.887 136.175  0.00  0.00    +0.000 A 
BRANCH  20  23
ATOM     22  O   UNL     1     108.456 127.580 135.611  0.00  0.00    +0.000 OA
ATOM     23  C   UNL     1     110.448 126.200 136.113  0.00  0.00    +0.000 A 
ATOM     24  C   UNL     1     110.316 126.469 135.344  0.00  0.00    +0.000 A 
ATOM     25  C   UNL     1     109.916 126.391 136.714  0.00  0.00    +0.000 A 
ATOM     26  C   UNL     1     109.652 126.929 135.176  0.00  0.00    +0.000 A 
ATOM     27  C   UNL     1     109.253 126.851 136.547  0.00  0.00    +0.000 A 
ATOM     28  C   UNL     1     109.120 127.120 135.777  0.00  0.00    +0.000 A 
ENDBRANCH  20  23
ENDBRANCH   8  13
BRANCH   6  30
ATOM     29  O   UNL     1     114.240 128.387 135.414  0.00  0.00    +0.000 OA
ATOM     30  C   UNL     1     113.635 128.597 135.934  0.00  0.00    +0.000 C 
ENDBRANCH   6  30
BRANCH   4  31
ATOM     31  O   UNL     1     113.315 129.255 137.413  0.00  0.00    +0.000 OA
BRANCH  31  36
ATOM     32  O   UNL     1     112.012 129.563 136.913  0.00  0.00    +0.000 OA
ATOM     33  O   UNL     1     113.116 130.365 138.617  0.00  0.00    +0.000 OA
ATOM     34  O   UNL     1     111.713 131.228 138.720  0.00  0.00    +0.000 OA
ATOM     35  O   UNL     1     110.511 130.981 137.618  0.00  0.00    +0.000 OA
ATOM     36  C   UNL     1     112.614 129.686 137.464  0.00  0.00    +0.000 C 
ATOM     37  C   UNL     1     112.514 130.242 138.067  0.00  0.00    +0.000 C 
ATOM     38  C   UNL     1     111.813 130.673 138.118  0.00  0.00    +0.000 C 
ATOM     39  C   UNL     1     111.212 130.550 137.567  0.00  0.00    +0.000 C 
ATOM     40  C   UNL     1     111.312 129.994 136.964  0.00  0.00    +0.000 C 
BRANCH  40  42
ATOM     41  O   UNL     1     110.809 130.115 135.632  0.00  0.00    +0.000 OA
ATOM     42  C   UNL     1     110.710 129.870 136.414  0.00  0.00    +0.000 C 
ENDBRANCH  40  42
ENDBRANCH  31  36
ENDBRANCH   4  31
TORSDOF 6
ENDMDL
