MODEL 1
REMARK VINA RESULT:     -11.6      0.000      0.000
REMARK  Name = 5481979
REMARK  3 active torsions:
REMARK  status: ('A' for Active; 'I' for Inactive)
REMARK    1  A    between atoms: O_2  and  C_15
REMARK    2  A    between atoms: O_2  and  C_17
REMARK    3  A    between atoms: C_22  and  C_31
REMARK                            x       y       z     vdW  Elec       q    Type
REMARK                         _______ _______ _______ _____ _____    ______ ____
ROOT
ATOM      1  O   UNL     1     103.681 125.385 147.268  0.00  0.00    +0.000 OA
ATOM      2  O   UNL     1     102.257 123.113 146.118  0.00  0.00    +0.000 OA
ATOM      3  O   UNL     1     105.830 124.512 146.254  0.00  0.00    +0.000 OA
ATOM      4  O   UNL     1     105.092 123.402 145.701  0.00  0.00    +0.000 OA
ATOM      5  C   UNL     1     105.143 125.527 147.048  0.00  0.00    +0.000 A 
ATOM      6  C   UNL     1     101.522 123.401 146.458  0.00  0.00    +0.000 C 
ATOM      7  C   UNL     1     103.691 124.662 146.803  0.00  0.00    +0.000 A 
ATOM      8  C   UNL     1     104.393 124.380 146.474  0.00  0.00    +0.000 A 
ATOM      9  C   UNL     1     102.987 124.249 146.689  0.00  0.00    +0.000 A 
ATOM     10  C   UNL     1     104.412 125.820 147.391  0.00  0.00    +0.000 A 
ATOM     11  C   UNL     1     105.133 124.801 146.586  0.00  0.00    +0.000 A 
ATOM     12  C   UNL     1     102.984 123.553 146.245  0.00  0.00    +0.000 A 
ATOM     13  C   UNL     1     101.525 124.126 146.921  0.00  0.00    +0.000 C 
ATOM     14  C   UNL     1     102.262 124.553 147.037  0.00  0.00    +0.000 C 
ATOM     15  C   UNL     1     104.390 123.684 146.030  0.00  0.00    +0.000 A 
ATOM     16  C   UNL     1     103.686 123.271 145.916  0.00  0.00    +0.000 A 
ATOM     17  C   UNL     1     100.710 123.323 146.580  0.00  0.00    +0.000 C 
ATOM     18  C   UNL     1     101.116 122.760 146.134  0.00  0.00    +0.000 C 
ENDROOT
BRANCH  10  20
ATOM     19  O   UNL     1     104.409 128.601 149.168  0.00  0.00    +0.000 OA
ATOM     20  C   UNL     1     104.411 126.515 147.835  0.00  0.00    +0.000 A 
ATOM     21  C   UNL     1     104.489 127.245 147.459  0.00  0.00    +0.000 A 
ATOM     22  C   UNL     1     104.333 126.480 148.656  0.00  0.00    +0.000 A 
ATOM     23  C   UNL     1     104.488 127.940 147.903  0.00  0.00    +0.000 A 
ATOM     24  C   UNL     1     104.332 127.175 149.100  0.00  0.00    +0.000 A 
ATOM     25  C   UNL     1     104.410 127.905 148.724  0.00  0.00    +0.000 A 
ENDBRANCH  10  20
BRANCH   5  26
ATOM     26  O   UNL     1     105.849 125.938 147.161  0.00  0.00    +0.000 OA
BRANCH  26  35
ATOM     27  O   UNL     1     106.336 125.068 148.185  0.00  0.00    +0.000 OA
ATOM     28  O   UNL     1     108.658 125.502 147.449  0.00  0.00    +0.000 OA
ATOM     29  O   UNL     1     108.371 124.488 148.718  0.00  0.00    +0.000 OA
ATOM     30  O   UNL     1     107.397 126.227 146.671  0.00  0.00    +0.000 OA
ATOM     31  C   UNL     1     107.884 125.357 147.694  0.00  0.00    +0.000 C 
ATOM     32  C   UNL     1     107.741 124.850 148.329  0.00  0.00    +0.000 C 
ATOM     33  C   UNL     1     107.254 125.720 147.305  0.00  0.00    +0.000 C 
ATOM     34  C   UNL     1     106.966 124.705 148.575  0.00  0.00    +0.000 C 
ATOM     35  C   UNL     1     106.479 125.575 147.551  0.00  0.00    +0.000 C 
ATOM     36  C   UNL     1     106.823 124.198 149.209  0.00  0.00    +0.000 C 
ENDBRANCH  26  35
ENDBRANCH   5  26
TORSDOF 3
ENDMDL
MODEL 2
REMARK VINA RESULT:     -10.9     12.175     13.759
REMARK  Name = 5481979
REMARK  3 active torsions:
REMARK  status: ('A' for Active; 'I' for Inactive)
REMARK    1  A    between atoms: O_2  and  C_15
REMARK    2  A    between atoms: O_2  and  C_17
REMARK    3  A    between atoms: C_22  and  C_31
REMARK                            x       y       z     vdW  Elec       q    Type
REMARK                         _______ _______ _______ _____ _____    ______ ____
ROOT
ATOM      1  O   UNL     1     112.239 127.290 136.114  0.00  0.00    +0.000 OA
ATOM      2  O   UNL     1     111.700 124.433 136.345  0.00  0.00    +0.000 OA
ATOM      3  O   UNL     1     109.875 127.638 135.278  0.00  0.00    +0.000 OA
ATOM      4  O   UNL     1     109.645 126.219 135.405  0.00  0.00    +0.000 OA
ATOM      5  C   UNL     1     111.174 128.205 135.629  0.00  0.00    +0.000 A 
ATOM      6  C   UNL     1     112.501 124.304 136.629  0.00  0.00    +0.000 C 
ATOM      7  C   UNL     1     111.697 126.629 136.028  0.00  0.00    +0.000 A 
ATOM      8  C   UNL     1     110.927 126.746 135.756  0.00  0.00    +0.000 A 
ATOM      9  C   UNL     1     111.955 125.871 136.223  0.00  0.00    +0.000 A 
ATOM     10  C   UNL     1     111.976 128.083 135.913  0.00  0.00    +0.000 A 
ATOM     11  C   UNL     1     110.646 127.531 135.550  0.00  0.00    +0.000 A 
ATOM     12  C   UNL     1     111.443 125.228 136.145  0.00  0.00    +0.000 A 
ATOM     13  C   UNL     1     113.034 124.973 136.710  0.00  0.00    +0.000 C 
ATOM     14  C   UNL     1     112.759 125.762 136.506  0.00  0.00    +0.000 C 
ATOM     15  C   UNL     1     110.415 126.103 135.678  0.00  0.00    +0.000 A 
ATOM     16  C   UNL     1     110.673 125.344 135.873  0.00  0.00    +0.000 A 
ATOM     17  C   UNL     1     113.092 123.797 136.899  0.00  0.00    +0.000 C 
ATOM     18  C   UNL     1     112.352 123.496 136.696  0.00  0.00    +0.000 C 
ENDROOT
BRANCH  10  20
ATOM     19  O   UNL     1     114.032 130.645 136.229  0.00  0.00    +0.000 OA
ATOM     20  C   UNL     1     112.490 128.724 135.992  0.00  0.00    +0.000 A 
ATOM     21  C   UNL     1     112.836 129.059 135.322  0.00  0.00    +0.000 A 
ATOM     22  C   UNL     1     112.658 129.028 136.740  0.00  0.00    +0.000 A 
ATOM     23  C   UNL     1     113.350 129.700 135.401  0.00  0.00    +0.000 A 
ATOM     24  C   UNL     1     113.172 129.668 136.819  0.00  0.00    +0.000 A 
ATOM     25  C   UNL     1     113.518 130.004 136.149  0.00  0.00    +0.000 A 
ENDBRANCH  10  20
BRANCH   5  26
ATOM     26  O   UNL     1     110.913 128.963 135.433  0.00  0.00    +0.000 OA
BRANCH  26  35
ATOM     27  O   UNL     1     110.160 129.148 136.634  0.00  0.00    +0.000 OA
ATOM     28  O   UNL     1     108.545 130.561 135.402  0.00  0.00    +0.000 OA
ATOM     29  O   UNL     1     108.331 130.275 137.013  0.00  0.00    +0.000 OA
ATOM     30  O   UNL     1     109.837 129.904 134.613  0.00  0.00    +0.000 OA
ATOM     31  C   UNL     1     109.084 130.090 135.813  0.00  0.00    +0.000 C 
ATOM     32  C   UNL     1     108.976 129.947 136.619  0.00  0.00    +0.000 C 
ATOM     33  C   UNL     1     109.729 129.762 135.418  0.00  0.00    +0.000 C 
ATOM     34  C   UNL     1     109.514 129.476 137.029  0.00  0.00    +0.000 C 
ATOM     35  C   UNL     1     110.267 129.291 135.829  0.00  0.00    +0.000 C 
ATOM     36  C   UNL     1     109.407 129.333 137.834  0.00  0.00    +0.000 C 
ENDBRANCH  26  35
ENDBRANCH   5  26
TORSDOF 3
ENDMDL
MODEL 3
REMARK VINA RESULT:     -10.6     12.597     14.377
REMARK  Name = 5481979
REMARK  3 active torsions:
REMARK  status: ('A' for Active; 'I' for Inactive)
REMARK    1  A    between atoms: O_2  and  C_15
REMARK    2  A    between atoms: O_2  and  C_17
REMARK    3  A    between atoms: C_22  and  C_31
REMARK                            x       y       z     vdW  Elec       q    Type
REMARK                         _______ _______ _______ _____ _____    ______ ____
ROOT
ATOM      1  O   UNL     1     113.684 127.940 136.195  0.00  0.00    +0.000 OA
ATOM      2  O   UNL     1     113.165 125.229 137.138  0.00  0.00    +0.000 OA
ATOM      3  O   UNL     1     111.279 128.545 136.704  0.00  0.00    +0.000 OA
ATOM      4  O   UNL     1     111.060 127.194 137.162  0.00  0.00    +0.000 OA
ATOM      5  C   UNL     1     112.593 128.948 136.211  0.00  0.00    +0.000 A 
ATOM      6  C   UNL     1     113.980 125.013 136.969  0.00  0.00    +0.000 C 
ATOM      7  C   UNL     1     113.140 127.360 136.521  0.00  0.00    +0.000 A 
ATOM      8  C   UNL     1     112.356 127.560 136.685  0.00  0.00    +0.000 A 
ATOM      9  C   UNL     1     113.410 126.595 136.668  0.00  0.00    +0.000 A 
ATOM     10  C   UNL     1     113.409 128.739 136.040  0.00  0.00    +0.000 A 
ATOM     11  C   UNL     1     112.063 128.354 136.536  0.00  0.00    +0.000 A 
ATOM     12  C   UNL     1     112.897 126.029 136.980  0.00  0.00    +0.000 A 
ATOM     13  C   UNL     1     114.515 125.602 136.644  0.00  0.00    +0.000 C 
ATOM     14  C   UNL     1     114.228 126.399 136.492  0.00  0.00    +0.000 C 
ATOM     15  C   UNL     1     111.843 126.995 136.997  0.00  0.00    +0.000 A 
ATOM     16  C   UNL     1     112.113 126.229 137.145  0.00  0.00    +0.000 A 
ATOM     17  C   UNL     1     114.586 124.454 136.960  0.00  0.00    +0.000 C 
ATOM     18  C   UNL     1     113.836 124.246 137.235  0.00  0.00    +0.000 C 
ENDROOT
BRANCH  10  20
ATOM     19  O   UNL     1     115.472 130.991 134.791  0.00  0.00    +0.000 OA
ATOM     20  C   UNL     1     113.925 129.302 135.727  0.00  0.00    +0.000 A 
ATOM     21  C   UNL     1     113.894 129.489 134.924  0.00  0.00    +0.000 A 
ATOM     22  C   UNL     1     114.471 129.678 136.218  0.00  0.00    +0.000 A 
ATOM     23  C   UNL     1     114.410 130.052 134.612  0.00  0.00    +0.000 A 
ATOM     24  C   UNL     1     114.987 130.242 135.906  0.00  0.00    +0.000 A 
ATOM     25  C   UNL     1     114.956 130.428 135.103  0.00  0.00    +0.000 A 
ENDBRANCH  10  20
BRANCH   5  26
ATOM     26  O   UNL     1     112.321 129.712 136.065  0.00  0.00    +0.000 OA
BRANCH  26  35
ATOM     27  O   UNL     1     112.361 130.110 137.436  0.00  0.00    +0.000 OA
ATOM     28  O   UNL     1     110.481 131.669 137.039  0.00  0.00    +0.000 OA
ATOM     29  O   UNL     1     111.147 131.547 138.543  0.00  0.00    +0.000 OA
ATOM     30  O   UNL     1     111.068 130.751 135.800  0.00  0.00    +0.000 OA
ATOM     31  C   UNL     1     111.108 131.149 137.172  0.00  0.00    +0.000 C 
ATOM     32  C   UNL     1     111.441 131.089 137.924  0.00  0.00    +0.000 C 
ATOM     33  C   UNL     1     111.401 130.691 136.552  0.00  0.00    +0.000 C 
ATOM     34  C   UNL     1     112.067 130.569 138.057  0.00  0.00    +0.000 C 
ATOM     35  C   UNL     1     112.028 130.171 136.685  0.00  0.00    +0.000 C 
ATOM     36  C   UNL     1     112.400 130.508 138.808  0.00  0.00    +0.000 C 
ENDBRANCH  26  35
ENDBRANCH   5  26
TORSDOF 3
ENDMDL
MODEL 4
REMARK VINA RESULT:     -10.5     11.530     13.769
REMARK  Name = 5481979
REMARK  3 active torsions:
REMARK  status: ('A' for Active; 'I' for Inactive)
REMARK    1  A    between atoms: O_2  and  C_15
REMARK    2  A    between atoms: O_2  and  C_17
REMARK    3  A    between atoms: C_22  and  C_31
REMARK                            x       y       z     vdW  Elec       q    Type
REMARK                         _______ _______ _______ _____ _____    ______ ____
ROOT
ATOM      1  O   UNL     1     113.435 127.310 136.732  0.00  0.00    +0.000 OA
ATOM      2  O   UNL     1     113.966 130.087 136.016  0.00  0.00    +0.000 OA
ATOM      3  O   UNL     1     111.944 128.111 138.615  0.00  0.00    +0.000 OA
ATOM      4  O   UNL     1     112.230 129.472 138.231  0.00  0.00    +0.000 OA
ATOM      5  C   UNL     1     112.539 127.001 137.876  0.00  0.00    +0.000 A 
ATOM      6  C   UNL     1     114.474 129.825 135.374  0.00  0.00    +0.000 C 
ATOM      7  C   UNL     1     113.313 128.148 136.875  0.00  0.00    +0.000 A 
ATOM      8  C   UNL     1     112.827 128.406 137.490  0.00  0.00    +0.000 A 
ATOM      9  C   UNL     1     113.690 128.697 136.389  0.00  0.00    +0.000 A 
ATOM     10  C   UNL     1     113.046 126.733 137.236  0.00  0.00    +0.000 A 
ATOM     11  C   UNL     1     112.429 127.844 138.003  0.00  0.00    +0.000 A 
ATOM     12  C   UNL     1     113.580 129.505 136.516  0.00  0.00    +0.000 A 
ATOM     13  C   UNL     1     114.589 128.984 135.242  0.00  0.00    +0.000 C 
ATOM     14  C   UNL     1     114.194 128.416 135.752  0.00  0.00    +0.000 C 
ATOM     15  C   UNL     1     112.717 129.214 137.617  0.00  0.00    +0.000 A 
ATOM     16  C   UNL     1     113.093 129.763 137.130  0.00  0.00    +0.000 A 
ATOM     17  C   UNL     1     114.972 129.996 134.740  0.00  0.00    +0.000 C 
ATOM     18  C   UNL     1     114.626 130.610 135.170  0.00  0.00    +0.000 C 
ENDROOT
BRANCH  10  20
ATOM     19  O   UNL     1     113.494 123.504 136.716  0.00  0.00    +0.000 OA
ATOM     20  C   UNL     1     113.158 125.925 137.106  0.00  0.00    +0.000 A 
ATOM     21  C   UNL     1     113.663 125.495 137.596  0.00  0.00    +0.000 A 
ATOM     22  C   UNL     1     112.765 125.549 136.485  0.00  0.00    +0.000 A 
ATOM     23  C   UNL     1     113.775 124.688 137.466  0.00  0.00    +0.000 A 
ATOM     24  C   UNL     1     112.877 124.742 136.355  0.00  0.00    +0.000 A 
ATOM     25  C   UNL     1     113.382 124.312 136.846  0.00  0.00    +0.000 A 
ENDBRANCH  10  20
BRANCH   5  26
ATOM     26  O   UNL     1     112.161 126.454 138.364  0.00  0.00    +0.000 OA
BRANCH  26  35
ATOM     27  O   UNL     1     110.892 126.632 137.733  0.00  0.00    +0.000 OA
ATOM     28  O   UNL     1     109.757 125.960 139.826  0.00  0.00    +0.000 OA
ATOM     29  O   UNL     1     108.866 126.362 138.496  0.00  0.00    +0.000 OA
ATOM     30  O   UNL     1     111.405 126.006 139.759  0.00  0.00    +0.000 OA
ATOM     31  C   UNL     1     110.135 126.184 139.128  0.00  0.00    +0.000 C 
ATOM     32  C   UNL     1     109.689 126.385 138.463  0.00  0.00    +0.000 C 
ATOM     33  C   UNL     1     110.959 126.207 139.095  0.00  0.00    +0.000 C 
ATOM     34  C   UNL     1     110.068 126.609 137.765  0.00  0.00    +0.000 C 
ATOM     35  C   UNL     1     111.337 126.431 138.397  0.00  0.00    +0.000 C 
ATOM     36  C   UNL     1     109.622 126.810 137.101  0.00  0.00    +0.000 C 
ENDBRANCH  26  35
ENDBRANCH   5  26
TORSDOF 3
ENDMDL
MODEL 5
REMARK VINA RESULT:     -10.5      1.577      2.765
REMARK  Name = 5481979
REMARK  3 active torsions:
REMARK  status: ('A' for Active; 'I' for Inactive)
REMARK    1  A    between atoms: O_2  and  C_15
REMARK    2  A    between atoms: O_2  and  C_17
REMARK    3  A    between atoms: C_22  and  C_31
REMARK                            x       y       z     vdW  Elec       q    Type
REMARK                         _______ _______ _______ _____ _____    ______ ____
ROOT
ATOM      1  O   UNL     1     104.333 124.275 148.098  0.00  0.00    +0.000 OA
ATOM      2  O   UNL     1     101.560 123.405 147.848  0.00  0.00    +0.000 OA
ATOM      3  O   UNL     1     104.493 124.388 145.574  0.00  0.00    +0.000 OA
ATOM      4  O   UNL     1     103.119 123.956 145.490  0.00  0.00    +0.000 OA
ATOM      5  C   UNL     1     105.130 124.557 146.877  0.00  0.00    +0.000 A 
ATOM      6  C   UNL     1     101.495 123.363 148.705  0.00  0.00    +0.000 C 
ATOM      7  C   UNL     1     103.661 124.075 147.601  0.00  0.00    +0.000 A 
ATOM      8  C   UNL     1     103.716 124.113 146.779  0.00  0.00    +0.000 A 
ATOM      9  C   UNL     1     102.954 123.843 147.957  0.00  0.00    +0.000 A 
ATOM     10  C   UNL     1     105.072 124.517 147.734  0.00  0.00    +0.000 A 
ATOM     11  C   UNL     1     104.447 124.353 146.397  0.00  0.00    +0.000 A 
ATOM     12  C   UNL     1     102.302 123.648 147.490  0.00  0.00    +0.000 A 
ATOM     13  C   UNL     1     102.175 123.566 149.191  0.00  0.00    +0.000 C 
ATOM     14  C   UNL     1     102.909 123.807 148.814  0.00  0.00    +0.000 C 
ATOM     15  C   UNL     1     103.064 123.918 146.312  0.00  0.00    +0.000 A 
ATOM     16  C   UNL     1     102.357 123.686 146.668  0.00  0.00    +0.000 A 
ATOM     17  C   UNL     1     101.053 123.207 149.383  0.00  0.00    +0.000 C 
ATOM     18  C   UNL     1     100.711 123.117 148.637  0.00  0.00    +0.000 C 
ENDROOT
BRANCH  10  20
ATOM     19  O   UNL     1     107.674 125.292 149.611  0.00  0.00    +0.000 OA
ATOM     20  C   UNL     1     105.723 124.711 148.203  0.00  0.00    +0.000 A 
ATOM     21  C   UNL     1     106.367 124.198 148.246  0.00  0.00    +0.000 A 
ATOM     22  C   UNL     1     105.728 125.417 148.629  0.00  0.00    +0.000 A 
ATOM     23  C   UNL     1     107.018 124.392 148.716  0.00  0.00    +0.000 A 
ATOM     24  C   UNL     1     106.379 125.611 149.098  0.00  0.00    +0.000 A 
ATOM     25  C   UNL     1     107.023 125.098 149.142  0.00  0.00    +0.000 A 
ENDBRANCH  10  20
BRANCH   5  26
ATOM     26  O   UNL     1     105.836 124.789 146.519  0.00  0.00    +0.000 OA
BRANCH  26  35
ATOM     27  O   UNL     1     105.394 126.114 146.216  0.00  0.00    +0.000 OA
ATOM     28  O   UNL     1     106.811 126.122 144.187  0.00  0.00    +0.000 OA
ATOM     29  O   UNL     1     105.896 127.444 144.561  0.00  0.00    +0.000 OA
ATOM     30  O   UNL     1     106.781 124.795 145.167  0.00  0.00    +0.000 OA
ATOM     31  C   UNL     1     106.338 126.119 144.864  0.00  0.00    +0.000 C 
ATOM     32  C   UNL     1     105.881 126.781 145.050  0.00  0.00    +0.000 C 
ATOM     33  C   UNL     1     106.323 125.456 145.353  0.00  0.00    +0.000 C 
ATOM     34  C   UNL     1     105.409 126.778 145.726  0.00  0.00    +0.000 C 
ATOM     35  C   UNL     1     105.851 125.453 146.029  0.00  0.00    +0.000 C 
ATOM     36  C   UNL     1     104.952 127.438 145.913  0.00  0.00    +0.000 C 
ENDBRANCH  26  35
ENDBRANCH   5  26
TORSDOF 3
ENDMDL
MODEL 6
REMARK VINA RESULT:     -10.5     11.700     13.917
REMARK  Name = 5481979
REMARK  3 active torsions:
REMARK  status: ('A' for Active; 'I' for Inactive)
REMARK    1  A    between atoms: O_2  and  C_15
REMARK    2  A    between atoms: O_2  and  C_17
REMARK    3  A    between atoms: C_22  and  C_31
REMARK                            x       y       z     vdW  Elec       q    Type
REMARK                         _______ _______ _______ _____ _____    ______ ____
ROOT
ATOM      1  O   UNL     1     113.556 127.658 136.525  0.00  0.00    +0.000 OA
ATOM      2  O   UNL     1     114.297 130.408 135.894  0.00  0.00    +0.000 OA
ATOM      3  O   UNL     1     112.133 128.511 138.437  0.00  0.00    +0.000 OA
ATOM      4  O   UNL     1     112.521 129.858 138.095  0.00  0.00    +0.000 OA
ATOM      5  C   UNL     1     112.641 127.382 137.661  0.00  0.00    +0.000 A 
ATOM      6  C   UNL     1     114.783 130.128 135.243  0.00  0.00    +0.000 C 
ATOM      7  C   UNL     1     113.498 128.498 136.695  0.00  0.00    +0.000 A 
ATOM      8  C   UNL     1     113.034 128.773 137.318  0.00  0.00    +0.000 A 
ATOM      9  C   UNL     1     113.915 129.032 136.224  0.00  0.00    +0.000 A 
ATOM     10  C   UNL     1     113.125 127.097 137.012  0.00  0.00    +0.000 A 
ATOM     11  C   UNL     1     112.595 128.227 137.816  0.00  0.00    +0.000 A 
ATOM     12  C   UNL     1     113.867 129.841 136.377  0.00  0.00    +0.000 A 
ATOM     13  C   UNL     1     114.833 129.285 135.084  0.00  0.00    +0.000 C 
ATOM     14  C   UNL     1     114.396 128.733 135.578  0.00  0.00    +0.000 C 
ATOM     15  C   UNL     1     112.986 129.583 137.471  0.00  0.00    +0.000 A 
ATOM     16  C   UNL     1     113.403 130.117 137.000  0.00  0.00    +0.000 A 
ATOM     17  C   UNL     1     115.291 130.281 134.612  0.00  0.00    +0.000 C 
ATOM     18  C   UNL     1     114.994 130.905 135.062  0.00  0.00    +0.000 C 
ENDROOT
BRANCH  10  20
ATOM     19  O   UNL     1     113.325 123.862 136.390  0.00  0.00    +0.000 OA
ATOM     20  C   UNL     1     113.175 126.288 136.856  0.00  0.00    +0.000 A 
ATOM     21  C   UNL     1     112.540 125.896 136.505  0.00  0.00    +0.000 A 
ATOM     22  C   UNL     1     113.860 125.872 137.052  0.00  0.00    +0.000 A 
ATOM     23  C   UNL     1     112.590 125.087 136.349  0.00  0.00    +0.000 A 
ATOM     24  C   UNL     1     113.910 125.063 136.896  0.00  0.00    +0.000 A 
ATOM     25  C   UNL     1     113.274 124.671 136.545  0.00  0.00    +0.000 A 
ENDBRANCH  10  20
BRANCH   5  26
ATOM     26  O   UNL     1     112.223 126.851 138.134  0.00  0.00    +0.000 OA
BRANCH  26  35
ATOM     27  O   UNL     1     113.134 126.976 139.228  0.00  0.00    +0.000 OA
ATOM     28  O   UNL     1     111.333 126.342 140.801  0.00  0.00    +0.000 OA
ATOM     29  O   UNL     1     112.845 126.678 141.370  0.00  0.00    +0.000 OA
ATOM     30  O   UNL     1     111.022 126.428 139.182  0.00  0.00    +0.000 OA
ATOM     31  C   UNL     1     111.933 126.553 140.276  0.00  0.00    +0.000 C 
ATOM     32  C   UNL     1     112.689 126.722 140.561  0.00  0.00    +0.000 C 
ATOM     33  C   UNL     1     111.778 126.596 139.468  0.00  0.00    +0.000 C 
ATOM     34  C   UNL     1     113.290 126.933 140.037  0.00  0.00    +0.000 C 
ATOM     35  C   UNL     1     112.379 126.808 138.943  0.00  0.00    +0.000 C 
ATOM     36  C   UNL     1     114.045 127.101 140.321  0.00  0.00    +0.000 C 
ENDBRANCH  26  35
ENDBRANCH   5  26
TORSDOF 3
ENDMDL
