MODEL 1
REMARK VINA RESULT:      -9.4      0.000      0.000
REMARK  Name = 5318717
REMARK  4 active torsions:
REMARK  status: ('A' for Active; 'I' for Inactive)
REMARK    1  A    between atoms: O_2  and  C_14
REMARK    2  A    between atoms: O_2  and  C_16
REMARK    3  A    between atoms: C_13  and  C_15
REMARK    4  A    between atoms: C_17  and  C_21
REMARK                            x       y       z     vdW  Elec       q    Type
REMARK                         _______ _______ _______ _____ _____    ______ ____
ROOT
ATOM      1  O   UNL     1     105.640 124.421 147.703  0.00  0.00    +0.000 OA
ATOM      2  O   UNL     1     107.063 125.635 146.083  0.00  0.00    +0.000 OA
ATOM      3  O   UNL     1     108.174 125.617 147.005  0.00  0.00    +0.000 OA
ATOM      4  O   UNL     1     107.837 124.347 149.612  0.00  0.00    +0.000 OA
ATOM      5  C   UNL     1     105.809 125.043 146.428  0.00  0.00    +0.000 A 
ATOM      6  C   UNL     1     105.334 124.639 146.968  0.00  0.00    +0.000 A 
ATOM      7  C   UNL     1     106.589 125.230 146.623  0.00  0.00    +0.000 A 
ATOM      8  C   UNL     1     106.893 125.012 147.359  0.00  0.00    +0.000 A 
ATOM      9  C   UNL     1     106.418 124.607 147.898  0.00  0.00    +0.000 A 
ATOM     10  C   UNL     1     107.707 125.212 147.551  0.00  0.00    +0.000 A 
ATOM     11  C   UNL     1     106.725 124.374 148.667  0.00  0.00    +0.000 A 
ATOM     12  C   UNL     1     108.030 124.988 148.314  0.00  0.00    +0.000 A 
ATOM     13  C   UNL     1     107.535 124.566 148.876  0.00  0.00    +0.000 A 
ENDROOT
BRANCH   6  15
ATOM     14  O   UNL     1     102.216 123.892 146.186  0.00  0.00    +0.000 OA
ATOM     15  C   UNL     1     104.555 124.452 146.773  0.00  0.00    +0.000 A 
ATOM     16  C   UNL     1     104.398 123.850 146.230  0.00  0.00    +0.000 A 
ATOM     17  C   UNL     1     103.933 124.867 147.119  0.00  0.00    +0.000 A 
ATOM     18  C   UNL     1     103.619 123.664 146.035  0.00  0.00    +0.000 A 
ATOM     19  C   UNL     1     103.152 124.681 146.924  0.00  0.00    +0.000 A 
ATOM     20  C   UNL     1     102.996 124.079 146.382  0.00  0.00    +0.000 A 
ENDBRANCH   6  15
BRANCH   5  21
ATOM     21  O   UNL     1     105.505 125.262 145.693  0.00  0.00    +0.000 OA
BRANCH  21  28
ATOM     22  O   UNL     1     105.371 126.694 145.995  0.00  0.00    +0.000 OA
ATOM     23  O   UNL     1     105.506 127.701 144.117  0.00  0.00    +0.000 OA
ATOM     24  O   UNL     1     105.642 125.914 144.027  0.00  0.00    +0.000 OA
ATOM     25  C   UNL     1     105.473 127.179 144.755  0.00  0.00    +0.000 C 
ATOM     26  C   UNL     1     105.535 126.358 144.713  0.00  0.00    +0.000 C 
ATOM     27  C   UNL     1     105.372 127.387 145.547  0.00  0.00    +0.000 C 
ATOM     28  C   UNL     1     105.472 126.058 145.480  0.00  0.00    +0.000 C 
BRANCH  27  30
ATOM     29  O   UNL     1     105.016 128.274 146.609  0.00  0.00    +0.000 OA
ATOM     30  C   UNL     1     105.285 128.154 145.840  0.00  0.00    +0.000 C 
ENDBRANCH  27  30
ENDBRANCH  21  28
ENDBRANCH   5  21
TORSDOF 4
ENDMDL
MODEL 2
REMARK VINA RESULT:      -8.9     10.021     11.718
REMARK  Name = 5318717
REMARK  4 active torsions:
REMARK  status: ('A' for Active; 'I' for Inactive)
REMARK    1  A    between atoms: O_2  and  C_14
REMARK    2  A    between atoms: O_2  and  C_16
REMARK    3  A    between atoms: C_13  and  C_15
REMARK    4  A    between atoms: C_17  and  C_21
REMARK                            x       y       z     vdW  Elec       q    Type
REMARK                         _______ _______ _______ _____ _____    ______ ____
ROOT
ATOM      1  O   UNL     1     113.508 126.250 138.633  0.00  0.00    +0.000 OA
ATOM      2  O   UNL     1     111.190 125.432 138.344  0.00  0.00    +0.000 OA
ATOM      3  O   UNL     1     110.798 126.014 139.605  0.00  0.00    +0.000 OA
ATOM      4  O   UNL     1     112.789 127.449 141.187  0.00  0.00    +0.000 OA
ATOM      5  C   UNL     1     112.531 125.548 137.862  0.00  0.00    +0.000 A 
ATOM      6  C   UNL     1     113.303 125.821 137.958  0.00  0.00    +0.000 A 
ATOM      7  C   UNL     1     111.963 125.704 138.440  0.00  0.00    +0.000 A 
ATOM      8  C   UNL     1     112.168 126.134 139.115  0.00  0.00    +0.000 A 
ATOM      9  C   UNL     1     112.941 126.406 139.211  0.00  0.00    +0.000 A 
ATOM     10  C   UNL     1     111.568 126.290 139.710  0.00  0.00    +0.000 A 
ATOM     11  C   UNL     1     113.167 126.854 139.909  0.00  0.00    +0.000 A 
ATOM     12  C   UNL     1     111.776 126.736 140.414  0.00  0.00    +0.000 A 
ATOM     13  C   UNL     1     112.581 127.020 140.514  0.00  0.00    +0.000 A 
ENDROOT
BRANCH   6  15
ATOM     14  O   UNL     1     115.573 125.194 135.646  0.00  0.00    +0.000 OA
ATOM     15  C   UNL     1     113.870 125.665 137.381  0.00  0.00    +0.000 A 
ATOM     16  C   UNL     1     114.091 126.255 136.848  0.00  0.00    +0.000 A 
ATOM     17  C   UNL     1     114.217 124.917 137.335  0.00  0.00    +0.000 A 
ATOM     18  C   UNL     1     114.658 126.098 136.271  0.00  0.00    +0.000 A 
ATOM     19  C   UNL     1     114.784 124.760 136.756  0.00  0.00    +0.000 A 
ATOM     20  C   UNL     1     115.005 125.351 136.224  0.00  0.00    +0.000 A 
ENDBRANCH   6  15
BRANCH   5  21
ATOM     21  O   UNL     1     112.325 125.119 137.189  0.00  0.00    +0.000 OA
BRANCH  21  28
ATOM     22  O   UNL     1     111.549 126.204 136.569  0.00  0.00    +0.000 OA
ATOM     23  O   UNL     1     110.219 125.258 135.193  0.00  0.00    +0.000 OA
ATOM     24  O   UNL     1     111.294 124.139 136.094  0.00  0.00    +0.000 OA
ATOM     25  C   UNL     1     110.783 125.474 135.756  0.00  0.00    +0.000 C 
ATOM     26  C   UNL     1     111.277 124.960 136.170  0.00  0.00    +0.000 C 
ATOM     27  C   UNL     1     110.951 126.243 136.003  0.00  0.00    +0.000 C 
ATOM     28  C   UNL     1     111.750 125.411 136.673  0.00  0.00    +0.000 C 
BRANCH  27  30
ATOM     29  O   UNL     1     110.982 127.652 135.769  0.00  0.00    +0.000 OA
ATOM     30  C   UNL     1     110.585 126.931 135.731  0.00  0.00    +0.000 C 
ENDBRANCH  27  30
ENDBRANCH  21  28
ENDBRANCH   5  21
TORSDOF 4
ENDMDL
MODEL 3
REMARK VINA RESULT:      -8.9      1.481      3.947
REMARK  Name = 5318717
REMARK  4 active torsions:
REMARK  status: ('A' for Active; 'I' for Inactive)
REMARK    1  A    between atoms: O_2  and  C_14
REMARK    2  A    between atoms: O_2  and  C_16
REMARK    3  A    between atoms: C_13  and  C_15
REMARK    4  A    between atoms: C_17  and  C_21
REMARK                            x       y       z     vdW  Elec       q    Type
REMARK                         _______ _______ _______ _____ _____    ______ ____
ROOT
ATOM      1  O   UNL     1     103.748 125.601 147.445  0.00  0.00    +0.000 OA
ATOM      2  O   UNL     1     105.700 124.599 146.301  0.00  0.00    +0.000 OA
ATOM      3  O   UNL     1     104.898 123.490 145.844  0.00  0.00    +0.000 OA
ATOM      4  O   UNL     1     102.068 123.395 146.558  0.00  0.00    +0.000 OA
ATOM      5  C   UNL     1     105.132 125.644 147.094  0.00  0.00    +0.000 A 
ATOM      6  C   UNL     1     104.481 125.978 147.475  0.00  0.00    +0.000 A 
ATOM      7  C   UNL     1     105.050 124.934 146.683  0.00  0.00    +0.000 A 
ATOM      8  C   UNL     1     104.315 124.557 146.653  0.00  0.00    +0.000 A 
ATOM      9  C   UNL     1     103.665 124.891 147.035  0.00  0.00    +0.000 A 
ATOM     10  C   UNL     1     104.241 123.817 146.222  0.00  0.00    +0.000 A 
ATOM     11  C   UNL     1     102.895 124.509 147.011  0.00  0.00    +0.000 A 
ATOM     12  C   UNL     1     103.480 123.421 146.188  0.00  0.00    +0.000 A 
ATOM     13  C   UNL     1     102.803 123.769 146.585  0.00  0.00    +0.000 A 
ENDROOT
BRANCH   6  15
ATOM     14  O   UNL     1     104.814 128.820 149.119  0.00  0.00    +0.000 OA
ATOM     15  C   UNL     1     104.565 126.688 147.886  0.00  0.00    +0.000 A 
ATOM     16  C   UNL     1     104.638 127.399 147.472  0.00  0.00    +0.000 A 
ATOM     17  C   UNL     1     104.574 126.689 148.711  0.00  0.00    +0.000 A 
ATOM     18  C   UNL     1     104.721 128.109 147.883  0.00  0.00    +0.000 A 
ATOM     19  C   UNL     1     104.657 127.400 149.122  0.00  0.00    +0.000 A 
ATOM     20  C   UNL     1     104.731 128.109 148.708  0.00  0.00    +0.000 A 
ENDBRANCH   6  15
BRANCH   5  21
ATOM     21  O   UNL     1     105.866 126.020 147.123  0.00  0.00    +0.000 OA
BRANCH  21  28
ATOM     22  O   UNL     1     106.480 125.112 148.102  0.00  0.00    +0.000 OA
ATOM     23  O   UNL     1     108.577 125.159 147.707  0.00  0.00    +0.000 OA
ATOM     24  O   UNL     1     107.583 126.198 146.633  0.00  0.00    +0.000 OA
ATOM     25  C   UNL     1     107.757 125.245 147.738  0.00  0.00    +0.000 C 
ATOM     26  C   UNL     1     107.301 125.722 147.244  0.00  0.00    +0.000 C 
ATOM     27  C   UNL     1     107.250 124.868 148.268  0.00  0.00    +0.000 C 
ATOM     28  C   UNL     1     106.511 125.640 147.469  0.00  0.00    +0.000 C 
BRANCH  27  30
ATOM     29  O   UNL     1     106.930 124.107 149.435  0.00  0.00    +0.000 OA
ATOM     30  C   UNL     1     107.474 124.339 148.861  0.00  0.00    +0.000 C 
ENDBRANCH  27  30
ENDBRANCH  21  28
ENDBRANCH   5  21
TORSDOF 4
ENDMDL
MODEL 4
REMARK VINA RESULT:      -8.9      1.103      3.570
REMARK  Name = 5318717
REMARK  4 active torsions:
REMARK  status: ('A' for Active; 'I' for Inactive)
REMARK    1  A    between atoms: O_2  and  C_14
REMARK    2  A    between atoms: O_2  and  C_16
REMARK    3  A    between atoms: C_13  and  C_15
REMARK    4  A    between atoms: C_17  and  C_21
REMARK                            x       y       z     vdW  Elec       q    Type
REMARK                         _______ _______ _______ _____ _____    ______ ____
ROOT
ATOM      1  O   UNL     1     104.022 124.639 148.245  0.00  0.00    +0.000 OA
ATOM      2  O   UNL     1     104.042 124.255 145.801  0.00  0.00    +0.000 OA
ATOM      3  O   UNL     1     102.605 124.114 145.783  0.00  0.00    +0.000 OA
ATOM      4  O   UNL     1     101.123 124.368 148.286  0.00  0.00    +0.000 OA
ATOM      5  C   UNL     1     104.743 124.515 147.018  0.00  0.00    +0.000 A 
ATOM      6  C   UNL     1     104.737 124.643 147.833  0.00  0.00    +0.000 A 
ATOM      7  C   UNL     1     104.035 124.383 146.616  0.00  0.00    +0.000 A 
ATOM      8  C   UNL     1     103.320 124.380 147.029  0.00  0.00    +0.000 A 
ATOM      9  C   UNL     1     103.314 124.508 147.844  0.00  0.00    +0.000 A 
ATOM     10  C   UNL     1     102.589 124.241 146.598  0.00  0.00    +0.000 A 
ATOM     11  C   UNL     1     102.576 124.507 148.285  0.00  0.00    +0.000 A 
ATOM     12  C   UNL     1     101.842 124.237 147.023  0.00  0.00    +0.000 A 
ATOM     13  C   UNL     1     101.836 124.370 147.871  0.00  0.00    +0.000 A 
ENDROOT
BRANCH   6  15
ATOM     14  O   UNL     1     107.570 125.170 149.442  0.00  0.00    +0.000 OA
ATOM     15  C   UNL     1     105.444 124.774 148.235  0.00  0.00    +0.000 A 
ATOM     16  C   UNL     1     105.970 124.151 148.361  0.00  0.00    +0.000 A 
ATOM     17  C   UNL     1     105.627 125.530 148.512  0.00  0.00    +0.000 A 
ATOM     18  C   UNL     1     106.678 124.283 148.763  0.00  0.00    +0.000 A 
ATOM     19  C   UNL     1     106.336 125.662 148.914  0.00  0.00    +0.000 A 
ATOM     20  C   UNL     1     106.861 125.038 149.039  0.00  0.00    +0.000 A 
ENDBRANCH   6  15
BRANCH   5  21
ATOM     21  O   UNL     1     105.457 124.518 146.605  0.00  0.00    +0.000 OA
BRANCH  21  28
ATOM     22  O   UNL     1     105.283 125.841 145.988  0.00  0.00    +0.000 OA
ATOM     23  O   UNL     1     106.408 125.791 144.174  0.00  0.00    +0.000 OA
ATOM     24  O   UNL     1     106.454 124.274 145.133  0.00  0.00    +0.000 OA
ATOM     25  C   UNL     1     106.025 125.659 144.893  0.00  0.00    +0.000 C 
ATOM     26  C   UNL     1     106.046 124.962 145.333  0.00  0.00    +0.000 C 
ATOM     27  C   UNL     1     105.553 126.202 145.298  0.00  0.00    +0.000 C 
ATOM     28  C   UNL     1     105.588 125.074 146.011  0.00  0.00    +0.000 C 
BRANCH  27  30
ATOM     29  O   UNL     1     105.160 127.540 145.608  0.00  0.00    +0.000 OA
ATOM     30  C   UNL     1     105.382 126.972 145.054  0.00  0.00    +0.000 C 
ENDBRANCH  27  30
ENDBRANCH  21  28
ENDBRANCH   5  21
TORSDOF 4
ENDMDL
MODEL 5
REMARK VINA RESULT:      -8.8     10.741     12.680
REMARK  Name = 5318717
REMARK  4 active torsions:
REMARK  status: ('A' for Active; 'I' for Inactive)
REMARK    1  A    between atoms: O_2  and  C_14
REMARK    2  A    between atoms: O_2  and  C_16
REMARK    3  A    between atoms: C_13  and  C_15
REMARK    4  A    between atoms: C_17  and  C_21
REMARK                            x       y       z     vdW  Elec       q    Type
REMARK                         _______ _______ _______ _____ _____    ______ ____
ROOT
ATOM      1  O   UNL     1     111.900 125.794 136.030  0.00  0.00    +0.000 OA
ATOM      2  O   UNL     1     111.816 128.245 135.697  0.00  0.00    +0.000 OA
ATOM      3  O   UNL     1     110.557 128.135 134.999  0.00  0.00    +0.000 OA
ATOM      4  O   UNL     1     109.362 125.496 134.634  0.00  0.00    +0.000 OA
ATOM      5  C   UNL     1     112.481 127.087 136.207  0.00  0.00    +0.000 A 
ATOM      6  C   UNL     1     112.509 126.270 136.318  0.00  0.00    +0.000 A 
ATOM      7  C   UNL     1     111.844 127.428 135.808  0.00  0.00    +0.000 A 
ATOM      8  C   UNL     1     111.235 126.951 135.520  0.00  0.00    +0.000 A 
ATOM      9  C   UNL     1     111.263 126.134 135.632  0.00  0.00    +0.000 A 
ATOM     10  C   UNL     1     110.577 127.317 135.106  0.00  0.00    +0.000 A 
ATOM     11  C   UNL     1     110.635 125.627 135.337  0.00  0.00    +0.000 A 
ATOM     12  C   UNL     1     109.940 126.826 134.804  0.00  0.00    +0.000 A 
ATOM     13  C   UNL     1     109.969 125.975 134.920  0.00  0.00    +0.000 A 
ENDROOT
BRANCH   6  15
ATOM     14  O   UNL     1     115.057 124.910 137.915  0.00  0.00    +0.000 OA
ATOM     15  C   UNL     1     113.145 125.931 136.717  0.00  0.00    +0.000 A 
ATOM     16  C   UNL     1     113.876 125.853 136.340  0.00  0.00    +0.000 A 
ATOM     17  C   UNL     1     113.053 125.668 137.494  0.00  0.00    +0.000 A 
ATOM     18  C   UNL     1     114.512 125.513 136.739  0.00  0.00    +0.000 A 
ATOM     19  C   UNL     1     113.690 125.327 137.893  0.00  0.00    +0.000 A 
ATOM     20  C   UNL     1     114.419 125.250 137.516  0.00  0.00    +0.000 A 
ENDBRANCH   6  15
BRANCH   5  21
ATOM     21  O   UNL     1     113.089 127.565 136.494  0.00  0.00    +0.000 OA
BRANCH  21  28
ATOM     22  O   UNL     1     112.339 128.125 137.627  0.00  0.00    +0.000 OA
ATOM     23  O   UNL     1     113.202 130.041 138.008  0.00  0.00    +0.000 OA
ATOM     24  O   UNL     1     113.948 129.133 136.651  0.00  0.00    +0.000 OA
ATOM     25  C   UNL     1     112.978 129.291 137.743  0.00  0.00    +0.000 C 
ATOM     26  C   UNL     1     113.321 128.875 137.120  0.00  0.00    +0.000 C 
ATOM     27  C   UNL     1     112.371 128.828 138.057  0.00  0.00    +0.000 C 
ATOM     28  C   UNL     1     112.926 128.154 137.048  0.00  0.00    +0.000 C 
BRANCH  27  30
ATOM     29  O   UNL     1     111.458 128.450 139.089  0.00  0.00    +0.000 OA
ATOM     30  C   UNL     1     111.882 129.033 138.690  0.00  0.00    +0.000 C 
ENDBRANCH  27  30
ENDBRANCH  21  28
ENDBRANCH   5  21
TORSDOF 4
ENDMDL
MODEL 6
REMARK VINA RESULT:      -8.6      1.483      3.940
REMARK  Name = 5318717
REMARK  4 active torsions:
REMARK  status: ('A' for Active; 'I' for Inactive)
REMARK    1  A    between atoms: O_2  and  C_14
REMARK    2  A    between atoms: O_2  and  C_16
REMARK    3  A    between atoms: C_13  and  C_15
REMARK    4  A    between atoms: C_17  and  C_21
REMARK                            x       y       z     vdW  Elec       q    Type
REMARK                         _______ _______ _______ _____ _____    ______ ____
ROOT
ATOM      1  O   UNL     1     105.060 124.194 147.057  0.00  0.00    +0.000 OA
ATOM      2  O   UNL     1     103.524 125.803 148.140  0.00  0.00    +0.000 OA
ATOM      3  O   UNL     1     102.385 125.188 147.502  0.00  0.00    +0.000 OA
ATOM      4  O   UNL     1     102.810 122.902 145.735  0.00  0.00    +0.000 OA
ATOM      5  C   UNL     1     104.848 125.312 147.920  0.00  0.00    +0.000 A 
ATOM      6  C   UNL     1     105.360 124.776 147.559  0.00  0.00    +0.000 A 
ATOM      7  C   UNL     1     104.036 125.267 147.779  0.00  0.00    +0.000 A 
ATOM      8  C   UNL     1     103.737 124.684 147.276  0.00  0.00    +0.000 A 
ATOM      9  C   UNL     1     104.250 124.148 146.915  0.00  0.00    +0.000 A 
ATOM     10  C   UNL     1     102.890 124.647 147.136  0.00  0.00    +0.000 A 
ATOM     11  C   UNL     1     103.950 123.537 146.389  0.00  0.00    +0.000 A 
ATOM     12  C   UNL     1     102.573 124.043 146.614  0.00  0.00    +0.000 A 
ATOM     13  C   UNL     1     103.106 123.485 146.238  0.00  0.00    +0.000 A 
ENDROOT
BRANCH   6  15
ATOM     14  O   UNL     1     108.606 124.959 148.126  0.00  0.00    +0.000 OA
ATOM     15  C   UNL     1     106.171 124.821 147.701  0.00  0.00    +0.000 A 
ATOM     16  C   UNL     1     106.478 124.576 148.426  0.00  0.00    +0.000 A 
ATOM     17  C   UNL     1     106.676 125.113 147.117  0.00  0.00    +0.000 A 
ATOM     18  C   UNL     1     107.289 124.621 148.568  0.00  0.00    +0.000 A 
ATOM     19  C   UNL     1     107.488 125.159 147.259  0.00  0.00    +0.000 A 
ATOM     20  C   UNL     1     107.794 124.913 147.984  0.00  0.00    +0.000 A 
ENDBRANCH   6  15
BRANCH   5  21
ATOM     21  O   UNL     1     105.146 125.894 148.423  0.00  0.00    +0.000 OA
BRANCH  21  28
ATOM     22  O   UNL     1     104.983 127.017 147.488  0.00  0.00    +0.000 OA
ATOM     23  O   UNL     1     104.745 128.757 148.701  0.00  0.00    +0.000 OA
ATOM     24  O   UNL     1     104.965 127.226 149.612  0.00  0.00    +0.000 OA
ATOM     25  C   UNL     1     104.849 128.007 148.373  0.00  0.00    +0.000 C 
ATOM     26  C   UNL     1     104.950 127.304 148.791  0.00  0.00    +0.000 C 
ATOM     27  C   UNL     1     104.870 127.830 147.567  0.00  0.00    +0.000 C 
ATOM     28  C   UNL     1     105.033 126.692 148.244  0.00  0.00    +0.000 C 
BRANCH  27  30
ATOM     29  O   UNL     1     105.082 128.188 146.200  0.00  0.00    +0.000 OA
ATOM     30  C   UNL     1     104.790 128.371 146.949  0.00  0.00    +0.000 C 
ENDBRANCH  27  30
ENDBRANCH  21  28
ENDBRANCH   5  21
TORSDOF 4
ENDMDL
MODEL 7
REMARK VINA RESULT:      -8.6      9.997     12.091
REMARK  Name = 5318717
REMARK  4 active torsions:
REMARK  status: ('A' for Active; 'I' for Inactive)
REMARK    1  A    between atoms: O_2  and  C_14
REMARK    2  A    between atoms: O_2  and  C_16
REMARK    3  A    between atoms: C_13  and  C_15
REMARK    4  A    between atoms: C_17  and  C_21
REMARK                            x       y       z     vdW  Elec       q    Type
REMARK                         _______ _______ _______ _____ _____    ______ ____
ROOT
ATOM      1  O   UNL     1     111.896 125.654 136.045  0.00  0.00    +0.000 OA
ATOM      2  O   UNL     1     111.251 127.773 137.149  0.00  0.00    +0.000 OA
ATOM      3  O   UNL     1     109.985 127.781 136.456  0.00  0.00    +0.000 OA
ATOM      4  O   UNL     1     109.362 125.604 134.612  0.00  0.00    +0.000 OA
ATOM      5  C   UNL     1     112.197 126.721 136.946  0.00  0.00    +0.000 A 
ATOM      6  C   UNL     1     112.412 126.015 136.578  0.00  0.00    +0.000 A 
ATOM      7  C   UNL     1     111.467 127.067 136.781  0.00  0.00    +0.000 A 
ATOM      8  C   UNL     1     110.951 126.705 136.247  0.00  0.00    +0.000 A 
ATOM      9  C   UNL     1     111.166 125.999 135.879  0.00  0.00    +0.000 A 
ATOM     10  C   UNL     1     110.192 127.075 136.083  0.00  0.00    +0.000 A 
ATOM     11  C   UNL     1     110.637 125.613 135.322  0.00  0.00    +0.000 A 
ATOM     12  C   UNL     1     109.651 126.703 135.529  0.00  0.00    +0.000 A 
ATOM     13  C   UNL     1     109.875 125.968 135.146  0.00  0.00    +0.000 A 
ENDROOT
BRANCH   6  15
ATOM     14  O   UNL     1     115.336 124.635 137.240  0.00  0.00    +0.000 OA
ATOM     15  C   UNL     1     113.143 125.670 136.743  0.00  0.00    +0.000 A 
ATOM     16  C   UNL     1     113.182 124.984 137.199  0.00  0.00    +0.000 A 
ATOM     17  C   UNL     1     113.835 126.012 136.453  0.00  0.00    +0.000 A 
ATOM     18  C   UNL     1     113.912 124.639 137.365  0.00  0.00    +0.000 A 
ATOM     19  C   UNL     1     114.567 125.667 136.618  0.00  0.00    +0.000 A 
ATOM     20  C   UNL     1     114.605 124.980 137.074  0.00  0.00    +0.000 A 
ENDBRANCH   6  15
BRANCH   5  21
ATOM     21  O   UNL     1     112.712 127.083 137.479  0.00  0.00    +0.000 OA
BRANCH  21  28
ATOM     22  O   UNL     1     111.972 126.705 138.692  0.00  0.00    +0.000 OA
ATOM     23  O   UNL     1     112.461 128.179 140.157  0.00  0.00    +0.000 OA
ATOM     24  O   UNL     1     113.247 128.412 138.560  0.00  0.00    +0.000 OA
ATOM     25  C   UNL     1     112.370 127.694 139.495  0.00  0.00    +0.000 C 
ATOM     26  C   UNL     1     112.731 127.802 138.762  0.00  0.00    +0.000 C 
ATOM     27  C   UNL     1     111.901 127.017 139.452  0.00  0.00    +0.000 C 
ATOM     28  C   UNL     1     112.485 127.190 138.265  0.00  0.00    +0.000 C 
BRANCH  27  30
ATOM     29  O   UNL     1     111.219 125.912 140.048  0.00  0.00    +0.000 OA
ATOM     30  C   UNL     1     111.441 126.705 140.063  0.00  0.00    +0.000 C 
ENDBRANCH  27  30
ENDBRANCH  21  28
ENDBRANCH   5  21
TORSDOF 4
ENDMDL
MODEL 8
REMARK VINA RESULT:      -8.6     11.044     13.060
REMARK  Name = 5318717
REMARK  4 active torsions:
REMARK  status: ('A' for Active; 'I' for Inactive)
REMARK    1  A    between atoms: O_2  and  C_14
REMARK    2  A    between atoms: O_2  and  C_16
REMARK    3  A    between atoms: C_13  and  C_15
REMARK    4  A    between atoms: C_17  and  C_21
REMARK                            x       y       z     vdW  Elec       q    Type
REMARK                         _______ _______ _______ _____ _____    ______ ____
ROOT
ATOM      1  O   UNL     1     114.137 127.492 136.104  0.00  0.00    +0.000 OA
ATOM      2  O   UNL     1     111.893 128.341 136.711  0.00  0.00    +0.000 OA
ATOM      3  O   UNL     1     112.138 129.575 136.003  0.00  0.00    +0.000 OA
ATOM      4  O   UNL     1     114.701 129.955 134.657  0.00  0.00    +0.000 OA
ATOM      5  C   UNL     1     112.881 127.310 136.761  0.00  0.00    +0.000 A 
ATOM      6  C   UNL     1     113.629 127.027 136.559  0.00  0.00    +0.000 A 
ATOM      7  C   UNL     1     112.641 128.058 136.508  0.00  0.00    +0.000 A 
ATOM      8  C   UNL     1     113.149 128.522 136.053  0.00  0.00    +0.000 A 
ATOM      9  C   UNL     1     113.897 128.239 135.851  0.00  0.00    +0.000 A 
ATOM     10  C   UNL     1     112.888 129.300 135.796  0.00  0.00    +0.000 A 
ATOM     11  C   UNL     1     114.435 128.714 135.377  0.00  0.00    +0.000 A 
ATOM     12  C   UNL     1     113.412 129.788 135.322  0.00  0.00    +0.000 A 
ATOM     13  C   UNL     1     114.191 129.493 135.111  0.00  0.00    +0.000 A 
ENDROOT
BRANCH   6  15
ATOM     14  O   UNL     1     114.589 124.035 137.569  0.00  0.00    +0.000 OA
ATOM     15  C   UNL     1     113.869 126.280 136.811  0.00  0.00    +0.000 A 
ATOM     16  C   UNL     1     114.060 126.153 137.604  0.00  0.00    +0.000 A 
ATOM     17  C   UNL     1     113.919 125.658 136.271  0.00  0.00    +0.000 A 
ATOM     18  C   UNL     1     114.300 125.406 137.857  0.00  0.00    +0.000 A 
ATOM     19  C   UNL     1     114.159 124.909 136.524  0.00  0.00    +0.000 A 
ATOM     20  C   UNL     1     114.349 124.784 137.317  0.00  0.00    +0.000 A 
ENDBRANCH   6  15
BRANCH   5  21
ATOM     21  O   UNL     1     112.373 126.846 137.216  0.00  0.00    +0.000 OA
BRANCH  21  28
ATOM     22  O   UNL     1     111.465 126.468 136.123  0.00  0.00    +0.000 OA
ATOM     23  O   UNL     1     109.566 126.124 137.036  0.00  0.00    +0.000 OA
ATOM     24  O   UNL     1     110.871 126.606 138.169  0.00  0.00    +0.000 OA
ATOM     25  C   UNL     1     110.349 126.290 136.832  0.00  0.00    +0.000 C 
ATOM     26  C   UNL     1     110.948 126.511 137.353  0.00  0.00    +0.000 C 
ATOM     27  C   UNL     1     110.668 126.263 136.072  0.00  0.00    +0.000 C 
ATOM     28  C   UNL     1     111.639 126.622 136.915  0.00  0.00    +0.000 C 
BRANCH  27  30
ATOM     29  O   UNL     1     110.678 125.845 134.706  0.00  0.00    +0.000 OA
ATOM     30  C   UNL     1     110.261 126.065 135.382  0.00  0.00    +0.000 C 
ENDBRANCH  27  30
ENDBRANCH  21  28
ENDBRANCH   5  21
TORSDOF 4
ENDMDL
MODEL 9
REMARK VINA RESULT:      -8.6     10.366     12.245
REMARK  Name = 5318717
REMARK  4 active torsions:
REMARK  status: ('A' for Active; 'I' for Inactive)
REMARK    1  A    between atoms: O_2  and  C_14
REMARK    2  A    between atoms: O_2  and  C_16
REMARK    3  A    between atoms: C_13  and  C_15
REMARK    4  A    between atoms: C_17  and  C_21
REMARK                            x       y       z     vdW  Elec       q    Type
REMARK                         _______ _______ _______ _____ _____    ______ ____
ROOT
ATOM      1  O   UNL     1     113.619 127.214 136.420  0.00  0.00    +0.000 OA
ATOM      2  O   UNL     1     112.390 128.298 138.275  0.00  0.00    +0.000 OA
ATOM      3  O   UNL     1     112.764 129.607 137.795  0.00  0.00    +0.000 OA
ATOM      4  O   UNL     1     114.413 129.822 135.394  0.00  0.00    +0.000 OA
ATOM      5  C   UNL     1     112.813 127.114 137.595  0.00  0.00    +0.000 A 
ATOM      6  C   UNL     1     113.222 126.753 136.977  0.00  0.00    +0.000 A 
ATOM      7  C   UNL     1     112.799 127.937 137.657  0.00  0.00    +0.000 A 
ATOM      8  C   UNL     1     113.197 128.398 137.099  0.00  0.00    +0.000 A 
ATOM      9  C   UNL     1     113.607 128.036 136.481  0.00  0.00    +0.000 A 
ATOM     10  C   UNL     1     113.176 129.254 137.173  0.00  0.00    +0.000 A 
ATOM     11  C   UNL     1     114.024 128.506 135.894  0.00  0.00    +0.000 A 
ATOM     12  C   UNL     1     113.588 129.739 136.596  0.00  0.00    +0.000 A 
ATOM     13  C   UNL     1     114.015 129.363 135.953  0.00  0.00    +0.000 A 
ENDROOT
BRANCH   6  15
ATOM     14  O   UNL     1     113.272 123.462 136.734  0.00  0.00    +0.000 OA
ATOM     15  C   UNL     1     113.235 125.931 136.917  0.00  0.00    +0.000 A 
ATOM     16  C   UNL     1     113.919 125.512 137.112  0.00  0.00    +0.000 A 
ATOM     17  C   UNL     1     112.564 125.526 136.660  0.00  0.00    +0.000 A 
ATOM     18  C   UNL     1     113.931 124.690 137.052  0.00  0.00    +0.000 A 
ATOM     19  C   UNL     1     112.576 124.702 136.599  0.00  0.00    +0.000 A 
ATOM     20  C   UNL     1     113.260 124.285 136.795  0.00  0.00    +0.000 A 
ENDBRANCH   6  15
BRANCH   5  21
ATOM     21  O   UNL     1     112.415 126.654 138.153  0.00  0.00    +0.000 OA
BRANCH  21  28
ATOM     22  O   UNL     1     113.368 126.901 139.244  0.00  0.00    +0.000 OA
ATOM     23  O   UNL     1     112.287 126.555 141.052  0.00  0.00    +0.000 OA
ATOM     24  O   UNL     1     111.338 126.317 139.548  0.00  0.00    +0.000 OA
ATOM     25  C   UNL     1     112.566 126.651 140.282  0.00  0.00    +0.000 C 
ATOM     26  C   UNL     1     112.130 126.542 139.591  0.00  0.00    +0.000 C 
ATOM     27  C   UNL     1     113.331 126.873 140.068  0.00  0.00    +0.000 C 
ATOM     28  C   UNL     1     112.626 126.696 138.949  0.00  0.00    +0.000 C 
BRANCH  27  30
ATOM     29  O   UNL     1     114.728 126.864 140.371  0.00  0.00    +0.000 OA
ATOM     30  C   UNL     1     113.951 127.038 140.587  0.00  0.00    +0.000 C 
ENDBRANCH  27  30
ENDBRANCH  21  28
ENDBRANCH   5  21
TORSDOF 4
ENDMDL
MODEL 10
REMARK VINA RESULT:      -8.5      9.316     11.107
REMARK  Name = 5318717
REMARK  4 active torsions:
REMARK  status: ('A' for Active; 'I' for Inactive)
REMARK    1  A    between atoms: O_2  and  C_14
REMARK    2  A    between atoms: O_2  and  C_16
REMARK    3  A    between atoms: C_13  and  C_15
REMARK    4  A    between atoms: C_17  and  C_21
REMARK                            x       y       z     vdW  Elec       q    Type
REMARK                         _______ _______ _______ _____ _____    ______ ____
ROOT
ATOM      1  O   UNL     1     113.750 126.238 138.281  0.00  0.00    +0.000 OA
ATOM      2  O   UNL     1     111.729 124.859 137.910  0.00  0.00    +0.000 OA
ATOM      3  O   UNL     1     112.344 124.213 136.775  0.00  0.00    +0.000 OA
ATOM      4  O   UNL     1     115.054 124.979 136.003  0.00  0.00    +0.000 OA
ATOM      5  C   UNL     1     112.424 125.861 138.655  0.00  0.00    +0.000 A 
ATOM      6  C   UNL     1     113.097 126.321 138.779  0.00  0.00    +0.000 A 
ATOM      7  C   UNL     1     112.402 125.319 138.034  0.00  0.00    +0.000 A 
ATOM      8  C   UNL     1     113.056 125.237 137.536  0.00  0.00    +0.000 A 
ATOM      9  C   UNL     1     113.729 125.697 137.660  0.00  0.00    +0.000 A 
ATOM     10  C   UNL     1     113.022 124.669 136.891  0.00  0.00    +0.000 A 
ATOM     11  C   UNL     1     114.416 125.621 137.148  0.00  0.00    +0.000 A 
ATOM     12  C   UNL     1     113.699 124.579 136.370  0.00  0.00    +0.000 A 
ATOM     13  C   UNL     1     114.400 125.058 136.499  0.00  0.00    +0.000 A 
ENDROOT
BRANCH   6  15
ATOM     14  O   UNL     1     113.179 128.488 141.266  0.00  0.00    +0.000 OA
ATOM     15  C   UNL     1     113.117 126.862 139.401  0.00  0.00    +0.000 A 
ATOM     16  C   UNL     1     113.203 126.597 140.177  0.00  0.00    +0.000 A 
ATOM     17  C   UNL     1     113.053 127.670 139.246  0.00  0.00    +0.000 A 
ATOM     18  C   UNL     1     113.223 127.138 140.799  0.00  0.00    +0.000 A 
ATOM     19  C   UNL     1     113.073 128.212 139.868  0.00  0.00    +0.000 A 
ATOM     20  C   UNL     1     113.158 127.946 140.644  0.00  0.00    +0.000 A 
ENDBRANCH   6  15
BRANCH   5  21
ATOM     21  O   UNL     1     111.770 125.942 139.152  0.00  0.00    +0.000 OA
BRANCH  21  28
ATOM     22  O   UNL     1     110.924 126.653 138.183  0.00  0.00    +0.000 OA
ATOM     23  O   UNL     1     108.909 126.242 138.756  0.00  0.00    +0.000 OA
ATOM     24  O   UNL     1     110.159 125.480 139.794  0.00  0.00    +0.000 OA
ATOM     25  C   UNL     1     109.726 126.309 138.661  0.00  0.00    +0.000 C 
ATOM     26  C   UNL     1     110.300 125.958 139.138  0.00  0.00    +0.000 C 
ATOM     27  C   UNL     1     110.112 126.738 138.071  0.00  0.00    +0.000 C 
ATOM     28  C   UNL     1     111.041 126.171 138.842  0.00  0.00    +0.000 C 
BRANCH  27  30
ATOM     29  O   UNL     1     110.162 127.778 137.092  0.00  0.00    +0.000 OA
ATOM     30  C   UNL     1     109.748 127.176 137.473  0.00  0.00    +0.000 C 
ENDBRANCH  27  30
ENDBRANCH  21  28
ENDBRANCH   5  21
TORSDOF 4
ENDMDL
