MODEL 1
REMARK VINA RESULT:      -9.2      0.000      0.000
REMARK  Name = 131831379
REMARK  5 active torsions:
REMARK  status: ('A' for Active; 'I' for Inactive)
REMARK    1  A    between atoms: S_1  and  O_3
REMARK    2  A    between atoms: O_3  and  C_14
REMARK    3  A    between atoms: C_16  and  C_19
REMARK    4  A    between atoms: C_18  and  C_20
REMARK    5  A    between atoms: C_24  and  C_29
REMARK                            x       y       z     vdW  Elec       q    Type
REMARK                         _______ _______ _______ _____ _____    ______ ____
ROOT
ATOM      1  O   UNL     1     112.610 127.393 138.042  0.00  0.00    +0.000 OA
ATOM      2  O   UNL     1     112.369 130.857 138.413  0.00  0.00    +0.000 OA
ATOM      3  O   UNL     1     114.041 129.000 140.813  0.00  0.00    +0.000 OA
ATOM      4  O   UNL     1     114.188 127.264 140.672  0.00  0.00    +0.000 OA
ATOM      5  C   UNL     1     112.498 129.138 138.244  0.00  0.00    +0.000 A 
ATOM      6  C   UNL     1     112.819 128.256 138.587  0.00  0.00    +0.000 A 
ATOM      7  C   UNL     1     112.691 129.975 138.757  0.00  0.00    +0.000 A 
ATOM      8  C   UNL     1     113.334 128.210 139.444  0.00  0.00    +0.000 A 
ATOM      9  C   UNL     1     112.942 126.470 138.393  0.00  0.00    +0.000 C 
ATOM     10  C   UNL     1     113.478 126.422 139.286  0.00  0.00    +0.000 C 
ATOM     11  C   UNL     1     113.675 127.298 139.814  0.00  0.00    +0.000 C 
ATOM     12  C   UNL     1     113.526 129.046 139.957  0.00  0.00    +0.000 A 
ATOM     13  C   UNL     1     113.205 129.929 139.613  0.00  0.00    +0.000 A 
ENDROOT
BRANCH   5  19
ATOM     14  O   UNL     1     112.469 129.230 136.515  0.00  0.00    +0.000 OA
ATOM     15  O   UNL     1     110.498 129.138 138.277  0.00  0.00    +0.000 OA
ATOM     16  O   UNL     1     110.440 129.322 134.818  0.00  0.00    +0.000 OA
ATOM     17  C   UNL     1     110.469 129.230 136.548  0.00  0.00    +0.000 C 
ATOM     18  C   UNL     1     110.984 129.184 137.404  0.00  0.00    +0.000 C 
ATOM     19  C   UNL     1     111.983 129.184 137.388  0.00  0.00    +0.000 C 
ATOM     20  C   UNL     1     110.955 129.276 135.675  0.00  0.00    +0.000 C 
ATOM     21  C   UNL     1     111.955 129.276 135.658  0.00  0.00    +0.000 C 
BRANCH  21  23
ATOM     22  O   UNL     1     113.438 129.265 134.764  0.00  0.00    +0.000 OA
ATOM     23  C   UNL     1     112.440 129.323 134.785  0.00  0.00    +0.000 C 
ENDBRANCH  21  23
BRANCH  17  24
ATOM     24  O   UNL     1     109.469 129.230 136.564  0.00  0.00    +0.000 OA
BRANCH  24  25
ATOM     25  S   UNL     1     108.965 128.406 136.304  0.00  0.00    +0.000 S 
ATOM     26  O   UNL     1     108.557 128.899 135.536  0.00  0.00    +0.000 OA
ATOM     27  O   UNL     1     108.461 127.583 136.044  0.00  0.00    +0.000 OA
ATOM     28  O   UNL     1     109.373 127.914 137.073  0.00  0.00    +0.000 OA
ENDBRANCH  24  25
ENDBRANCH  17  24
ENDBRANCH   5  19
BRANCH   9  29
ATOM     29  C   UNL     1     112.747 125.636 137.878  0.00  0.00    +0.000 A 
ATOM     30  C   UNL     1     113.483 125.167 137.389  0.00  0.00    +0.000 A 
ATOM     31  C   UNL     1     111.817 125.270 137.851  0.00  0.00    +0.000 A 
ATOM     32  C   UNL     1     113.289 124.333 136.874  0.00  0.00    +0.000 A 
ATOM     33  C   UNL     1     111.623 124.435 137.336  0.00  0.00    +0.000 A 
ATOM     34  C   UNL     1     112.359 123.967 136.847  0.00  0.00    +0.000 A 
ENDBRANCH   9  29
TORSDOF 5
ENDMDL
MODEL 2
REMARK VINA RESULT:      -9.1      1.878      4.038
REMARK  Name = 131831379
REMARK  5 active torsions:
REMARK  status: ('A' for Active; 'I' for Inactive)
REMARK    1  A    between atoms: S_1  and  O_3
REMARK    2  A    between atoms: O_3  and  C_14
REMARK    3  A    between atoms: C_16  and  C_19
REMARK    4  A    between atoms: C_18  and  C_20
REMARK    5  A    between atoms: C_24  and  C_29
REMARK                            x       y       z     vdW  Elec       q    Type
REMARK                         _______ _______ _______ _____ _____    ______ ____
ROOT
ATOM      1  O   UNL     1     112.379 127.156 136.282  0.00  0.00    +0.000 OA
ATOM      2  O   UNL     1     110.635 129.950 135.119  0.00  0.00    +0.000 OA
ATOM      3  O   UNL     1     109.311 126.788 134.620  0.00  0.00    +0.000 OA
ATOM      4  O   UNL     1     110.145 125.359 135.184  0.00  0.00    +0.000 OA
ATOM      5  C   UNL     1     111.487 128.554 135.690  0.00  0.00    +0.000 A 
ATOM      6  C   UNL     1     111.551 127.562 135.797  0.00  0.00    +0.000 A 
ATOM      7  C   UNL     1     110.699 128.957 135.226  0.00  0.00    +0.000 A 
ATOM      8  C   UNL     1     110.825 126.973 135.440  0.00  0.00    +0.000 A 
ATOM      9  C   UNL     1     112.452 126.123 136.397  0.00  0.00    +0.000 C 
ATOM     10  C   UNL     1     111.696 125.510 136.026  0.00  0.00    +0.000 C 
ATOM     11  C   UNL     1     110.877 125.938 135.544  0.00  0.00    +0.000 C 
ATOM     12  C   UNL     1     110.036 127.377 134.977  0.00  0.00    +0.000 A 
ATOM     13  C   UNL     1     109.973 128.369 134.870  0.00  0.00    +0.000 A 
ENDROOT
BRANCH   5  19
ATOM     14  O   UNL     1     113.008 129.356 135.478  0.00  0.00    +0.000 OA
ATOM     15  O   UNL     1     111.349 129.304 137.539  0.00  0.00    +0.000 OA
ATOM     16  O   UNL     1     114.390 130.909 137.115  0.00  0.00    +0.000 OA
ATOM     17  C   UNL     1     112.869 130.106 137.327  0.00  0.00    +0.000 C 
ATOM     18  C   UNL     1     112.144 129.517 136.971  0.00  0.00    +0.000 C 
ATOM     19  C   UNL     1     112.213 129.143 136.046  0.00  0.00    +0.000 C 
ATOM     20  C   UNL     1     113.664 130.320 136.759  0.00  0.00    +0.000 C 
ATOM     21  C   UNL     1     113.733 129.945 135.834  0.00  0.00    +0.000 C 
BRANCH  21  23
ATOM     22  O   UNL     1     114.875 129.482 134.617  0.00  0.00    +0.000 OA
ATOM     23  C   UNL     1     114.528 130.159 135.266  0.00  0.00    +0.000 C 
ENDBRANCH  21  23
BRANCH  17  24
ATOM     24  O   UNL     1     112.800 130.481 138.251  0.00  0.00    +0.000 OA
BRANCH  24  25
ATOM     25  S   UNL     1     113.300 130.052 139.004  0.00  0.00    +0.000 S 
ATOM     26  O   UNL     1     112.703 129.252 138.944  0.00  0.00    +0.000 OA
ATOM     27  O   UNL     1     113.799 129.622 139.756  0.00  0.00    +0.000 OA
ATOM     28  O   UNL     1     113.897 130.852 139.064  0.00  0.00    +0.000 OA
ENDBRANCH  24  25
ENDBRANCH  17  24
ENDBRANCH   5  19
BRANCH   9  29
ATOM     29  C   UNL     1     113.242 125.723 136.861  0.00  0.00    +0.000 A 
ATOM     30  C   UNL     1     113.505 126.048 137.769  0.00  0.00    +0.000 A 
ATOM     31  C   UNL     1     113.768 124.998 136.417  0.00  0.00    +0.000 A 
ATOM     32  C   UNL     1     114.295 125.648 138.233  0.00  0.00    +0.000 A 
ATOM     33  C   UNL     1     114.558 124.598 136.881  0.00  0.00    +0.000 A 
ATOM     34  C   UNL     1     114.822 124.923 137.789  0.00  0.00    +0.000 A 
ENDBRANCH   9  29
TORSDOF 5
ENDMDL
MODEL 3
REMARK VINA RESULT:      -9.0      2.569      4.399
REMARK  Name = 131831379
REMARK  5 active torsions:
REMARK  status: ('A' for Active; 'I' for Inactive)
REMARK    1  A    between atoms: S_1  and  O_3
REMARK    2  A    between atoms: O_3  and  C_14
REMARK    3  A    between atoms: C_16  and  C_19
REMARK    4  A    between atoms: C_18  and  C_20
REMARK    5  A    between atoms: C_24  and  C_29
REMARK                            x       y       z     vdW  Elec       q    Type
REMARK                         _______ _______ _______ _____ _____    ______ ____
ROOT
ATOM      1  O   UNL     1     111.815 127.098 137.731  0.00  0.00    +0.000 OA
ATOM      2  O   UNL     1     109.186 129.016 138.997  0.00  0.00    +0.000 OA
ATOM      3  O   UNL     1     110.459 129.736 135.857  0.00  0.00    +0.000 OA
ATOM      4  O   UNL     1     111.775 128.805 135.180  0.00  0.00    +0.000 OA
ATOM      5  C   UNL     1     110.490 128.074 138.355  0.00  0.00    +0.000 A 
ATOM      6  C   UNL     1     111.137 127.880 137.617  0.00  0.00    +0.000 A 
ATOM      7  C   UNL     1     109.833 128.822 138.260  0.00  0.00    +0.000 A 
ATOM      8  C   UNL     1     111.126 128.434 136.785  0.00  0.00    +0.000 A 
ATOM      9  C   UNL     1     112.492 126.890 136.967  0.00  0.00    +0.000 C 
ATOM     10  C   UNL     1     112.481 127.467 136.100  0.00  0.00    +0.000 C 
ATOM     11  C   UNL     1     111.794 128.244 136.008  0.00  0.00    +0.000 C 
ATOM     12  C   UNL     1     110.469 129.182 136.690  0.00  0.00    +0.000 A 
ATOM     13  C   UNL     1     109.822 129.376 137.427  0.00  0.00    +0.000 A 
ENDROOT
BRANCH   5  19
ATOM     14  O   UNL     1     111.089 127.780 139.953  0.00  0.00    +0.000 OA
ATOM     15  O   UNL     1     109.333 126.449 138.489  0.00  0.00    +0.000 OA
ATOM     16  O   UNL     1     110.531 125.859 141.685  0.00  0.00    +0.000 OA
ATOM     17  C   UNL     1     109.932 126.154 140.087  0.00  0.00    +0.000 C 
ATOM     18  C   UNL     1     109.921 126.708 139.255  0.00  0.00    +0.000 C 
ATOM     19  C   UNL     1     110.500 127.521 139.188  0.00  0.00    +0.000 C 
ATOM     20  C   UNL     1     110.520 126.413 140.853  0.00  0.00    +0.000 C 
ATOM     21  C   UNL     1     111.099 127.226 140.786  0.00  0.00    +0.000 C 
BRANCH  21  23
ATOM     22  O   UNL     1     112.422 128.150 141.415  0.00  0.00    +0.000 OA
ATOM     23  C   UNL     1     111.688 127.485 141.551  0.00  0.00    +0.000 C 
ENDBRANCH  21  23
BRANCH  17  24
ATOM     24  O   UNL     1     109.353 125.341 140.154  0.00  0.00    +0.000 OA
BRANCH  24  25
ATOM     25  S   UNL     1     108.567 125.336 140.772  0.00  0.00    +0.000 S 
ATOM     26  O   UNL     1     108.960 124.560 141.266  0.00  0.00    +0.000 OA
ATOM     27  O   UNL     1     107.781 125.331 141.390  0.00  0.00    +0.000 OA
ATOM     28  O   UNL     1     108.174 126.112 140.279  0.00  0.00    +0.000 OA
ENDBRANCH  24  25
ENDBRANCH  17  24
ENDBRANCH   5  19
BRANCH   9  29
ATOM     29  C   UNL     1     113.148 126.142 137.066  0.00  0.00    +0.000 A 
ATOM     30  C   UNL     1     113.818 126.159 137.808  0.00  0.00    +0.000 A 
ATOM     31  C   UNL     1     113.134 125.376 136.423  0.00  0.00    +0.000 A 
ATOM     32  C   UNL     1     114.473 125.411 137.906  0.00  0.00    +0.000 A 
ATOM     33  C   UNL     1     113.790 124.628 136.521  0.00  0.00    +0.000 A 
ATOM     34  C   UNL     1     114.460 124.645 137.263  0.00  0.00    +0.000 A 
ENDBRANCH   9  29
TORSDOF 5
ENDMDL
MODEL 4
REMARK VINA RESULT:      -8.9      1.249      2.571
REMARK  Name = 131831379
REMARK  5 active torsions:
REMARK  status: ('A' for Active; 'I' for Inactive)
REMARK    1  A    between atoms: S_1  and  O_3
REMARK    2  A    between atoms: O_3  and  C_14
REMARK    3  A    between atoms: C_16  and  C_19
REMARK    4  A    between atoms: C_18  and  C_20
REMARK    5  A    between atoms: C_24  and  C_29
REMARK                            x       y       z     vdW  Elec       q    Type
REMARK                         _______ _______ _______ _____ _____    ______ ____
ROOT
ATOM      1  O   UNL     1     112.930 127.540 138.410  0.00  0.00    +0.000 OA
ATOM      2  O   UNL     1     111.862 130.794 139.095  0.00  0.00    +0.000 OA
ATOM      3  O   UNL     1     113.237 128.883 141.637  0.00  0.00    +0.000 OA
ATOM      4  O   UNL     1     113.786 127.249 141.344  0.00  0.00    +0.000 OA
ATOM      5  C   UNL     1     112.396 129.178 138.772  0.00  0.00    +0.000 A 
ATOM      6  C   UNL     1     112.804 128.321 139.088  0.00  0.00    +0.000 A 
ATOM      7  C   UNL     1     112.269 129.937 139.411  0.00  0.00    +0.000 A 
ATOM      8  C   UNL     1     113.084 128.223 140.043  0.00  0.00    +0.000 A 
ATOM      9  C   UNL     1     113.353 126.645 138.732  0.00  0.00    +0.000 C 
ATOM     10  C   UNL     1     113.645 126.542 139.727  0.00  0.00    +0.000 C 
ATOM     11  C   UNL     1     113.509 127.337 140.387  0.00  0.00    +0.000 C 
ATOM     12  C   UNL     1     112.956 128.982 140.682  0.00  0.00    +0.000 A 
ATOM     13  C   UNL     1     112.549 129.838 140.366  0.00  0.00    +0.000 A 
ENDROOT
BRANCH   5  19
ATOM     14  O   UNL     1     111.182 129.047 137.544  0.00  0.00    +0.000 OA
ATOM     15  O   UNL     1     113.704 129.834 137.409  0.00  0.00    +0.000 OA
ATOM     16  O   UNL     1     111.276 129.571 134.952  0.00  0.00    +0.000 OA
ATOM     17  C   UNL     1     112.490 129.703 136.181  0.00  0.00    +0.000 C 
ATOM     18  C   UNL     1     112.770 129.605 137.135  0.00  0.00    +0.000 C 
ATOM     19  C   UNL     1     112.116 129.277 137.817  0.00  0.00    +0.000 C 
ATOM     20  C   UNL     1     111.556 129.473 135.907  0.00  0.00    +0.000 C 
ATOM     21  C   UNL     1     110.902 129.145 136.589  0.00  0.00    +0.000 C 
BRANCH  21  23
ATOM     22  O   UNL     1     109.274 128.730 137.012  0.00  0.00    +0.000 OA
ATOM     23  C   UNL     1     109.968 128.915 136.316  0.00  0.00    +0.000 C 
ENDBRANCH  21  23
BRANCH  17  24
ATOM     24  O   UNL     1     113.144 130.031 135.499  0.00  0.00    +0.000 OA
BRANCH  24  25
ATOM     25  S   UNL     1     113.906 129.449 135.217  0.00  0.00    +0.000 S 
ATOM     26  O   UNL     1     114.552 130.154 135.509  0.00  0.00    +0.000 OA
ATOM     27  O   UNL     1     114.669 128.867 134.935  0.00  0.00    +0.000 OA
ATOM     28  O   UNL     1     113.260 128.744 134.925  0.00  0.00    +0.000 OA
ENDBRANCH  24  25
ENDBRANCH  17  24
ENDBRANCH   5  19
BRANCH   9  29
ATOM     29  C   UNL     1     113.479 125.888 138.091  0.00  0.00    +0.000 A 
ATOM     30  C   UNL     1     112.683 125.455 137.667  0.00  0.00    +0.000 A 
ATOM     31  C   UNL     1     114.399 125.565 137.872  0.00  0.00    +0.000 A 
ATOM     32  C   UNL     1     112.809 124.698 137.025  0.00  0.00    +0.000 A 
ATOM     33  C   UNL     1     114.525 124.808 137.231  0.00  0.00    +0.000 A 
ATOM     34  C   UNL     1     113.730 124.375 136.807  0.00  0.00    +0.000 A 
ENDBRANCH   9  29
TORSDOF 5
ENDMDL
MODEL 5
REMARK VINA RESULT:      -8.9      1.913      3.071
REMARK  Name = 131831379
REMARK  5 active torsions:
REMARK  status: ('A' for Active; 'I' for Inactive)
REMARK    1  A    between atoms: S_1  and  O_3
REMARK    2  A    between atoms: O_3  and  C_14
REMARK    3  A    between atoms: C_16  and  C_19
REMARK    4  A    between atoms: C_18  and  C_20
REMARK    5  A    between atoms: C_24  and  C_29
REMARK                            x       y       z     vdW  Elec       q    Type
REMARK                         _______ _______ _______ _____ _____    ______ ____
ROOT
ATOM      1  O   UNL     1     112.219 128.459 136.613  0.00  0.00    +0.000 OA
ATOM      2  O   UNL     1     112.356 131.813 137.574  0.00  0.00    +0.000 OA
ATOM      3  O   UNL     1     114.996 130.442 135.800  0.00  0.00    +0.000 OA
ATOM      4  O   UNL     1     114.975 128.768 135.297  0.00  0.00    +0.000 OA
ATOM      5  C   UNL     1     112.303 130.151 137.090  0.00  0.00    +0.000 A 
ATOM      6  C   UNL     1     112.726 129.369 136.633  0.00  0.00    +0.000 A 
ATOM      7  C   UNL     1     112.778 131.031 137.117  0.00  0.00    +0.000 A 
ATOM      8  C   UNL     1     113.624 129.466 136.203  0.00  0.00    +0.000 A 
ATOM      9  C   UNL     1     112.653 127.639 136.139  0.00  0.00    +0.000 C 
ATOM     10  C   UNL     1     113.589 127.740 135.691  0.00  0.00    +0.000 C 
ATOM     11  C   UNL     1     114.077 128.660 135.723  0.00  0.00    +0.000 C 
ATOM     12  C   UNL     1     114.099 130.345 136.230  0.00  0.00    +0.000 A 
ATOM     13  C   UNL     1     113.676 131.128 136.687  0.00  0.00    +0.000 A 
ENDROOT
BRANCH   5  19
ATOM     14  O   UNL     1     111.339 129.830 138.492  0.00  0.00    +0.000 OA
ATOM     15  O   UNL     1     110.643 130.406 136.005  0.00  0.00    +0.000 OA
ATOM     16  O   UNL     1     108.713 129.763 138.809  0.00  0.00    +0.000 OA
ATOM     17  C   UNL     1     109.678 130.084 137.407  0.00  0.00    +0.000 C 
ATOM     18  C   UNL     1     110.575 130.182 136.978  0.00  0.00    +0.000 C 
ATOM     19  C   UNL     1     111.406 130.054 137.520  0.00  0.00    +0.000 C 
ATOM     20  C   UNL     1     109.611 129.860 138.380  0.00  0.00    +0.000 C 
ATOM     21  C   UNL     1     110.441 129.733 138.922  0.00  0.00    +0.000 C 
BRANCH  21  23
ATOM     22  O   UNL     1     111.203 129.426 140.447  0.00  0.00    +0.000 OA
ATOM     23  C   UNL     1     110.374 129.508 139.894  0.00  0.00    +0.000 C 
ENDBRANCH  21  23
BRANCH  17  24
ATOM     24  O   UNL     1     108.847 130.212 136.865  0.00  0.00    +0.000 OA
BRANCH  24  25
ATOM     25  S   UNL     1     108.596 129.539 136.170  0.00  0.00    +0.000 S 
ATOM     26  O   UNL     1     108.726 128.803 136.835  0.00  0.00    +0.000 OA
ATOM     27  O   UNL     1     108.345 128.865 135.474  0.00  0.00    +0.000 OA
ATOM     28  O   UNL     1     108.465 130.274 135.505  0.00  0.00    +0.000 OA
ENDBRANCH  24  25
ENDBRANCH  17  24
ENDBRANCH   5  19
BRANCH   9  29
ATOM     29  C   UNL     1     112.176 126.761 136.114  0.00  0.00    +0.000 A 
ATOM     30  C   UNL     1     112.570 125.964 136.571  0.00  0.00    +0.000 A 
ATOM     31  C   UNL     1     111.304 126.679 135.632  0.00  0.00    +0.000 A 
ATOM     32  C   UNL     1     112.093 125.086 136.546  0.00  0.00    +0.000 A 
ATOM     33  C   UNL     1     110.826 125.801 135.606  0.00  0.00    +0.000 A 
ATOM     34  C   UNL     1     111.221 125.004 136.064  0.00  0.00    +0.000 A 
ENDBRANCH   9  29
TORSDOF 5
ENDMDL
MODEL 6
REMARK VINA RESULT:      -8.9      1.941      3.966
REMARK  Name = 131831379
REMARK  5 active torsions:
REMARK  status: ('A' for Active; 'I' for Inactive)
REMARK    1  A    between atoms: S_1  and  O_3
REMARK    2  A    between atoms: O_3  and  C_14
REMARK    3  A    between atoms: C_16  and  C_19
REMARK    4  A    between atoms: C_18  and  C_20
REMARK    5  A    between atoms: C_24  and  C_29
REMARK                            x       y       z     vdW  Elec       q    Type
REMARK                         _______ _______ _______ _____ _____    ______ ____
ROOT
ATOM      1  O   UNL     1     113.229 128.389 137.756  0.00  0.00    +0.000 OA
ATOM      2  O   UNL     1     112.089 126.228 140.252  0.00  0.00    +0.000 OA
ATOM      3  O   UNL     1     112.730 129.542 141.032  0.00  0.00    +0.000 OA
ATOM      4  O   UNL     1     113.302 130.663 139.818  0.00  0.00    +0.000 OA
ATOM      5  C   UNL     1     112.655 127.313 139.026  0.00  0.00    +0.000 A 
ATOM      6  C   UNL     1     112.950 128.227 138.747  0.00  0.00    +0.000 A 
ATOM      7  C   UNL     1     112.385 127.142 139.973  0.00  0.00    +0.000 A 
ATOM      8  C   UNL     1     112.976 128.970 139.416  0.00  0.00    +0.000 A 
ATOM      9  C   UNL     1     113.538 129.338 137.459  0.00  0.00    +0.000 C 
ATOM     10  C   UNL     1     113.564 130.113 138.156  0.00  0.00    +0.000 C 
ATOM     11  C   UNL     1     113.281 129.927 139.141  0.00  0.00    +0.000 C 
ATOM     12  C   UNL     1     112.705 128.799 140.363  0.00  0.00    +0.000 A 
ATOM     13  C   UNL     1     112.410 127.885 140.642  0.00  0.00    +0.000 A 
ENDROOT
BRANCH   5  19
ATOM     14  O   UNL     1     113.445 126.014 138.196  0.00  0.00    +0.000 OA
ATOM     15  O   UNL     1     110.973 126.938 138.010  0.00  0.00    +0.000 OA
ATOM     16  O   UNL     1     112.554 124.341 136.350  0.00  0.00    +0.000 OA
ATOM     17  C   UNL     1     111.764 125.640 137.180  0.00  0.00    +0.000 C 
ATOM     18  C   UNL     1     111.789 126.383 137.849  0.00  0.00    +0.000 C 
ATOM     19  C   UNL     1     112.630 126.570 138.357  0.00  0.00    +0.000 C 
ATOM     20  C   UNL     1     112.579 125.084 137.019  0.00  0.00    +0.000 C 
ATOM     21  C   UNL     1     113.420 125.271 137.527  0.00  0.00    +0.000 C 
BRANCH  21  23
ATOM     22  O   UNL     1     115.109 124.978 137.777  0.00  0.00    +0.000 OA
ATOM     23  C   UNL     1     114.236 124.716 137.366  0.00  0.00    +0.000 C 
ENDBRANCH  21  23
BRANCH  17  24
ATOM     24  O   UNL     1     110.923 125.452 136.672  0.00  0.00    +0.000 OA
BRANCH  24  25
ATOM     25  S   UNL     1     110.834 125.755 135.723  0.00  0.00    +0.000 S 
ATOM     26  O   UNL     1     110.758 124.802 135.427  0.00  0.00    +0.000 OA
ATOM     27  O   UNL     1     110.745 126.057 134.774  0.00  0.00    +0.000 OA
ATOM     28  O   UNL     1     110.910 126.707 136.019  0.00  0.00    +0.000 OA
ENDBRANCH  24  25
ENDBRANCH  17  24
ENDBRANCH   5  19
BRANCH   9  29
ATOM     29  C   UNL     1     113.808 129.506 136.511  0.00  0.00    +0.000 A 
ATOM     30  C   UNL     1     113.272 129.114 135.762  0.00  0.00    +0.000 A 
ATOM     31  C   UNL     1     114.612 130.064 136.310  0.00  0.00    +0.000 A 
ATOM     32  C   UNL     1     113.542 129.281 134.814  0.00  0.00    +0.000 A 
ATOM     33  C   UNL     1     114.882 130.231 135.362  0.00  0.00    +0.000 A 
ATOM     34  C   UNL     1     114.346 129.840 134.614  0.00  0.00    +0.000 A 
ENDBRANCH   9  29
TORSDOF 5
ENDMDL
MODEL 7
REMARK VINA RESULT:      -8.9      2.382      4.162
REMARK  Name = 131831379
REMARK  5 active torsions:
REMARK  status: ('A' for Active; 'I' for Inactive)
REMARK    1  A    between atoms: S_1  and  O_3
REMARK    2  A    between atoms: O_3  and  C_14
REMARK    3  A    between atoms: C_16  and  C_19
REMARK    4  A    between atoms: C_18  and  C_20
REMARK    5  A    between atoms: C_24  and  C_29
REMARK                            x       y       z     vdW  Elec       q    Type
REMARK                         _______ _______ _______ _____ _____    ______ ____
ROOT
ATOM      1  O   UNL     1     112.247 128.925 136.290  0.00  0.00    +0.000 OA
ATOM      2  O   UNL     1     108.967 128.248 137.280  0.00  0.00    +0.000 OA
ATOM      3  O   UNL     1     111.224 125.639 136.969  0.00  0.00    +0.000 OA
ATOM      4  O   UNL     1     112.877 125.927 136.476  0.00  0.00    +0.000 OA
ATOM      5  C   UNL     1     110.597 128.567 136.790  0.00  0.00    +0.000 A 
ATOM      6  C   UNL     1     111.517 128.239 136.575  0.00  0.00    +0.000 A 
ATOM      7  C   UNL     1     109.887 127.919 137.065  0.00  0.00    +0.000 A 
ATOM      8  C   UNL     1     111.726 127.262 136.634  0.00  0.00    +0.000 A 
ATOM      9  C   UNL     1     113.207 128.591 136.064  0.00  0.00    +0.000 C 
ATOM     10  C   UNL     1     113.425 127.574 136.126  0.00  0.00    +0.000 C 
ATOM     11  C   UNL     1     112.679 126.905 136.413  0.00  0.00    +0.000 C 
ATOM     12  C   UNL     1     111.015 126.615 136.909  0.00  0.00    +0.000 A 
ATOM     13  C   UNL     1     110.096 126.943 137.124  0.00  0.00    +0.000 A 
ENDROOT
BRANCH   5  19
ATOM     14  O   UNL     1     110.532 130.135 137.524  0.00  0.00    +0.000 OA
ATOM     15  O   UNL     1     109.892 129.336 135.084  0.00  0.00    +0.000 OA
ATOM     16  O   UNL     1     109.761 132.471 136.551  0.00  0.00    +0.000 OA
ATOM     17  C   UNL     1     109.826 130.904 135.818  0.00  0.00    +0.000 C 
ATOM     18  C   UNL     1     110.036 129.928 135.877  0.00  0.00    +0.000 C 
ATOM     19  C   UNL     1     110.388 129.543 136.730  0.00  0.00    +0.000 C 
ATOM     20  C   UNL     1     109.970 131.495 136.611  0.00  0.00    +0.000 C 
ATOM     21  C   UNL     1     110.323 131.111 137.464  0.00  0.00    +0.000 C 
BRANCH  21  23
ATOM     22  O   UNL     1     111.179 131.481 138.924  0.00  0.00    +0.000 OA
ATOM     23  C   UNL     1     110.467 131.702 138.257  0.00  0.00    +0.000 C 
ENDBRANCH  21  23
BRANCH  17  24
ATOM     24  O   UNL     1     109.474 131.288 134.965  0.00  0.00    +0.000 OA
BRANCH  24  25
ATOM     25  S   UNL     1     108.519 131.578 134.904  0.00  0.00    +0.000 S 
ATOM     26  O   UNL     1     108.224 130.668 135.196  0.00  0.00    +0.000 OA
ATOM     27  O   UNL     1     107.563 131.868 134.844  0.00  0.00    +0.000 OA
ATOM     28  O   UNL     1     108.813 132.488 134.613  0.00  0.00    +0.000 OA
ENDBRANCH  24  25
ENDBRANCH  17  24
ENDBRANCH   5  19
BRANCH   9  29
ATOM     29  C   UNL     1     113.915 129.241 135.790  0.00  0.00    +0.000 A 
ATOM     30  C   UNL     1     114.338 129.167 134.887  0.00  0.00    +0.000 A 
ATOM     31  C   UNL     1     114.201 129.965 136.418  0.00  0.00    +0.000 A 
ATOM     32  C   UNL     1     115.046 129.818 134.612  0.00  0.00    +0.000 A 
ATOM     33  C   UNL     1     114.909 130.615 136.143  0.00  0.00    +0.000 A 
ATOM     34  C   UNL     1     115.332 130.541 135.240  0.00  0.00    +0.000 A 
ENDBRANCH   9  29
TORSDOF 5
ENDMDL
MODEL 8
REMARK VINA RESULT:      -8.8      2.086      4.936
REMARK  Name = 131831379
REMARK  5 active torsions:
REMARK  status: ('A' for Active; 'I' for Inactive)
REMARK    1  A    between atoms: S_1  and  O_3
REMARK    2  A    between atoms: O_3  and  C_14
REMARK    3  A    between atoms: C_16  and  C_19
REMARK    4  A    between atoms: C_18  and  C_20
REMARK    5  A    between atoms: C_24  and  C_29
REMARK                            x       y       z     vdW  Elec       q    Type
REMARK                         _______ _______ _______ _____ _____    ______ ____
ROOT
ATOM      1  O   UNL     1     110.935 128.266 135.951  0.00  0.00    +0.000 OA
ATOM      2  O   UNL     1     113.658 126.291 136.889  0.00  0.00    +0.000 OA
ATOM      3  O   UNL     1     110.870 124.789 135.486  0.00  0.00    +0.000 OA
ATOM      4  O   UNL     1     109.481 125.735 134.999  0.00  0.00    +0.000 OA
ATOM      5  C   UNL     1     112.299 127.256 136.418  0.00  0.00    +0.000 A 
ATOM      6  C   UNL     1     111.381 127.328 136.028  0.00  0.00    +0.000 A 
ATOM      7  C   UNL     1     112.740 126.363 136.498  0.00  0.00    +0.000 A 
ATOM      8  C   UNL     1     110.905 126.506 135.717  0.00  0.00    +0.000 A 
ATOM      9  C   UNL     1     109.979 128.348 135.545  0.00  0.00    +0.000 C 
ATOM     10  C   UNL     1     109.483 127.491 135.221  0.00  0.00    +0.000 C 
ATOM     11  C   UNL     1     109.949 126.564 135.307  0.00  0.00    +0.000 C 
ATOM     12  C   UNL     1     111.346 125.612 135.797  0.00  0.00    +0.000 A 
ATOM     13  C   UNL     1     112.264 125.540 136.187  0.00  0.00    +0.000 A 
ENDROOT
BRANCH   5  19
ATOM     14  O   UNL     1     113.342 128.600 136.091  0.00  0.00    +0.000 OA
ATOM     15  O   UNL     1     112.118 127.859 138.317  0.00  0.00    +0.000 OA
ATOM     16  O   UNL     1     114.204 130.546 137.662  0.00  0.00    +0.000 OA
ATOM     17  C   UNL     1     113.161 129.203 137.990  0.00  0.00    +0.000 C 
ATOM     18  C   UNL     1     112.685 128.380 137.679  0.00  0.00    +0.000 C 
ATOM     19  C   UNL     1     112.775 128.079 136.729  0.00  0.00    +0.000 C 
ATOM     20  C   UNL     1     113.728 129.724 137.351  0.00  0.00    +0.000 C 
ATOM     21  C   UNL     1     113.818 129.422 136.402  0.00  0.00    +0.000 C 
BRANCH  21  23
ATOM     22  O   UNL     1     114.358 129.735 134.786  0.00  0.00    +0.000 OA
ATOM     23  C   UNL     1     114.385 129.943 135.764  0.00  0.00    +0.000 C 
ENDBRANCH  21  23
BRANCH  17  24
ATOM     24  O   UNL     1     113.071 129.504 138.939  0.00  0.00    +0.000 OA
BRANCH  24  25
ATOM     25  S   UNL     1     112.475 130.275 139.164  0.00  0.00    +0.000 S 
ATOM     26  O   UNL     1     111.683 129.758 138.838  0.00  0.00    +0.000 OA
ATOM     27  O   UNL     1     111.879 131.046 139.389  0.00  0.00    +0.000 OA
ATOM     28  O   UNL     1     113.267 130.792 139.490  0.00  0.00    +0.000 OA
ENDBRANCH  24  25
ENDBRANCH  17  24
ENDBRANCH   5  19
BRANCH   9  29
ATOM     29  C   UNL     1     109.541 129.243 135.466  0.00  0.00    +0.000 A 
ATOM     30  C   UNL     1     109.754 129.838 134.691  0.00  0.00    +0.000 A 
ATOM     31  C   UNL     1     108.890 129.545 136.162  0.00  0.00    +0.000 A 
ATOM     32  C   UNL     1     109.316 130.733 134.612  0.00  0.00    +0.000 A 
ATOM     33  C   UNL     1     108.452 130.440 136.084  0.00  0.00    +0.000 A 
ATOM     34  C   UNL     1     108.665 131.034 135.308  0.00  0.00    +0.000 A 
ENDBRANCH   9  29
TORSDOF 5
ENDMDL
MODEL 9
REMARK VINA RESULT:      -8.8      2.261      3.471
REMARK  Name = 131831379
REMARK  5 active torsions:
REMARK  status: ('A' for Active; 'I' for Inactive)
REMARK    1  A    between atoms: S_1  and  O_3
REMARK    2  A    between atoms: O_3  and  C_14
REMARK    3  A    between atoms: C_16  and  C_19
REMARK    4  A    between atoms: C_18  and  C_20
REMARK    5  A    between atoms: C_24  and  C_29
REMARK                            x       y       z     vdW  Elec       q    Type
REMARK                         _______ _______ _______ _____ _____    ______ ____
ROOT
ATOM      1  O   UNL     1     111.835 128.431 136.747  0.00  0.00    +0.000 OA
ATOM      2  O   UNL     1     112.432 131.244 138.728  0.00  0.00    +0.000 OA
ATOM      3  O   UNL     1     114.826 130.238 136.436  0.00  0.00    +0.000 OA
ATOM      4  O   UNL     1     114.574 128.836 135.421  0.00  0.00    +0.000 OA
ATOM      5  C   UNL     1     112.151 129.851 137.738  0.00  0.00    +0.000 A 
ATOM      6  C   UNL     1     112.457 129.219 137.026  0.00  0.00    +0.000 A 
ATOM      7  C   UNL     1     112.737 130.612 138.016  0.00  0.00    +0.000 A 
ATOM      8  C   UNL     1     113.348 129.348 136.592  0.00  0.00    +0.000 A 
ATOM      9  C   UNL     1     112.146 127.768 136.006  0.00  0.00    +0.000 C 
ATOM     10  C   UNL     1     113.075 127.902 135.554  0.00  0.00    +0.000 C 
ATOM     11  C   UNL     1     113.681 128.697 135.849  0.00  0.00    +0.000 C 
ATOM     12  C   UNL     1     113.934 130.109 136.870  0.00  0.00    +0.000 A 
ATOM     13  C   UNL     1     113.629 130.741 137.582  0.00  0.00    +0.000 A 
ENDROOT
BRANCH   5  19
ATOM     14  O   UNL     1     111.177 129.139 138.980  0.00  0.00    +0.000 OA
ATOM     15  O   UNL     1     110.534 130.759 136.990  0.00  0.00    +0.000 OA
ATOM     16  O   UNL     1     108.585 129.335 139.475  0.00  0.00    +0.000 OA
ATOM     17  C   UNL     1     109.560 130.047 138.232  0.00  0.00    +0.000 C 
ATOM     18  C   UNL     1     110.451 130.176 137.798  0.00  0.00    +0.000 C 
ATOM     19  C   UNL     1     111.260 129.722 138.172  0.00  0.00    +0.000 C 
ATOM     20  C   UNL     1     109.477 129.464 139.041  0.00  0.00    +0.000 C 
ATOM     21  C   UNL     1     110.285 129.010 139.415  0.00  0.00    +0.000 C 
BRANCH  21  23
ATOM     22  O   UNL     1     110.977 127.867 140.517  0.00  0.00    +0.000 OA
ATOM     23  C   UNL     1     110.202 128.427 140.223  0.00  0.00    +0.000 C 
ENDBRANCH  21  23
BRANCH  17  24
ATOM     24  O   UNL     1     108.751 130.501 137.858  0.00  0.00    +0.000 OA
BRANCH  24  25
ATOM     25  S   UNL     1     108.608 131.478 138.017  0.00  0.00    +0.000 S 
ATOM     26  O   UNL     1     108.452 131.297 138.988  0.00  0.00    +0.000 OA
ATOM     27  O   UNL     1     108.464 132.455 138.175  0.00  0.00    +0.000 OA
ATOM     28  O   UNL     1     108.763 131.659 137.046  0.00  0.00    +0.000 OA
ENDBRANCH  24  25
ENDBRANCH  17  24
ENDBRANCH   5  19
BRANCH   9  29
ATOM     29  C   UNL     1     111.558 127.008 135.731  0.00  0.00    +0.000 A 
ATOM     30  C   UNL     1     111.700 126.099 136.123  0.00  0.00    +0.000 A 
ATOM     31  C   UNL     1     110.828 127.157 135.064  0.00  0.00    +0.000 A 
ATOM     32  C   UNL     1     111.111 125.339 135.847  0.00  0.00    +0.000 A 
ATOM     33  C   UNL     1     110.240 126.397 134.789  0.00  0.00    +0.000 A 
ATOM     34  C   UNL     1     110.381 125.488 135.180  0.00  0.00    +0.000 A 
ENDBRANCH   9  29
TORSDOF 5
ENDMDL
MODEL 10
REMARK VINA RESULT:      -8.8      2.153      4.480
REMARK  Name = 131831379
REMARK  5 active torsions:
REMARK  status: ('A' for Active; 'I' for Inactive)
REMARK    1  A    between atoms: S_1  and  O_3
REMARK    2  A    between atoms: O_3  and  C_14
REMARK    3  A    between atoms: C_16  and  C_19
REMARK    4  A    between atoms: C_18  and  C_20
REMARK    5  A    between atoms: C_24  and  C_29
REMARK                            x       y       z     vdW  Elec       q    Type
REMARK                         _______ _______ _______ _____ _____    ______ ____
ROOT
ATOM      1  O   UNL     1     113.135 128.428 138.027  0.00  0.00    +0.000 OA
ATOM      2  O   UNL     1     112.103 126.413 140.686  0.00  0.00    +0.000 OA
ATOM      3  O   UNL     1     113.341 129.582 141.334  0.00  0.00    +0.000 OA
ATOM      4  O   UNL     1     113.870 130.629 140.037  0.00  0.00    +0.000 OA
ATOM      5  C   UNL     1     112.619 127.425 139.379  0.00  0.00    +0.000 A 
ATOM      6  C   UNL     1     112.997 128.290 139.051  0.00  0.00    +0.000 A 
ATOM      7  C   UNL     1     112.481 127.278 140.359  0.00  0.00    +0.000 A 
ATOM      8  C   UNL     1     113.238 129.009 139.703  0.00  0.00    +0.000 A 
ATOM      9  C   UNL     1     113.528 129.327 137.678  0.00  0.00    +0.000 C 
ATOM     10  C   UNL     1     113.779 130.076 138.358  0.00  0.00    +0.000 C 
ATOM     11  C   UNL     1     113.633 129.917 139.376  0.00  0.00    +0.000 C 
ATOM     12  C   UNL     1     113.101 128.863 140.682  0.00  0.00    +0.000 A 
ATOM     13  C   UNL     1     112.722 127.997 141.010  0.00  0.00    +0.000 A 
ENDROOT
BRANCH   5  19
ATOM     14  O   UNL     1     111.450 126.654 138.359  0.00  0.00    +0.000 OA
ATOM     15  O   UNL     1     113.994 126.088 138.811  0.00  0.00    +0.000 OA
ATOM     16  O   UNL     1     111.656 124.548 136.772  0.00  0.00    +0.000 OA
ATOM     17  C   UNL     1     112.825 125.318 137.792  0.00  0.00    +0.000 C 
ATOM     18  C   UNL     1     113.066 126.037 138.443  0.00  0.00    +0.000 C 
ATOM     19  C   UNL     1     112.378 126.705 138.727  0.00  0.00    +0.000 C 
ATOM     20  C   UNL     1     111.896 125.267 137.424  0.00  0.00    +0.000 C 
ATOM     21  C   UNL     1     111.209 125.935 137.708  0.00  0.00    +0.000 C 
BRANCH  21  23
ATOM     22  O   UNL     1     109.542 126.400 137.774  0.00  0.00    +0.000 OA
ATOM     23  C   UNL     1     110.280 125.884 137.340  0.00  0.00    +0.000 C 
ENDBRANCH  21  23
BRANCH  17  24
ATOM     24  O   UNL     1     113.512 124.649 137.508  0.00  0.00    +0.000 OA
BRANCH  24  25
ATOM     25  S   UNL     1     114.234 124.915 136.868  0.00  0.00    +0.000 S 
ATOM     26  O   UNL     1     114.926 124.663 137.544  0.00  0.00    +0.000 OA
ATOM     27  O   UNL     1     114.955 125.180 136.229  0.00  0.00    +0.000 OA
ATOM     28  O   UNL     1     113.541 125.167 136.192  0.00  0.00    +0.000 OA
ENDBRANCH  24  25
ENDBRANCH  17  24
ENDBRANCH   5  19
BRANCH   9  29
ATOM     29  C   UNL     1     113.664 129.470 136.698  0.00  0.00    +0.000 A 
ATOM     30  C   UNL     1     113.082 128.995 136.038  0.00  0.00    +0.000 A 
ATOM     31  C   UNL     1     114.382 130.087 136.378  0.00  0.00    +0.000 A 
ATOM     32  C   UNL     1     113.218 129.138 135.058  0.00  0.00    +0.000 A 
ATOM     33  C   UNL     1     114.518 130.230 135.398  0.00  0.00    +0.000 A 
ATOM     34  C   UNL     1     113.936 129.756 134.738  0.00  0.00    +0.000 A 
ENDBRANCH   9  29
TORSDOF 5
ENDMDL
