MODEL 1
REMARK VINA RESULT:     -10.4      0.000      0.000
REMARK  Name = 131834255
REMARK  8 active torsions:
REMARK  status: ('A' for Active; 'I' for Inactive)
REMARK    1  A    between atoms: O_3  and  C_24
REMARK    2  A    between atoms: O_3  and  C_34
REMARK    3  A    between atoms: O_5  and  C_25
REMARK    4  A    between atoms: O_5  and  C_35
REMARK    5  A    between atoms: C_26  and  C_40
REMARK    6  A    between atoms: C_27  and  C_41
REMARK    7  A    between atoms: C_28  and  C_32
REMARK    8  A    between atoms: C_38  and  C_45
REMARK                            x       y       z     vdW  Elec       q    Type
REMARK                         _______ _______ _______ _____ _____    ______ ____
ROOT
ATOM      1  O   UNL     1     112.606 128.668 137.248  0.00  0.00    +0.000 OA
ATOM      2  O   UNL     1     114.004 128.067 135.682  0.00  0.00    +0.000 OA
ATOM      3  O   UNL     1     113.903 131.018 136.181  0.00  0.00    +0.000 OA
ATOM      4  C   UNL     1     113.038 128.194 136.726  0.00  0.00    +0.000 C 
ATOM      5  C   UNL     1     113.573 128.540 136.203  0.00  0.00    +0.000 C 
ATOM      6  C   UNL     1     113.678 129.358 136.200  0.00  0.00    +0.000 C 
ATOM      7  C   UNL     1     113.247 129.831 136.721  0.00  0.00    +0.000 A 
ATOM      8  C   UNL     1     112.711 129.485 137.244  0.00  0.00    +0.000 A 
ATOM      9  C   UNL     1     112.361 130.821 137.793  0.00  0.00    +0.000 A 
ATOM     10  C   UNL     1     112.256 129.968 137.792  0.00  0.00    +0.000 A 
ATOM     11  C   UNL     1     113.365 130.682 136.708  0.00  0.00    +0.000 A 
ATOM     12  C   UNL     1     112.919 131.180 137.248  0.00  0.00    +0.000 A 
ENDROOT
BRANCH   4  13
ATOM     13  C   UNL     1     112.932 127.376 136.730  0.00  0.00    +0.000 A 
ATOM     14  C   UNL     1     112.180 126.223 136.349  0.00  0.00    +0.000 A 
ATOM     15  C   UNL     1     112.284 127.041 136.345  0.00  0.00    +0.000 A 
ATOM     16  C   UNL     1     112.723 125.739 136.738  0.00  0.00    +0.000 A 
ATOM     17  C   UNL     1     113.476 126.893 137.119  0.00  0.00    +0.000 A 
ATOM     18  C   UNL     1     113.372 126.074 137.123  0.00  0.00    +0.000 A 
BRANCH  16  19
ATOM     19  C   UNL     1     112.618 124.922 136.741  0.00  0.00    +0.000 C 
ATOM     20  C   UNL     1     113.254 124.424 136.910  0.00  0.00    +0.000 C 
ENDBRANCH  16  19
BRANCH  14  21
ATOM     21  O   UNL     1     111.531 125.888 135.964  0.00  0.00    +0.000 OA
BRANCH  21  29
ATOM     22  O   UNL     1     110.502 126.351 136.839  0.00  0.00    +0.000 OA
ATOM     23  O   UNL     1     109.063 126.846 134.887  0.00  0.00    +0.000 OA
ATOM     24  O   UNL     1     110.573 126.218 134.662  0.00  0.00    +0.000 OA
ATOM     25  O   UNL     1     108.513 127.144 136.414  0.00  0.00    +0.000 OA
ATOM     26  C   UNL     1     109.543 126.681 135.538  0.00  0.00    +0.000 C 
ATOM     27  C   UNL     1     110.298 126.367 135.425  0.00  0.00    +0.000 C 
ATOM     28  C   UNL     1     109.268 126.830 136.301  0.00  0.00    +0.000 C 
ATOM     29  C   UNL     1     110.777 126.202 136.076  0.00  0.00    +0.000 C 
ATOM     30  C   UNL     1     109.747 126.665 136.952  0.00  0.00    +0.000 C 
BRANCH  30  33
ATOM     31  O   UNL     1     109.140 126.203 138.160  0.00  0.00    +0.000 OA
ATOM     32  O   UNL     1     109.527 127.573 138.034  0.00  0.00    +0.000 OA
ATOM     33  C   UNL     1     109.472 126.814 137.715  0.00  0.00    +0.000 C 
ENDBRANCH  30  33
ENDBRANCH  21  29
ENDBRANCH  14  21
ENDBRANCH   4  13
BRANCH   9  34
ATOM     34  O   UNL     1     111.929 131.291 138.315  0.00  0.00    +0.000 OA
BRANCH  34  42
ATOM     35  O   UNL     1     110.981 131.772 137.361  0.00  0.00    +0.000 OA
ATOM     36  O   UNL     1     109.205 131.691 139.083  0.00  0.00    +0.000 OA
ATOM     37  O   UNL     1     110.745 131.237 139.463  0.00  0.00    +0.000 OA
ATOM     38  O   UNL     1     108.850 132.199 137.555  0.00  0.00    +0.000 OA
ATOM     39  C   UNL     1     109.797 131.718 138.509  0.00  0.00    +0.000 C 
ATOM     40  C   UNL     1     110.568 131.491 138.699  0.00  0.00    +0.000 C 
ATOM     41  C   UNL     1     109.620 131.972 137.744  0.00  0.00    +0.000 C 
ATOM     42  C   UNL     1     111.159 131.518 138.126  0.00  0.00    +0.000 C 
ATOM     43  C   UNL     1     110.211 131.999 137.171  0.00  0.00    +0.000 C 
BRANCH  43  46
ATOM     44  O   UNL     1     109.793 131.707 135.836  0.00  0.00    +0.000 OA
ATOM     45  O   UNL     1     110.097 133.053 136.212  0.00  0.00    +0.000 OA
ATOM     46  C   UNL     1     110.034 132.253 136.406  0.00  0.00    +0.000 C 
ENDBRANCH  43  46
ENDBRANCH  34  42
ENDBRANCH   9  34
TORSDOF 8
ENDMDL
MODEL 2
REMARK VINA RESULT:     -10.3      1.754      2.650
REMARK  Name = 131834255
REMARK  8 active torsions:
REMARK  status: ('A' for Active; 'I' for Inactive)
REMARK    1  A    between atoms: O_3  and  C_24
REMARK    2  A    between atoms: O_3  and  C_34
REMARK    3  A    between atoms: O_5  and  C_25
REMARK    4  A    between atoms: O_5  and  C_35
REMARK    5  A    between atoms: C_26  and  C_40
REMARK    6  A    between atoms: C_27  and  C_41
REMARK    7  A    between atoms: C_28  and  C_32
REMARK    8  A    between atoms: C_38  and  C_45
REMARK                            x       y       z     vdW  Elec       q    Type
REMARK                         _______ _______ _______ _____ _____    ______ ____
ROOT
ATOM      1  O   UNL     1     112.825 128.090 137.434  0.00  0.00    +0.000 OA
ATOM      2  O   UNL     1     113.915 127.565 135.616  0.00  0.00    +0.000 OA
ATOM      3  O   UNL     1     114.118 130.452 136.387  0.00  0.00    +0.000 OA
ATOM      4  C   UNL     1     113.134 127.646 136.810  0.00  0.00    +0.000 C 
ATOM      5  C   UNL     1     113.607 128.009 136.240  0.00  0.00    +0.000 C 
ATOM      6  C   UNL     1     113.772 128.815 136.293  0.00  0.00    +0.000 C 
ATOM      7  C   UNL     1     113.464 129.259 136.917  0.00  0.00    +0.000 A 
ATOM      8  C   UNL     1     112.991 128.896 137.487  0.00  0.00    +0.000 A 
ATOM      9  C   UNL     1     112.833 130.189 138.202  0.00  0.00    +0.000 A 
ATOM     10  C   UNL     1     112.664 129.348 138.142  0.00  0.00    +0.000 A 
ATOM     11  C   UNL     1     113.644 130.098 136.961  0.00  0.00    +0.000 A 
ATOM     12  C   UNL     1     113.326 130.566 137.609  0.00  0.00    +0.000 A 
ENDROOT
BRANCH   4  13
ATOM     13  C   UNL     1     112.968 126.840 136.757  0.00  0.00    +0.000 A 
ATOM     14  C   UNL     1     112.105 125.777 136.347  0.00  0.00    +0.000 A 
ATOM     15  C   UNL     1     112.270 126.584 136.399  0.00  0.00    +0.000 A 
ATOM     16  C   UNL     1     112.638 125.227 136.653  0.00  0.00    +0.000 A 
ATOM     17  C   UNL     1     113.501 126.289 137.063  0.00  0.00    +0.000 A 
ATOM     18  C   UNL     1     113.336 125.483 137.011  0.00  0.00    +0.000 A 
BRANCH  16  19
ATOM     19  C   UNL     1     112.472 124.421 136.600  0.00  0.00    +0.000 C 
ATOM     20  C   UNL     1     113.038 123.867 136.832  0.00  0.00    +0.000 C 
ENDBRANCH  16  19
BRANCH  14  21
ATOM     21  O   UNL     1     111.407 125.521 135.989  0.00  0.00    +0.000 OA
BRANCH  21  29
ATOM     22  O   UNL     1     110.457 126.098 136.886  0.00  0.00    +0.000 OA
ATOM     23  O   UNL     1     109.083 126.829 134.961  0.00  0.00    +0.000 OA
ATOM     24  O   UNL     1     110.492 126.009 134.705  0.00  0.00    +0.000 OA
ATOM     25  O   UNL     1     108.591 127.162 136.500  0.00  0.00    +0.000 OA
ATOM     26  C   UNL     1     109.541 126.585 135.603  0.00  0.00    +0.000 C 
ATOM     27  C   UNL     1     110.245 126.175 135.475  0.00  0.00    +0.000 C 
ATOM     28  C   UNL     1     109.295 126.752 136.372  0.00  0.00    +0.000 C 
ATOM     29  C   UNL     1     110.703 125.932 136.116  0.00  0.00    +0.000 C 
ATOM     30  C   UNL     1     109.753 126.508 137.014  0.00  0.00    +0.000 C 
BRANCH  30  33
ATOM     31  O   UNL     1     109.131 126.092 138.230  0.00  0.00    +0.000 OA
ATOM     32  O   UNL     1     109.633 127.424 138.105  0.00  0.00    +0.000 OA
ATOM     33  C   UNL     1     109.506 126.675 137.783  0.00  0.00    +0.000 C 
ENDBRANCH  30  33
ENDBRANCH  21  29
ENDBRANCH  14  21
ENDBRANCH   4  13
BRANCH   9  34
ATOM     34  O   UNL     1     112.524 130.630 138.827  0.00  0.00    +0.000 OA
BRANCH  34  42
ATOM     35  O   UNL     1     113.651 130.681 139.704  0.00  0.00    +0.000 OA
ATOM     36  O   UNL     1     112.193 130.080 141.612  0.00  0.00    +0.000 OA
ATOM     37  O   UNL     1     111.552 130.229 140.099  0.00  0.00    +0.000 OA
ATOM     38  O   UNL     1     113.805 130.332 141.852  0.00  0.00    +0.000 OA
ATOM     39  C   UNL     1     112.679 130.280 140.976  0.00  0.00    +0.000 C 
ATOM     40  C   UNL     1     112.359 130.355 140.219  0.00  0.00    +0.000 C 
ATOM     41  C   UNL     1     113.486 130.406 141.096  0.00  0.00    +0.000 C 
ATOM     42  C   UNL     1     112.844 130.555 139.584  0.00  0.00    +0.000 C 
ATOM     43  C   UNL     1     113.971 130.607 140.461  0.00  0.00    +0.000 C 
BRANCH  43  46
ATOM     44  O   UNL     1     115.054 131.491 140.756  0.00  0.00    +0.000 OA
ATOM     45  O   UNL     1     115.306 130.102 140.526  0.00  0.00    +0.000 OA
ATOM     46  C   UNL     1     114.777 130.733 140.581  0.00  0.00    +0.000 C 
ENDBRANCH  43  46
ENDBRANCH  34  42
ENDBRANCH   9  34
TORSDOF 8
ENDMDL
MODEL 3
REMARK VINA RESULT:     -10.3      1.818      3.496
REMARK  Name = 131834255
REMARK  8 active torsions:
REMARK  status: ('A' for Active; 'I' for Inactive)
REMARK    1  A    between atoms: O_3  and  C_24
REMARK    2  A    between atoms: O_3  and  C_34
REMARK    3  A    between atoms: O_5  and  C_25
REMARK    4  A    between atoms: O_5  and  C_35
REMARK    5  A    between atoms: C_26  and  C_40
REMARK    6  A    between atoms: C_27  and  C_41
REMARK    7  A    between atoms: C_28  and  C_32
REMARK    8  A    between atoms: C_38  and  C_45
REMARK                            x       y       z     vdW  Elec       q    Type
REMARK                         _______ _______ _______ _____ _____    ______ ____
ROOT
ATOM      1  O   UNL     1     110.390 127.901 136.269  0.00  0.00    +0.000 OA
ATOM      2  O   UNL     1     108.773 126.446 136.075  0.00  0.00    +0.000 OA
ATOM      3  O   UNL     1     107.913 129.297 135.758  0.00  0.00    +0.000 OA
ATOM      4  C   UNL     1     109.988 127.180 136.242  0.00  0.00    +0.000 C 
ATOM      5  C   UNL     1     109.175 127.166 136.102  0.00  0.00    +0.000 C 
ATOM      6  C   UNL     1     108.764 127.872 135.989  0.00  0.00    +0.000 C 
ATOM      7  C   UNL     1     109.165 128.592 136.016  0.00  0.00    +0.000 A 
ATOM      8  C   UNL     1     109.978 128.606 136.156  0.00  0.00    +0.000 A 
ATOM      9  C   UNL     1     109.984 130.089 136.070  0.00  0.00    +0.000 A 
ATOM     10  C   UNL     1     110.408 129.351 136.187  0.00  0.00    +0.000 A 
ATOM     11  C   UNL     1     108.726 129.321 135.897  0.00  0.00    +0.000 A 
ATOM     12  C   UNL     1     109.138 130.075 135.924  0.00  0.00    +0.000 A 
ENDROOT
BRANCH   4  13
ATOM     13  C   UNL     1     110.400 126.475 136.355  0.00  0.00    +0.000 A 
ATOM     14  C   UNL     1     110.946 125.486 137.231  0.00  0.00    +0.000 A 
ATOM     15  C   UNL     1     110.533 126.192 137.119  0.00  0.00    +0.000 A 
ATOM     16  C   UNL     1     111.224 125.063 136.580  0.00  0.00    +0.000 A 
ATOM     17  C   UNL     1     110.678 126.051 135.704  0.00  0.00    +0.000 A 
ATOM     18  C   UNL     1     111.090 125.345 135.817  0.00  0.00    +0.000 A 
BRANCH  16  19
ATOM     19  C   UNL     1     111.636 124.357 136.693  0.00  0.00    +0.000 C 
ATOM     20  C   UNL     1     111.846 123.894 136.044  0.00  0.00    +0.000 C 
ENDBRANCH  16  19
BRANCH  14  21
ATOM     21  O   UNL     1     111.079 125.203 137.995  0.00  0.00    +0.000 OA
BRANCH  21  29
ATOM     22  O   UNL     1     112.054 126.145 138.446  0.00  0.00    +0.000 OA
ATOM     23  O   UNL     1     110.847 126.364 140.596  0.00  0.00    +0.000 OA
ATOM     24  O   UNL     1     110.274 125.349 139.428  0.00  0.00    +0.000 OA
ATOM     25  O   UNL     1     112.225 127.233 140.330  0.00  0.00    +0.000 OA
ATOM     26  C   UNL     1     111.249 126.291 139.879  0.00  0.00    +0.000 C 
ATOM     27  C   UNL     1     110.963 125.784 139.295  0.00  0.00    +0.000 C 
ATOM     28  C   UNL     1     111.938 126.726 139.747  0.00  0.00    +0.000 C 
ATOM     29  C   UNL     1     111.365 125.710 138.579  0.00  0.00    +0.000 C 
ATOM     30  C   UNL     1     112.340 126.652 139.030  0.00  0.00    +0.000 C 
BRANCH  30  33
ATOM     31  O   UNL     1     113.766 126.745 139.041  0.00  0.00    +0.000 OA
ATOM     32  O   UNL     1     112.981 127.864 138.624  0.00  0.00    +0.000 OA
ATOM     33  C   UNL     1     113.029 127.087 138.898  0.00  0.00    +0.000 C 
ENDBRANCH  30  33
ENDBRANCH  21  29
ENDBRANCH  14  21
ENDBRANCH   4  13
BRANCH   9  34
ATOM     34  O   UNL     1     110.388 130.808 136.097  0.00  0.00    +0.000 OA
BRANCH  34  42
ATOM     35  O   UNL     1     110.619 130.867 137.506  0.00  0.00    +0.000 OA
ATOM     36  O   UNL     1     110.083 133.283 137.493  0.00  0.00    +0.000 OA
ATOM     37  O   UNL     1     110.031 132.419 136.088  0.00  0.00    +0.000 OA
ATOM     38  O   UNL     1     110.492 132.537 138.905  0.00  0.00    +0.000 OA
ATOM     39  C   UNL     1     110.262 132.478 137.497  0.00  0.00    +0.000 C 
ATOM     40  C   UNL     1     110.236 132.045 136.795  0.00  0.00    +0.000 C 
ATOM     41  C   UNL     1     110.466 132.104 138.204  0.00  0.00    +0.000 C 
ATOM     42  C   UNL     1     110.414 131.241 136.799  0.00  0.00    +0.000 C 
ATOM     43  C   UNL     1     110.644 131.300 138.208  0.00  0.00    +0.000 C 
BRANCH  43  46
ATOM     44  O   UNL     1     110.261 130.592 139.389  0.00  0.00    +0.000 OA
ATOM     45  O   UNL     1     111.639 130.886 139.147  0.00  0.00    +0.000 OA
ATOM     46  C   UNL     1     110.849 130.926 138.915  0.00  0.00    +0.000 C 
ENDBRANCH  43  46
ENDBRANCH  34  42
ENDBRANCH   9  34
TORSDOF 8
ENDMDL
MODEL 4
REMARK VINA RESULT:     -10.3      1.970      3.928
REMARK  Name = 131834255
REMARK  8 active torsions:
REMARK  status: ('A' for Active; 'I' for Inactive)
REMARK    1  A    between atoms: O_3  and  C_24
REMARK    2  A    between atoms: O_3  and  C_34
REMARK    3  A    between atoms: O_5  and  C_25
REMARK    4  A    between atoms: O_5  and  C_35
REMARK    5  A    between atoms: C_26  and  C_40
REMARK    6  A    between atoms: C_27  and  C_41
REMARK    7  A    between atoms: C_28  and  C_32
REMARK    8  A    between atoms: C_38  and  C_45
REMARK                            x       y       z     vdW  Elec       q    Type
REMARK                         _______ _______ _______ _____ _____    ______ ____
ROOT
ATOM      1  O   UNL     1     111.096 127.436 136.618  0.00  0.00    +0.000 OA
ATOM      2  O   UNL     1     110.625 125.351 137.064  0.00  0.00    +0.000 OA
ATOM      3  O   UNL     1     108.310 126.947 136.031  0.00  0.00    +0.000 OA
ATOM      4  C   UNL     1     111.183 126.650 136.855  0.00  0.00    +0.000 C 
ATOM      5  C   UNL     1     110.538 126.137 136.828  0.00  0.00    +0.000 C 
ATOM      6  C   UNL     1     109.805 126.409 136.564  0.00  0.00    +0.000 C 
ATOM      7  C   UNL     1     109.718 127.195 136.328  0.00  0.00    +0.000 A 
ATOM      8  C   UNL     1     110.363 127.708 136.355  0.00  0.00    +0.000 A 
ATOM      9  C   UNL     1     109.524 128.818 135.836  0.00  0.00    +0.000 A 
ATOM     10  C   UNL     1     110.285 128.529 136.111  0.00  0.00    +0.000 A 
ATOM     11  C   UNL     1     108.950 127.467 136.055  0.00  0.00    +0.000 A 
ATOM     12  C   UNL     1     108.852 128.284 135.808  0.00  0.00    +0.000 A 
ENDROOT
BRANCH   4  13
ATOM     13  C   UNL     1     111.916 126.378 137.118  0.00  0.00    +0.000 A 
ATOM     14  C   UNL     1     112.850 126.167 138.179  0.00  0.00    +0.000 A 
ATOM     15  C   UNL     1     112.117 126.439 137.916  0.00  0.00    +0.000 A 
ATOM     16  C   UNL     1     113.382 125.833 137.644  0.00  0.00    +0.000 A 
ATOM     17  C   UNL     1     112.448 126.044 136.583  0.00  0.00    +0.000 A 
ATOM     18  C   UNL     1     113.181 125.772 136.846  0.00  0.00    +0.000 A 
BRANCH  16  19
ATOM     19  C   UNL     1     114.115 125.562 137.907  0.00  0.00    +0.000 C 
ATOM     20  C   UNL     1     114.555 125.043 137.440  0.00  0.00    +0.000 C 
ENDBRANCH  16  19
BRANCH  14  21
ATOM     21  O   UNL     1     113.051 126.228 138.977  0.00  0.00    +0.000 OA
BRANCH  21  29
ATOM     22  O   UNL     1     113.130 127.647 139.127  0.00  0.00    +0.000 OA
ATOM     23  O   UNL     1     111.786 127.501 141.201  0.00  0.00    +0.000 OA
ATOM     24  O   UNL     1     112.155 126.131 140.359  0.00  0.00    +0.000 OA
ATOM     25  O   UNL     1     112.312 128.969 140.660  0.00  0.00    +0.000 OA
ATOM     26  C   UNL     1     112.234 127.550 140.509  0.00  0.00    +0.000 C 
ATOM     27  C   UNL     1     112.418 126.865 140.089  0.00  0.00    +0.000 C 
ATOM     28  C   UNL     1     112.497 128.283 140.239  0.00  0.00    +0.000 C 
ATOM     29  C   UNL     1     112.866 126.913 139.398  0.00  0.00    +0.000 C 
ATOM     30  C   UNL     1     112.945 128.332 139.548  0.00  0.00    +0.000 C 
BRANCH  30  33
ATOM     31  O   UNL     1     113.954 129.342 139.499  0.00  0.00    +0.000 OA
ATOM     32  O   UNL     1     112.726 129.524 138.790  0.00  0.00    +0.000 OA
ATOM     33  C   UNL     1     113.208 129.066 139.279  0.00  0.00    +0.000 C 
ENDBRANCH  30  33
ENDBRANCH  21  29
ENDBRANCH  14  21
ENDBRANCH   4  13
BRANCH   9  34
ATOM     34  O   UNL     1     109.440 129.604 135.600  0.00  0.00    +0.000 OA
BRANCH  34  42
ATOM     35  O   UNL     1     109.277 130.147 136.912  0.00  0.00    +0.000 OA
ATOM     36  O   UNL     1     107.671 131.808 136.026  0.00  0.00    +0.000 OA
ATOM     37  O   UNL     1     108.369 130.712 135.010  0.00  0.00    +0.000 OA
ATOM     38  O   UNL     1     108.044 131.796 137.633  0.00  0.00    +0.000 OA
ATOM     39  C   UNL     1     108.207 131.255 136.322  0.00  0.00    +0.000 C 
ATOM     40  C   UNL     1     108.556 130.706 135.813  0.00  0.00    +0.000 C 
ATOM     41  C   UNL     1     108.393 131.248 137.125  0.00  0.00    +0.000 C 
ATOM     42  C   UNL     1     109.091 130.153 136.108  0.00  0.00    +0.000 C 
ATOM     43  C   UNL     1     108.928 130.695 137.420  0.00  0.00    +0.000 C 
BRANCH  43  46
ATOM     44  O   UNL     1     108.635 130.277 138.755  0.00  0.00    +0.000 OA
ATOM     45  O   UNL     1     109.780 131.093 138.496  0.00  0.00    +0.000 OA
ATOM     46  C   UNL     1     109.115 130.689 138.223  0.00  0.00    +0.000 C 
ENDBRANCH  43  46
ENDBRANCH  34  42
ENDBRANCH   9  34
TORSDOF 8
ENDMDL
MODEL 5
REMARK VINA RESULT:     -10.1      1.271      2.221
REMARK  Name = 131834255
REMARK  8 active torsions:
REMARK  status: ('A' for Active; 'I' for Inactive)
REMARK    1  A    between atoms: O_3  and  C_24
REMARK    2  A    between atoms: O_3  and  C_34
REMARK    3  A    between atoms: O_5  and  C_25
REMARK    4  A    between atoms: O_5  and  C_35
REMARK    5  A    between atoms: C_26  and  C_40
REMARK    6  A    between atoms: C_27  and  C_41
REMARK    7  A    between atoms: C_28  and  C_32
REMARK    8  A    between atoms: C_38  and  C_45
REMARK                            x       y       z     vdW  Elec       q    Type
REMARK                         _______ _______ _______ _____ _____    ______ ____
ROOT
ATOM      1  O   UNL     1     111.743 128.959 136.414  0.00  0.00    +0.000 OA
ATOM      2  O   UNL     1     112.916 128.319 134.686  0.00  0.00    +0.000 OA
ATOM      3  O   UNL     1     113.847 130.880 135.931  0.00  0.00    +0.000 OA
ATOM      4  C   UNL     1     112.005 128.513 135.770  0.00  0.00    +0.000 C 
ATOM      5  C   UNL     1     112.655 128.765 135.330  0.00  0.00    +0.000 C 
ATOM      6  C   UNL     1     113.044 129.464 135.533  0.00  0.00    +0.000 C 
ATOM      7  C   UNL     1     112.783 129.910 136.176  0.00  0.00    +0.000 A 
ATOM      8  C   UNL     1     112.133 129.657 136.616  0.00  0.00    +0.000 A 
ATOM      9  C   UNL     1     112.254 130.842 137.504  0.00  0.00    +0.000 A 
ATOM     10  C   UNL     1     111.852 130.113 137.289  0.00  0.00    +0.000 A 
ATOM     11  C   UNL     1     113.197 130.635 136.377  0.00  0.00    +0.000 A 
ATOM     12  C   UNL     1     112.930 131.104 137.046  0.00  0.00    +0.000 A 
ENDROOT
BRANCH   4  13
ATOM     13  C   UNL     1     111.615 127.815 135.568  0.00  0.00    +0.000 A 
ATOM     14  C   UNL     1     111.477 126.397 135.679  0.00  0.00    +0.000 A 
ATOM     15  C   UNL     1     111.867 127.095 135.882  0.00  0.00    +0.000 A 
ATOM     16  C   UNL     1     110.834 126.419 135.162  0.00  0.00    +0.000 A 
ATOM     17  C   UNL     1     110.972 127.837 135.052  0.00  0.00    +0.000 A 
ATOM     18  C   UNL     1     110.581 127.139 134.849  0.00  0.00    +0.000 A 
BRANCH  16  19
ATOM     19  C   UNL     1     110.444 125.721 134.960  0.00  0.00    +0.000 C 
ATOM     20  C   UNL     1     109.697 125.751 134.612  0.00  0.00    +0.000 C 
ENDBRANCH  16  19
BRANCH  14  21
ATOM     21  O   UNL     1     111.729 125.677 135.992  0.00  0.00    +0.000 OA
BRANCH  21  29
ATOM     22  O   UNL     1     111.508 125.842 137.394  0.00  0.00    +0.000 OA
ATOM     23  O   UNL     1     113.830 125.117 137.848  0.00  0.00    +0.000 OA
ATOM     24  O   UNL     1     113.278 125.193 136.295  0.00  0.00    +0.000 OA
ATOM     25  O   UNL     1     112.833 125.524 139.098  0.00  0.00    +0.000 OA
ATOM     26  C   UNL     1     113.056 125.359 137.697  0.00  0.00    +0.000 C 
ATOM     27  C   UNL     1     112.780 125.397 136.920  0.00  0.00    +0.000 C 
ATOM     28  C   UNL     1     112.558 125.562 138.322  0.00  0.00    +0.000 C 
ATOM     29  C   UNL     1     112.006 125.638 136.768  0.00  0.00    +0.000 C 
ATOM     30  C   UNL     1     111.783 125.804 138.170  0.00  0.00    +0.000 C 
BRANCH  30  33
ATOM     31  O   UNL     1     110.791 125.437 139.131  0.00  0.00    +0.000 OA
ATOM     32  O   UNL     1     111.282 126.779 139.088  0.00  0.00    +0.000 OA
ATOM     33  C   UNL     1     111.286 126.007 138.796  0.00  0.00    +0.000 C 
ENDBRANCH  30  33
ENDBRANCH  21  29
ENDBRANCH  14  21
ENDBRANCH   4  13
BRANCH   9  34
ATOM     34  O   UNL     1     111.991 131.286 138.148  0.00  0.00    +0.000 OA
BRANCH  34  42
ATOM     35  O   UNL     1     111.079 132.132 137.444  0.00  0.00    +0.000 OA
ATOM     36  O   UNL     1     109.474 131.964 139.321  0.00  0.00    +0.000 OA
ATOM     37  O   UNL     1     110.921 131.174 139.399  0.00  0.00    +0.000 OA
ATOM     38  O   UNL     1     109.099 132.866 137.992  0.00  0.00    +0.000 OA
ATOM     39  C   UNL     1     110.009 132.020 138.695  0.00  0.00    +0.000 C 
ATOM     40  C   UNL     1     110.733 131.625 138.734  0.00  0.00    +0.000 C 
ATOM     41  C   UNL     1     109.822 132.471 138.030  0.00  0.00    +0.000 C 
ATOM     42  C   UNL     1     111.267 131.680 138.110  0.00  0.00    +0.000 C 
ATOM     43  C   UNL     1     110.356 132.527 137.406  0.00  0.00    +0.000 C 
BRANCH  43  46
ATOM     44  O   UNL     1     110.480 133.738 136.657  0.00  0.00    +0.000 OA
ATOM     45  O   UNL     1     109.671 132.669 136.160  0.00  0.00    +0.000 OA
ATOM     46  C   UNL     1     110.169 132.977 136.741  0.00  0.00    +0.000 C 
ENDBRANCH  43  46
ENDBRANCH  34  42
ENDBRANCH   9  34
TORSDOF 8
ENDMDL
MODEL 6
REMARK VINA RESULT:     -10.1      8.641     11.035
REMARK  Name = 131834255
REMARK  8 active torsions:
REMARK  status: ('A' for Active; 'I' for Inactive)
REMARK    1  A    between atoms: O_3  and  C_24
REMARK    2  A    between atoms: O_3  and  C_34
REMARK    3  A    between atoms: O_5  and  C_25
REMARK    4  A    between atoms: O_5  and  C_35
REMARK    5  A    between atoms: C_26  and  C_40
REMARK    6  A    between atoms: C_27  and  C_41
REMARK    7  A    between atoms: C_28  and  C_32
REMARK    8  A    between atoms: C_38  and  C_45
REMARK                            x       y       z     vdW  Elec       q    Type
REMARK                         _______ _______ _______ _____ _____    ______ ____
ROOT
ATOM      1  O   UNL     1     106.405 126.198 145.442  0.00  0.00    +0.000 OA
ATOM      2  O   UNL     1     106.894 127.571 147.068  0.00  0.00    +0.000 OA
ATOM      3  O   UNL     1     106.560 128.887 144.398  0.00  0.00    +0.000 OA
ATOM      4  C   UNL     1     106.586 126.481 146.197  0.00  0.00    +0.000 C 
ATOM      5  C   UNL     1     106.714 127.288 146.314  0.00  0.00    +0.000 C 
ATOM      6  C   UNL     1     106.662 127.811 145.678  0.00  0.00    +0.000 C 
ATOM      7  C   UNL     1     106.481 127.528 144.925  0.00  0.00    +0.000 A 
ATOM      8  C   UNL     1     106.353 126.721 144.807  0.00  0.00    +0.000 A 
ATOM      9  C   UNL     1     106.109 126.955 143.361  0.00  0.00    +0.000 A 
ATOM     10  C   UNL     1     106.165 126.414 144.026  0.00  0.00    +0.000 A 
ATOM     11  C   UNL     1     106.430 128.083 144.271  0.00  0.00    +0.000 A 
ATOM     12  C   UNL     1     106.242 127.794 143.483  0.00  0.00    +0.000 A 
ENDROOT
BRANCH   4  13
ATOM     13  C   UNL     1     106.638 125.958 146.832  0.00  0.00    +0.000 A 
ATOM     14  C   UNL     1     106.004 125.144 147.821  0.00  0.00    +0.000 A 
ATOM     15  C   UNL     1     105.951 125.668 147.186  0.00  0.00    +0.000 A 
ATOM     16  C   UNL     1     106.743 124.910 148.102  0.00  0.00    +0.000 A 
ATOM     17  C   UNL     1     107.377 125.724 147.113  0.00  0.00    +0.000 A 
ATOM     18  C   UNL     1     107.430 125.200 147.748  0.00  0.00    +0.000 A 
BRANCH  16  19
ATOM     19  C   UNL     1     106.795 124.387 148.737  0.00  0.00    +0.000 C 
ATOM     20  C   UNL     1     107.487 124.348 149.184  0.00  0.00    +0.000 C 
ENDBRANCH  16  19
BRANCH  14  21
ATOM     21  O   UNL     1     105.317 124.855 148.175  0.00  0.00    +0.000 OA
BRANCH  21  29
ATOM     22  O   UNL     1     104.685 124.208 147.069  0.00  0.00    +0.000 OA
ATOM     23  O   UNL     1     102.546 125.310 147.647  0.00  0.00    +0.000 OA
ATOM     24  O   UNL     1     103.891 125.590 148.561  0.00  0.00    +0.000 OA
ATOM     25  O   UNL     1     102.627 124.296 146.348  0.00  0.00    +0.000 OA
ATOM     26  C   UNL     1     103.259 124.943 147.454  0.00  0.00    +0.000 C 
ATOM     27  C   UNL     1     103.931 125.083 147.911  0.00  0.00    +0.000 C 
ATOM     28  C   UNL     1     103.299 124.435 146.805  0.00  0.00    +0.000 C 
ATOM     29  C   UNL     1     104.645 124.715 147.719  0.00  0.00    +0.000 C 
ATOM     30  C   UNL     1     104.012 124.068 146.612  0.00  0.00    +0.000 C 
BRANCH  30  33
ATOM     31  O   UNL     1     104.066 123.871 145.199  0.00  0.00    +0.000 OA
ATOM     32  O   UNL     1     104.078 122.744 146.077  0.00  0.00    +0.000 OA
ATOM     33  C   UNL     1     104.052 123.561 145.963  0.00  0.00    +0.000 C 
ENDBRANCH  30  33
ENDBRANCH  21  29
ENDBRANCH  14  21
ENDBRANCH   4  13
BRANCH   9  34
ATOM     34  O   UNL     1     105.929 126.669 142.608  0.00  0.00    +0.000 OA
BRANCH  34  42
ATOM     35  O   UNL     1     107.225 126.740 142.011  0.00  0.00    +0.000 OA
ATOM     36  O   UNL     1     106.885 124.504 141.006  0.00  0.00    +0.000 OA
ATOM     37  O   UNL     1     105.702 125.178 141.938  0.00  0.00    +0.000 OA
ATOM     38  O   UNL     1     108.293 125.321 140.743  0.00  0.00    +0.000 OA
ATOM     39  C   UNL     1     106.998 125.249 141.341  0.00  0.00    +0.000 C 
ATOM     40  C   UNL     1     106.406 125.587 141.807  0.00  0.00    +0.000 C 
ATOM     41  C   UNL     1     107.703 125.658 141.210  0.00  0.00    +0.000 C 
ATOM     42  C   UNL     1     106.520 126.331 142.142  0.00  0.00    +0.000 C 
ATOM     43  C   UNL     1     107.816 126.403 141.544  0.00  0.00    +0.000 C 
BRANCH  43  46
ATOM     44  O   UNL     1     109.168 126.686 141.910  0.00  0.00    +0.000 OA
ATOM     45  O   UNL     1     108.577 127.346 140.787  0.00  0.00    +0.000 OA
ATOM     46  C   UNL     1     108.520 126.812 141.413  0.00  0.00    +0.000 C 
ENDBRANCH  43  46
ENDBRANCH  34  42
ENDBRANCH   9  34
TORSDOF 8
ENDMDL
MODEL 7
REMARK VINA RESULT:     -10.0      2.822      4.866
REMARK  Name = 131834255
REMARK  8 active torsions:
REMARK  status: ('A' for Active; 'I' for Inactive)
REMARK    1  A    between atoms: O_3  and  C_24
REMARK    2  A    between atoms: O_3  and  C_34
REMARK    3  A    between atoms: O_5  and  C_25
REMARK    4  A    between atoms: O_5  and  C_35
REMARK    5  A    between atoms: C_26  and  C_40
REMARK    6  A    between atoms: C_27  and  C_41
REMARK    7  A    between atoms: C_28  and  C_32
REMARK    8  A    between atoms: C_38  and  C_45
REMARK                            x       y       z     vdW  Elec       q    Type
REMARK                         _______ _______ _______ _____ _____    ______ ____
ROOT
ATOM      1  O   UNL     1     112.057 127.426 139.136  0.00  0.00    +0.000 OA
ATOM      2  O   UNL     1     113.606 128.965 139.145  0.00  0.00    +0.000 OA
ATOM      3  O   UNL     1     112.699 128.111 141.868  0.00  0.00    +0.000 OA
ATOM      4  C   UNL     1     112.614 127.974 138.869  0.00  0.00    +0.000 C 
ATOM      5  C   UNL     1     113.050 128.417 139.411  0.00  0.00    +0.000 C 
ATOM      6  C   UNL     1     112.930 128.312 140.221  0.00  0.00    +0.000 C 
ATOM      7  C   UNL     1     112.374 127.764 140.488  0.00  0.00    +0.000 A 
ATOM      8  C   UNL     1     111.938 127.321 139.945  0.00  0.00    +0.000 A 
ATOM      9  C   UNL     1     111.226 126.634 141.053  0.00  0.00    +0.000 A 
ATOM     10  C   UNL     1     111.355 126.747 140.211  0.00  0.00    +0.000 A 
ATOM     11  C   UNL     1     112.258 127.664 141.333  0.00  0.00    +0.000 A 
ATOM     12  C   UNL     1     111.680 127.094 141.617  0.00  0.00    +0.000 A 
ENDROOT
BRANCH   4  13
ATOM     13  C   UNL     1     112.733 128.079 138.060  0.00  0.00    +0.000 A 
ATOM     14  C   UNL     1     113.207 127.588 136.804  0.00  0.00    +0.000 A 
ATOM     15  C   UNL     1     113.088 127.482 137.614  0.00  0.00    +0.000 A 
ATOM     16  C   UNL     1     112.971 128.290 136.440  0.00  0.00    +0.000 A 
ATOM     17  C   UNL     1     112.498 128.781 137.696  0.00  0.00    +0.000 A 
ATOM     18  C   UNL     1     112.617 128.886 136.886  0.00  0.00    +0.000 A 
BRANCH  16  19
ATOM     19  C   UNL     1     113.091 128.394 135.631  0.00  0.00    +0.000 C 
ATOM     20  C   UNL     1     112.995 129.141 135.293  0.00  0.00    +0.000 C 
ENDBRANCH  16  19
BRANCH  14  21
ATOM     21  O   UNL     1     113.562 126.991 136.358  0.00  0.00    +0.000 OA
BRANCH  21  29
ATOM     22  O   UNL     1     112.518 126.017 136.359  0.00  0.00    +0.000 OA
ATOM     23  O   UNL     1     114.169 124.247 136.875  0.00  0.00    +0.000 OA
ATOM     24  O   UNL     1     114.664 125.811 136.702  0.00  0.00    +0.000 OA
ATOM     25  O   UNL     1     112.574 123.862 136.703  0.00  0.00    +0.000 OA
ATOM     26  C   UNL     1     113.619 124.837 136.703  0.00  0.00    +0.000 C 
ATOM     27  C   UNL     1     113.866 125.619 136.616  0.00  0.00    +0.000 C 
ATOM     28  C   UNL     1     112.821 124.644 136.617  0.00  0.00    +0.000 C 
ATOM     29  C   UNL     1     113.316 126.209 136.444  0.00  0.00    +0.000 C 
ATOM     30  C   UNL     1     112.271 125.234 136.445  0.00  0.00    +0.000 C 
BRANCH  30  33
ATOM     31  O   UNL     1     111.164 124.891 135.609  0.00  0.00    +0.000 OA
ATOM     32  O   UNL     1     110.985 124.998 137.023  0.00  0.00    +0.000 OA
ATOM     33  C   UNL     1     111.473 125.041 136.359  0.00  0.00    +0.000 C 
ENDBRANCH  30  33
ENDBRANCH  21  29
ENDBRANCH  14  21
ENDBRANCH   4  13
BRANCH   9  34
ATOM     34  O   UNL     1     110.669 126.085 141.317  0.00  0.00    +0.000 OA
BRANCH  34  42
ATOM     35  O   UNL     1     109.606 126.972 141.668  0.00  0.00    +0.000 OA
ATOM     36  O   UNL     1     107.981 125.457 140.578  0.00  0.00    +0.000 OA
ATOM     37  O   UNL     1     109.586 125.075 140.590  0.00  0.00    +0.000 OA
ATOM     38  O   UNL     1     107.460 126.849 141.293  0.00  0.00    +0.000 OA
ATOM     39  C   UNL     1     108.522 125.962 140.941  0.00  0.00    +0.000 C 
ATOM     40  C   UNL     1     109.326 125.771 140.947  0.00  0.00    +0.000 C 
ATOM     41  C   UNL     1     108.262 126.658 141.299  0.00  0.00    +0.000 C 
ATOM     42  C   UNL     1     109.867 126.276 141.310  0.00  0.00    +0.000 C 
ATOM     43  C   UNL     1     108.803 127.163 141.662  0.00  0.00    +0.000 C 
BRANCH  43  46
ATOM     44  O   UNL     1     108.397 127.876 142.832  0.00  0.00    +0.000 OA
ATOM     45  O   UNL     1     108.428 128.539 141.566  0.00  0.00    +0.000 OA
ATOM     46  C   UNL     1     108.543 127.859 142.020  0.00  0.00    +0.000 C 
ENDBRANCH  43  46
ENDBRANCH  34  42
ENDBRANCH   9  34
TORSDOF 8
ENDMDL
MODEL 8
REMARK VINA RESULT:     -10.0      2.048      3.174
REMARK  Name = 131834255
REMARK  8 active torsions:
REMARK  status: ('A' for Active; 'I' for Inactive)
REMARK    1  A    between atoms: O_3  and  C_24
REMARK    2  A    between atoms: O_3  and  C_34
REMARK    3  A    between atoms: O_5  and  C_25
REMARK    4  A    between atoms: O_5  and  C_35
REMARK    5  A    between atoms: C_26  and  C_40
REMARK    6  A    between atoms: C_27  and  C_41
REMARK    7  A    between atoms: C_28  and  C_32
REMARK    8  A    between atoms: C_38  and  C_45
REMARK                            x       y       z     vdW  Elec       q    Type
REMARK                         _______ _______ _______ _____ _____    ______ ____
ROOT
ATOM      1  O   UNL     1     110.518 127.344 136.137  0.00  0.00    +0.000 OA
ATOM      2  O   UNL     1     112.604 127.050 135.562  0.00  0.00    +0.000 OA
ATOM      3  O   UNL     1     111.422 129.642 134.637  0.00  0.00    +0.000 OA
ATOM      4  C   UNL     1     111.264 126.998 136.055  0.00  0.00    +0.000 C 
ATOM      5  C   UNL     1     111.859 127.395 135.643  0.00  0.00    +0.000 C 
ATOM      6  C   UNL     1     111.709 128.136 135.313  0.00  0.00    +0.000 C 
ATOM      7  C   UNL     1     110.964 128.481 135.395  0.00  0.00    +0.000 A 
ATOM      8  C   UNL     1     110.369 128.085 135.806  0.00  0.00    +0.000 A 
ATOM      9  C   UNL     1     109.427 129.205 135.557  0.00  0.00    +0.000 A 
ATOM     10  C   UNL     1     109.589 128.434 135.898  0.00  0.00    +0.000 A 
ATOM     11  C   UNL     1     110.821 129.253 135.047  0.00  0.00    +0.000 A 
ATOM     12  C   UNL     1     110.046 129.618 135.128  0.00  0.00    +0.000 A 
ENDROOT
BRANCH   4  13
ATOM     13  C   UNL     1     111.413 126.258 136.385  0.00  0.00    +0.000 A 
ATOM     14  C   UNL     1     111.832 125.457 137.492  0.00  0.00    +0.000 A 
ATOM     15  C   UNL     1     111.683 126.198 137.162  0.00  0.00    +0.000 A 
ATOM     16  C   UNL     1     111.711 124.774 137.044  0.00  0.00    +0.000 A 
ATOM     17  C   UNL     1     111.292 125.575 135.937  0.00  0.00    +0.000 A 
ATOM     18  C   UNL     1     111.441 124.834 136.267  0.00  0.00    +0.000 A 
BRANCH  16  19
ATOM     19  C   UNL     1     111.860 124.033 137.374  0.00  0.00    +0.000 C 
ATOM     20  C   UNL     1     111.956 123.376 136.885  0.00  0.00    +0.000 C 
ENDBRANCH  16  19
BRANCH  14  21
ATOM     21  O   UNL     1     112.102 125.397 138.269  0.00  0.00    +0.000 OA
BRANCH  21  29
ATOM     22  O   UNL     1     110.915 125.709 138.999  0.00  0.00    +0.000 OA
ATOM     23  O   UNL     1     112.199 127.275 140.421  0.00  0.00    +0.000 OA
ATOM     24  O   UNL     1     112.959 126.441 139.217  0.00  0.00    +0.000 OA
ATOM     25  O   UNL     1     110.583 127.064 140.677  0.00  0.00    +0.000 OA
ATOM     26  C   UNL     1     111.771 126.753 139.947  0.00  0.00    +0.000 C 
ATOM     27  C   UNL     1     112.151 126.336 139.345  0.00  0.00    +0.000 C 
ATOM     28  C   UNL     1     110.963 126.648 140.075  0.00  0.00    +0.000 C 
ATOM     29  C   UNL     1     111.723 125.814 138.871  0.00  0.00    +0.000 C 
ATOM     30  C   UNL     1     110.535 126.126 139.601  0.00  0.00    +0.000 C 
BRANCH  30  33
ATOM     31  O   UNL     1     109.463 125.412 140.221  0.00  0.00    +0.000 OA
ATOM     32  O   UNL     1     109.182 126.524 139.368  0.00  0.00    +0.000 OA
ATOM     33  C   UNL     1     109.726 126.021 139.730  0.00  0.00    +0.000 C 
ENDBRANCH  30  33
ENDBRANCH  21  29
ENDBRANCH  14  21
ENDBRANCH   4  13
BRANCH   9  34
ATOM     34  O   UNL     1     108.681 129.548 135.640  0.00  0.00    +0.000 OA
BRANCH  34  42
ATOM     35  O   UNL     1     108.874 130.086 136.949  0.00  0.00    +0.000 OA
ATOM     36  O   UNL     1     107.592 132.104 136.308  0.00  0.00    +0.000 OA
ATOM     37  O   UNL     1     107.826 130.893 135.212  0.00  0.00    +0.000 OA
ATOM     38  O   UNL     1     108.212 131.970 137.831  0.00  0.00    +0.000 OA
ATOM     39  C   UNL     1     108.019 131.432 136.522  0.00  0.00    +0.000 C 
ATOM     40  C   UNL     1     108.137 130.825 135.974  0.00  0.00    +0.000 C 
ATOM     41  C   UNL     1     108.329 131.364 137.283  0.00  0.00    +0.000 C 
ATOM     42  C   UNL     1     108.563 130.154 136.187  0.00  0.00    +0.000 C 
ATOM     43  C   UNL     1     108.756 130.692 137.497  0.00  0.00    +0.000 C 
BRANCH  43  46
ATOM     44  O   UNL     1     108.641 130.226 138.842  0.00  0.00    +0.000 OA
ATOM     45  O   UNL     1     109.801 130.955 138.435  0.00  0.00    +0.000 OA
ATOM     46  C   UNL     1     109.066 130.625 138.258  0.00  0.00    +0.000 C 
ENDBRANCH  43  46
ENDBRANCH  34  42
ENDBRANCH   9  34
TORSDOF 8
ENDMDL
MODEL 9
REMARK VINA RESULT:     -10.0      2.047      3.269
REMARK  Name = 131834255
REMARK  8 active torsions:
REMARK  status: ('A' for Active; 'I' for Inactive)
REMARK    1  A    between atoms: O_3  and  C_24
REMARK    2  A    between atoms: O_3  and  C_34
REMARK    3  A    between atoms: O_5  and  C_25
REMARK    4  A    between atoms: O_5  and  C_35
REMARK    5  A    between atoms: C_26  and  C_40
REMARK    6  A    between atoms: C_27  and  C_41
REMARK    7  A    between atoms: C_28  and  C_32
REMARK    8  A    between atoms: C_38  and  C_45
REMARK                            x       y       z     vdW  Elec       q    Type
REMARK                         _______ _______ _______ _____ _____    ______ ____
ROOT
ATOM      1  O   UNL     1     111.656 128.457 137.019  0.00  0.00    +0.000 OA
ATOM      2  O   UNL     1     113.838 128.365 136.998  0.00  0.00    +0.000 OA
ATOM      3  O   UNL     1     112.636 129.720 134.613  0.00  0.00    +0.000 OA
ATOM      4  C   UNL     1     112.433 128.295 137.249  0.00  0.00    +0.000 C 
ATOM      5  C   UNL     1     113.062 128.527 136.769  0.00  0.00    +0.000 C 
ATOM      6  C   UNL     1     112.916 128.920 136.058  0.00  0.00    +0.000 C 
ATOM      7  C   UNL     1     112.140 129.082 135.828  0.00  0.00    +0.000 A 
ATOM      8  C   UNL     1     111.511 128.850 136.309  0.00  0.00    +0.000 A 
ATOM      9  C   UNL     1     110.540 129.422 135.341  0.00  0.00    +0.000 A 
ATOM     10  C   UNL     1     110.698 129.013 136.080  0.00  0.00    +0.000 A 
ATOM     11  C   UNL     1     112.001 129.492 135.087  0.00  0.00    +0.000 A 
ATOM     12  C   UNL     1     111.195 129.664 134.841  0.00  0.00    +0.000 A 
ENDROOT
BRANCH   4  13
ATOM     13  C   UNL     1     112.578 127.902 137.959  0.00  0.00    +0.000 A 
ATOM     14  C   UNL     1     112.565 126.702 138.735  0.00  0.00    +0.000 A 
ATOM     15  C   UNL     1     112.419 127.095 138.025  0.00  0.00    +0.000 A 
ATOM     16  C   UNL     1     112.870 127.116 139.381  0.00  0.00    +0.000 A 
ATOM     17  C   UNL     1     112.883 128.316 138.604  0.00  0.00    +0.000 A 
ATOM     18  C   UNL     1     113.029 127.923 139.315  0.00  0.00    +0.000 A 
BRANCH  16  19
ATOM     19  C   UNL     1     113.015 126.723 140.091  0.00  0.00    +0.000 C 
ATOM     20  C   UNL     1     113.284 127.144 140.748  0.00  0.00    +0.000 C 
ENDBRANCH  16  19
BRANCH  14  21
ATOM     21  O   UNL     1     112.406 125.895 138.801  0.00  0.00    +0.000 OA
BRANCH  21  29
ATOM     22  O   UNL     1     113.392 125.363 137.916  0.00  0.00    +0.000 OA
ATOM     23  O   UNL     1     111.687 123.881 136.905  0.00  0.00    +0.000 OA
ATOM     24  O   UNL     1     111.268 124.908 138.128  0.00  0.00    +0.000 OA
ATOM     25  O   UNL     1     113.242 123.843 136.357  0.00  0.00    +0.000 OA
ATOM     26  C   UNL     1     112.255 124.375 137.242  0.00  0.00    +0.000 C 
ATOM     27  C   UNL     1     112.046 124.888 137.853  0.00  0.00    +0.000 C 
ATOM     28  C   UNL     1     113.033 124.356 136.968  0.00  0.00    +0.000 C 
ATOM     29  C   UNL     1     112.614 125.382 138.190  0.00  0.00    +0.000 C 
ATOM     30  C   UNL     1     113.601 124.850 137.305  0.00  0.00    +0.000 C 
BRANCH  30  33
ATOM     31  O   UNL     1     114.575 125.207 136.323  0.00  0.00    +0.000 OA
ATOM     32  O   UNL     1     114.960 124.433 137.461  0.00  0.00    +0.000 OA
ATOM     33  C   UNL     1     114.379 124.830 137.030  0.00  0.00    +0.000 C 
ENDBRANCH  30  33
ENDBRANCH  21  29
ENDBRANCH  14  21
ENDBRANCH   4  13
BRANCH   9  34
ATOM     34  O   UNL     1     109.763 129.583 135.114  0.00  0.00    +0.000 OA
BRANCH  34  42
ATOM     35  O   UNL     1     109.730 130.926 135.601  0.00  0.00    +0.000 OA
ATOM     36  O   UNL     1     107.356 130.635 136.239  0.00  0.00    +0.000 OA
ATOM     37  O   UNL     1     108.181 129.389 135.539  0.00  0.00    +0.000 OA
ATOM     38  O   UNL     1     108.114 132.074 136.514  0.00  0.00    +0.000 OA
ATOM     39  C   UNL     1     108.147 130.732 136.026  0.00  0.00    +0.000 C 
ATOM     40  C   UNL     1     108.560 130.109 135.676  0.00  0.00    +0.000 C 
ATOM     41  C   UNL     1     108.527 131.451 136.164  0.00  0.00    +0.000 C 
ATOM     42  C   UNL     1     109.350 130.205 135.464  0.00  0.00    +0.000 C 
ATOM     43  C   UNL     1     109.317 131.548 135.951  0.00  0.00    +0.000 C 
BRANCH  43  46
ATOM     44  O   UNL     1     109.682 132.858 135.511  0.00  0.00    +0.000 OA
ATOM     45  O   UNL     1     110.091 132.397 136.801  0.00  0.00    +0.000 OA
ATOM     46  C   UNL     1     109.697 132.268 136.088  0.00  0.00    +0.000 C 
ENDBRANCH  43  46
ENDBRANCH  34  42
ENDBRANCH   9  34
TORSDOF 8
ENDMDL
MODEL 10
REMARK VINA RESULT:     -10.0      1.868      5.616
REMARK  Name = 131834255
REMARK  8 active torsions:
REMARK  status: ('A' for Active; 'I' for Inactive)
REMARK    1  A    between atoms: O_3  and  C_24
REMARK    2  A    between atoms: O_3  and  C_34
REMARK    3  A    between atoms: O_5  and  C_25
REMARK    4  A    between atoms: O_5  and  C_35
REMARK    5  A    between atoms: C_26  and  C_40
REMARK    6  A    between atoms: C_27  and  C_41
REMARK    7  A    between atoms: C_28  and  C_32
REMARK    8  A    between atoms: C_38  and  C_45
REMARK                            x       y       z     vdW  Elec       q    Type
REMARK                         _______ _______ _______ _____ _____    ______ ____
ROOT
ATOM      1  O   UNL     1     112.586 128.736 138.266  0.00  0.00    +0.000 OA
ATOM      2  O   UNL     1     113.803 130.541 138.433  0.00  0.00    +0.000 OA
ATOM      3  O   UNL     1     114.067 129.111 135.814  0.00  0.00    +0.000 OA
ATOM      4  C   UNL     1     112.926 129.422 138.575  0.00  0.00    +0.000 C 
ATOM      5  C   UNL     1     113.463 129.856 138.123  0.00  0.00    +0.000 C 
ATOM      6  C   UNL     1     113.658 129.606 137.362  0.00  0.00    +0.000 C 
ATOM      7  C   UNL     1     113.318 128.921 137.053  0.00  0.00    +0.000 A 
ATOM      8  C   UNL     1     112.782 128.486 137.505  0.00  0.00    +0.000 A 
ATOM      9  C   UNL     1     112.621 127.505 136.401  0.00  0.00    +0.000 A 
ATOM     10  C   UNL     1     112.421 127.770 137.194  0.00  0.00    +0.000 A 
ATOM     11  C   UNL     1     113.530 128.670 136.259  0.00  0.00    +0.000 A 
ATOM     12  C   UNL     1     113.179 127.957 135.931  0.00  0.00    +0.000 A 
ENDROOT
BRANCH   4  13
ATOM     13  C   UNL     1     112.730 129.671 139.336  0.00  0.00    +0.000 A 
ATOM     14  C   UNL     1     111.904 130.440 140.213  0.00  0.00    +0.000 A 
ATOM     15  C   UNL     1     112.099 130.190 139.451  0.00  0.00    +0.000 A 
ATOM     16  C   UNL     1     112.339 130.170 140.860  0.00  0.00    +0.000 A 
ATOM     17  C   UNL     1     113.165 129.401 139.983  0.00  0.00    +0.000 A 
ATOM     18  C   UNL     1     112.970 129.651 140.745  0.00  0.00    +0.000 A 
BRANCH  16  19
ATOM     19  C   UNL     1     112.143 130.420 141.621  0.00  0.00    +0.000 C 
ATOM     20  C   UNL     1     112.661 130.279 142.248  0.00  0.00    +0.000 C 
ENDBRANCH  16  19
BRANCH  14  21
ATOM     21  O   UNL     1     111.273 130.959 140.328  0.00  0.00    +0.000 OA
BRANCH  21  29
ATOM     22  O   UNL     1     110.184 130.081 140.037  0.00  0.00    +0.000 OA
ATOM     23  O   UNL     1     109.105 131.861 138.698  0.00  0.00    +0.000 OA
ATOM     24  O   UNL     1     110.554 132.146 139.435  0.00  0.00    +0.000 OA
ATOM     25  O   UNL     1     108.376 130.389 138.854  0.00  0.00    +0.000 OA
ATOM     26  C   UNL     1     109.465 131.268 139.144  0.00  0.00    +0.000 C 
ATOM     27  C   UNL     1     110.189 131.410 139.513  0.00  0.00    +0.000 C 
ATOM     28  C   UNL     1     109.100 130.532 139.222  0.00  0.00    +0.000 C 
ATOM     29  C   UNL     1     110.549 130.817 139.959  0.00  0.00    +0.000 C 
ATOM     30  C   UNL     1     109.460 129.938 139.669  0.00  0.00    +0.000 C 
BRANCH  30  33
ATOM     31  O   UNL     1     108.602 129.054 140.391  0.00  0.00    +0.000 OA
ATOM     32  O   UNL     1     109.221 128.617 139.180  0.00  0.00    +0.000 OA
ATOM     33  C   UNL     1     109.094 129.203 139.746  0.00  0.00    +0.000 C 
ENDBRANCH  30  33
ENDBRANCH  21  29
ENDBRANCH  14  21
ENDBRANCH   4  13
BRANCH   9  34
ATOM     34  O   UNL     1     112.279 126.820 136.094  0.00  0.00    +0.000 OA
BRANCH  34  42
ATOM     35  O   UNL     1     113.366 125.974 136.477  0.00  0.00    +0.000 OA
ATOM     36  O   UNL     1     111.804 124.068 136.703  0.00  0.00    +0.000 OA
ATOM     37  O   UNL     1     111.238 125.549 136.245  0.00  0.00    +0.000 OA
ATOM     38  O   UNL     1     113.411 123.859 137.010  0.00  0.00    +0.000 OA
ATOM     39  C   UNL     1     112.325 124.703 136.628  0.00  0.00    +0.000 C 
ATOM     40  C   UNL     1     112.042 125.444 136.398  0.00  0.00    +0.000 C 
ATOM     41  C   UNL     1     113.128 124.599 136.781  0.00  0.00    +0.000 C 
ATOM     42  C   UNL     1     112.562 126.079 136.323  0.00  0.00    +0.000 C 
ATOM     43  C   UNL     1     113.648 125.234 136.706  0.00  0.00    +0.000 C 
BRANCH  43  46
ATOM     44  O   UNL     1     114.730 125.156 137.637  0.00  0.00    +0.000 OA
ATOM     45  O   UNL     1     114.978 125.000 136.238  0.00  0.00    +0.000 OA
ATOM     46  C   UNL     1     114.452 125.130 136.860  0.00  0.00    +0.000 C 
ENDBRANCH  43  46
ENDBRANCH  34  42
ENDBRANCH   9  34
TORSDOF 8
ENDMDL
