MODEL 1
REMARK VINA RESULT:     -10.0      0.000      0.000
REMARK  Name = 42607820
REMARK  3 active torsions:
REMARK  status: ('A' for Active; 'I' for Inactive)
REMARK    1  A    between atoms: C_11  and  C_16
REMARK    2  A    between atoms: C_15  and  C_17
REMARK    3  A    between atoms: C_21  and  C_26
REMARK                            x       y       z     vdW  Elec       q    Type
REMARK                         _______ _______ _______ _____ _____    ______ ____
ROOT
ATOM      1  O   UNL     1     111.908 125.854 136.640  0.00  0.00    +0.000 OA
ATOM      2  O   UNL     1     114.620 125.657 137.594  0.00  0.00    +0.000 OA
ATOM      3  O   UNL     1     111.914 123.357 136.215  0.00  0.00    +0.000 OA
ATOM      4  C   UNL     1     113.275 125.741 137.118  0.00  0.00    +0.000 A 
ATOM      5  C   UNL     1     112.602 125.375 136.811  0.00  0.00    +0.000 A 
ATOM      6  C   UNL     1     113.946 125.292 137.287  0.00  0.00    +0.000 A 
ATOM      7  C   UNL     1     112.601 124.562 136.672  0.00  0.00    +0.000 A 
ATOM      8  C   UNL     1     111.205 125.480 136.319  0.00  0.00    +0.000 C 
ATOM      9  C   UNL     1     111.204 124.632 136.174  0.00  0.00    +0.000 C 
ATOM     10  C   UNL     1     111.906 124.170 136.351  0.00  0.00    +0.000 C 
ATOM     11  C   UNL     1     113.945 124.479 137.147  0.00  0.00    +0.000 A 
ATOM     12  C   UNL     1     113.273 124.114 136.840  0.00  0.00    +0.000 A 
ENDROOT
BRANCH   4  17
ATOM     13  O   UNL     1     113.423 127.078 136.639  0.00  0.00    +0.000 OA
ATOM     14  O   UNL     1     112.982 126.318 138.636  0.00  0.00    +0.000 OA
ATOM     15  O   UNL     1     112.985 127.944 138.915  0.00  0.00    +0.000 OA
ATOM     16  O   UNL     1     113.279 128.993 137.676  0.00  0.00    +0.000 OA
ATOM     17  C   UNL     1     113.276 126.554 137.258  0.00  0.00    +0.000 C 
ATOM     18  C   UNL     1     113.130 126.842 138.016  0.00  0.00    +0.000 C 
ATOM     19  C   UNL     1     113.131 127.655 138.155  0.00  0.00    +0.000 C 
ATOM     20  C   UNL     1     113.278 128.180 137.536  0.00  0.00    +0.000 C 
ATOM     21  C   UNL     1     113.424 127.891 136.778  0.00  0.00    +0.000 C 
BRANCH  21  23
ATOM     22  O   UNL     1     114.176 128.258 135.619  0.00  0.00    +0.000 OA
ATOM     23  C   UNL     1     113.572 128.416 136.158  0.00  0.00    +0.000 C 
ENDBRANCH  21  23
ENDBRANCH   4  17
BRANCH   8  26
ATOM     24  O   UNL     1     108.845 126.827 137.203  0.00  0.00    +0.000 OA
ATOM     25  O   UNL     1     108.522 127.283 135.650  0.00  0.00    +0.000 OA
ATOM     26  C   UNL     1     110.534 125.930 136.152  0.00  0.00    +0.000 A 
ATOM     27  C   UNL     1     110.025 126.153 136.761  0.00  0.00    +0.000 A 
ATOM     28  C   UNL     1     110.374 126.158 135.375  0.00  0.00    +0.000 A 
ATOM     29  C   UNL     1     109.354 126.604 136.594  0.00  0.00    +0.000 A 
ATOM     30  C   UNL     1     109.703 126.609 135.208  0.00  0.00    +0.000 A 
ATOM     31  C   UNL     1     109.194 126.832 135.817  0.00  0.00    +0.000 A 
ENDBRANCH   8  26
TORSDOF 3
ENDMDL
MODEL 2
REMARK VINA RESULT:     -10.0      0.980      3.443
REMARK  Name = 42607820
REMARK  3 active torsions:
REMARK  status: ('A' for Active; 'I' for Inactive)
REMARK    1  A    between atoms: C_11  and  C_16
REMARK    2  A    between atoms: C_15  and  C_17
REMARK    3  A    between atoms: C_21  and  C_26
REMARK                            x       y       z     vdW  Elec       q    Type
REMARK                         _______ _______ _______ _____ _____    ______ ____
ROOT
ATOM      1  O   UNL     1     112.815 126.352 136.599  0.00  0.00    +0.000 OA
ATOM      2  O   UNL     1     111.579 123.768 136.913  0.00  0.00    +0.000 OA
ATOM      3  O   UNL     1     115.086 125.229 136.630  0.00  0.00    +0.000 OA
ATOM      4  C   UNL     1     112.205 125.043 136.757  0.00  0.00    +0.000 A 
ATOM      5  C   UNL     1     112.889 125.499 136.684  0.00  0.00    +0.000 A 
ATOM      6  C   UNL     1     112.264 124.225 136.840  0.00  0.00    +0.000 A 
ATOM      7  C   UNL     1     113.630 125.136 136.694  0.00  0.00    +0.000 A 
ATOM      8  C   UNL     1     113.524 126.832 136.523  0.00  0.00    +0.000 C 
ATOM      9  C   UNL     1     114.296 126.454 136.533  0.00  0.00    +0.000 C 
ATOM     10  C   UNL     1     114.350 125.601 136.619  0.00  0.00    +0.000 C 
ATOM     11  C   UNL     1     113.005 123.862 136.850  0.00  0.00    +0.000 A 
ATOM     12  C   UNL     1     113.687 124.318 136.777  0.00  0.00    +0.000 A 
ENDROOT
BRANCH   4  17
ATOM     13  O   UNL     1     111.107 125.593 136.029  0.00  0.00    +0.000 OA
ATOM     14  O   UNL     1     111.439 125.393 138.176  0.00  0.00    +0.000 OA
ATOM     15  O   UNL     1     109.957 126.118 138.157  0.00  0.00    +0.000 OA
ATOM     16  O   UNL     1     109.242 126.494 136.718  0.00  0.00    +0.000 OA
ATOM     17  C   UNL     1     111.464 125.406 136.748  0.00  0.00    +0.000 C 
ATOM     18  C   UNL     1     111.082 125.580 137.457  0.00  0.00    +0.000 C 
ATOM     19  C   UNL     1     110.341 125.943 137.447  0.00  0.00    +0.000 C 
ATOM     20  C   UNL     1     109.982 126.131 136.728  0.00  0.00    +0.000 C 
ATOM     21  C   UNL     1     110.366 125.956 136.019  0.00  0.00    +0.000 C 
BRANCH  21  23
ATOM     22  O   UNL     1     110.227 125.744 134.612  0.00  0.00    +0.000 OA
ATOM     23  C   UNL     1     110.008 126.144 135.299  0.00  0.00    +0.000 C 
ENDBRANCH  21  23
ENDBRANCH   4  17
BRANCH   8  26
ATOM     24  O   UNL     1     113.234 129.423 137.693  0.00  0.00    +0.000 OA
ATOM     25  O   UNL     1     113.282 130.107 136.193  0.00  0.00    +0.000 OA
ATOM     26  C   UNL     1     113.463 127.650 136.440  0.00  0.00    +0.000 A 
ATOM     27  C   UNL     1     113.379 128.127 137.108  0.00  0.00    +0.000 A 
ATOM     28  C   UNL     1     113.487 127.992 135.689  0.00  0.00    +0.000 A 
ATOM     29  C   UNL     1     113.319 128.946 137.025  0.00  0.00    +0.000 A 
ATOM     30  C   UNL     1     113.427 128.811 135.607  0.00  0.00    +0.000 A 
ATOM     31  C   UNL     1     113.342 129.288 136.275  0.00  0.00    +0.000 A 
ENDBRANCH   8  26
TORSDOF 3
ENDMDL
MODEL 3
REMARK VINA RESULT:      -9.7     11.227     12.526
REMARK  Name = 42607820
REMARK  3 active torsions:
REMARK  status: ('A' for Active; 'I' for Inactive)
REMARK    1  A    between atoms: C_11  and  C_16
REMARK    2  A    between atoms: C_15  and  C_17
REMARK    3  A    between atoms: C_21  and  C_26
REMARK                            x       y       z     vdW  Elec       q    Type
REMARK                         _______ _______ _______ _____ _____    ______ ____
ROOT
ATOM      1  O   UNL     1     105.072 125.089 147.355  0.00  0.00    +0.000 OA
ATOM      2  O   UNL     1     107.789 125.763 146.672  0.00  0.00    +0.000 OA
ATOM      3  O   UNL     1     105.880 124.271 149.612  0.00  0.00    +0.000 OA
ATOM      4  C   UNL     1     106.446 125.424 147.024  0.00  0.00    +0.000 A 
ATOM      5  C   UNL     1     105.905 125.121 147.568  0.00  0.00    +0.000 A 
ATOM      6  C   UNL     1     107.247 125.459 147.216  0.00  0.00    +0.000 A 
ATOM      7  C   UNL     1     106.165 124.854 148.304  0.00  0.00    +0.000 A 
ATOM      8  C   UNL     1     104.504 124.775 147.917  0.00  0.00    +0.000 C 
ATOM      9  C   UNL     1     104.775 124.496 148.684  0.00  0.00    +0.000 C 
ATOM     10  C   UNL     1     105.611 124.536 148.879  0.00  0.00    +0.000 C 
ATOM     11  C   UNL     1     107.507 125.192 147.952  0.00  0.00    +0.000 A 
ATOM     12  C   UNL     1     106.966 124.889 148.495  0.00  0.00    +0.000 A 
ENDROOT
BRANCH   4  17
ATOM     13  O   UNL     1     105.874 126.451 146.212  0.00  0.00    +0.000 OA
ATOM     14  O   UNL     1     106.550 124.439 145.704  0.00  0.00    +0.000 OA
ATOM     15  O   UNL     1     106.029 124.974 144.233  0.00  0.00    +0.000 OA
ATOM     16  O   UNL     1     105.405 126.494 144.080  0.00  0.00    +0.000 OA
ATOM     17  C   UNL     1     106.186 125.691 146.288  0.00  0.00    +0.000 C 
ATOM     18  C   UNL     1     106.238 125.199 145.629  0.00  0.00    +0.000 C 
ATOM     19  C   UNL     1     105.978 125.467 144.893  0.00  0.00    +0.000 C 
ATOM     20  C   UNL     1     105.666 126.226 144.816  0.00  0.00    +0.000 C 
ATOM     21  C   UNL     1     105.614 126.718 145.476  0.00  0.00    +0.000 C 
BRANCH  21  23
ATOM     22  O   UNL     1     105.430 128.039 145.992  0.00  0.00    +0.000 OA
ATOM     23  C   UNL     1     105.302 127.479 145.400  0.00  0.00    +0.000 C 
ENDBRANCH  21  23
ENDBRANCH   4  17
BRANCH   8  26
ATOM     24  O   UNL     1     102.323 123.441 146.641  0.00  0.00    +0.000 OA
ATOM     25  O   UNL     1     101.300 124.636 147.138  0.00  0.00    +0.000 OA
ATOM     26  C   UNL     1     103.703 124.740 147.723  0.00  0.00    +0.000 A 
ATOM     27  C   UNL     1     103.413 124.108 147.279  0.00  0.00    +0.000 A 
ATOM     28  C   UNL     1     103.192 125.338 147.971  0.00  0.00    +0.000 A 
ATOM     29  C   UNL     1     102.612 124.073 147.084  0.00  0.00    +0.000 A 
ATOM     30  C   UNL     1     102.391 125.303 147.777  0.00  0.00    +0.000 A 
ATOM     31  C   UNL     1     102.101 124.671 147.333  0.00  0.00    +0.000 A 
ENDBRANCH   8  26
TORSDOF 3
ENDMDL
MODEL 4
REMARK VINA RESULT:      -9.5      1.397      3.647
REMARK  Name = 42607820
REMARK  3 active torsions:
REMARK  status: ('A' for Active; 'I' for Inactive)
REMARK    1  A    between atoms: C_11  and  C_16
REMARK    2  A    between atoms: C_15  and  C_17
REMARK    3  A    between atoms: C_21  and  C_26
REMARK                            x       y       z     vdW  Elec       q    Type
REMARK                         _______ _______ _______ _____ _____    ______ ____
ROOT
ATOM      1  O   UNL     1     112.424 127.276 136.098  0.00  0.00    +0.000 OA
ATOM      2  O   UNL     1     111.533 124.577 136.573  0.00  0.00    +0.000 OA
ATOM      3  O   UNL     1     110.405 127.642 134.612  0.00  0.00    +0.000 OA
ATOM      4  C   UNL     1     111.964 125.918 136.329  0.00  0.00    +0.000 A 
ATOM      5  C   UNL     1     111.850 126.649 135.964  0.00  0.00    +0.000 A 
ATOM      6  C   UNL     1     111.420 125.309 136.208  0.00  0.00    +0.000 A 
ATOM      7  C   UNL     1     111.193 126.771 135.480  0.00  0.00    +0.000 A 
ATOM      8  C   UNL     1     112.311 128.040 135.721  0.00  0.00    +0.000 C 
ATOM      9  C   UNL     1     111.627 128.167 135.216  0.00  0.00    +0.000 C 
ATOM     10  C   UNL     1     111.065 127.529 135.095  0.00  0.00    +0.000 C 
ATOM     11  C   UNL     1     110.764 125.432 135.724  0.00  0.00    +0.000 A 
ATOM     12  C   UNL     1     110.651 126.163 135.360  0.00  0.00    +0.000 A 
ENDROOT
BRANCH   4  17
ATOM     13  O   UNL     1     113.337 125.558 136.483  0.00  0.00    +0.000 OA
ATOM     14  O   UNL     1     111.841 126.148 137.958  0.00  0.00    +0.000 OA
ATOM     15  O   UNL     1     113.154 125.904 138.927  0.00  0.00    +0.000 OA
ATOM     16  O   UNL     1     114.589 125.428 138.267  0.00  0.00    +0.000 OA
ATOM     17  C   UNL     1     112.620 125.796 136.813  0.00  0.00    +0.000 C 
ATOM     18  C   UNL     1     112.559 125.911 137.627  0.00  0.00    +0.000 C 
ATOM     19  C   UNL     1     113.215 125.788 138.112  0.00  0.00    +0.000 C 
ATOM     20  C   UNL     1     113.933 125.551 137.782  0.00  0.00    +0.000 C 
ATOM     21  C   UNL     1     113.994 125.436 136.968  0.00  0.00    +0.000 C 
BRANCH  21  23
ATOM     22  O   UNL     1     114.967 125.525 135.924  0.00  0.00    +0.000 OA
ATOM     23  C   UNL     1     114.712 125.198 136.637  0.00  0.00    +0.000 C 
ENDBRANCH  21  23
ENDBRANCH   4  17
BRANCH   8  26
ATOM     24  O   UNL     1     114.734 129.372 135.000  0.00  0.00    +0.000 OA
ATOM     25  O   UNL     1     114.491 130.469 136.208  0.00  0.00    +0.000 OA
ATOM     26  C   UNL     1     112.856 128.647 135.843  0.00  0.00    +0.000 A 
ATOM     27  C   UNL     1     113.523 128.706 135.361  0.00  0.00    +0.000 A 
ATOM     28  C   UNL     1     112.734 129.196 136.447  0.00  0.00    +0.000 A 
ATOM     29  C   UNL     1     114.068 129.313 135.483  0.00  0.00    +0.000 A 
ATOM     30  C   UNL     1     113.279 129.803 136.569  0.00  0.00    +0.000 A 
ATOM     31  C   UNL     1     113.946 129.862 136.087  0.00  0.00    +0.000 A 
ENDBRANCH   8  26
TORSDOF 3
ENDMDL
MODEL 5
REMARK VINA RESULT:      -9.5      1.457      3.550
REMARK  Name = 42607820
REMARK  3 active torsions:
REMARK  status: ('A' for Active; 'I' for Inactive)
REMARK    1  A    between atoms: C_11  and  C_16
REMARK    2  A    between atoms: C_15  and  C_17
REMARK    3  A    between atoms: C_21  and  C_26
REMARK                            x       y       z     vdW  Elec       q    Type
REMARK                         _______ _______ _______ _____ _____    ______ ____
ROOT
ATOM      1  O   UNL     1     112.159 126.861 136.102  0.00  0.00    +0.000 OA
ATOM      2  O   UNL     1     110.550 128.729 134.612  0.00  0.00    +0.000 OA
ATOM      3  O   UNL     1     110.620 124.993 135.352  0.00  0.00    +0.000 OA
ATOM      4  C   UNL     1     111.339 127.792 135.347  0.00  0.00    +0.000 A 
ATOM      5  C   UNL     1     111.484 127.018 135.593  0.00  0.00    +0.000 A 
ATOM      6  C   UNL     1     110.695 127.955 134.858  0.00  0.00    +0.000 A 
ATOM      7  C   UNL     1     110.984 126.407 135.350  0.00  0.00    +0.000 A 
ATOM      8  C   UNL     1     112.315 126.057 136.362  0.00  0.00    +0.000 C 
ATOM      9  C   UNL     1     111.794 125.421 136.109  0.00  0.00    +0.000 C 
ATOM     10  C   UNL     1     111.125 125.597 135.600  0.00  0.00    +0.000 C 
ATOM     11  C   UNL     1     110.196 127.344 134.616  0.00  0.00    +0.000 A 
ATOM     12  C   UNL     1     110.341 126.571 134.862  0.00  0.00    +0.000 A 
ENDROOT
BRANCH   4  17
ATOM     13  O   UNL     1     112.544 128.543 135.186  0.00  0.00    +0.000 OA
ATOM     14  O   UNL     1     110.926 128.731 136.639  0.00  0.00    +0.000 OA
ATOM     15  O   UNL     1     111.925 129.952 137.124  0.00  0.00    +0.000 OA
ATOM     16  O   UNL     1     113.336 130.233 136.317  0.00  0.00    +0.000 OA
ATOM     17  C   UNL     1     111.838 128.402 135.589  0.00  0.00    +0.000 C 
ATOM     18  C   UNL     1     111.632 128.871 136.235  0.00  0.00    +0.000 C 
ATOM     19  C   UNL     1     112.131 129.482 136.478  0.00  0.00    +0.000 C 
ATOM     20  C   UNL     1     112.837 129.623 136.075  0.00  0.00    +0.000 C 
ATOM     21  C   UNL     1     113.043 129.153 135.429  0.00  0.00    +0.000 C 
BRANCH  21  23
ATOM     22  O   UNL     1     114.331 128.710 134.995  0.00  0.00    +0.000 OA
ATOM     23  C   UNL     1     113.749 129.294 135.025  0.00  0.00    +0.000 C 
ENDBRANCH  21  23
ENDBRANCH   4  17
BRANCH   8  26
ATOM     24  O   UNL     1     113.507 126.034 138.959  0.00  0.00    +0.000 OA
ATOM     25  O   UNL     1     114.894 125.414 138.318  0.00  0.00    +0.000 OA
ATOM     26  C   UNL     1     112.960 125.896 136.851  0.00  0.00    +0.000 A 
ATOM     27  C   UNL     1     112.911 126.045 137.660  0.00  0.00    +0.000 A 
ATOM     28  C   UNL     1     113.654 125.586 136.529  0.00  0.00    +0.000 A 
ATOM     29  C   UNL     1     113.556 125.885 138.149  0.00  0.00    +0.000 A 
ATOM     30  C   UNL     1     114.298 125.425 137.018  0.00  0.00    +0.000 A 
ATOM     31  C   UNL     1     114.249 125.575 137.828  0.00  0.00    +0.000 A 
ENDBRANCH   8  26
TORSDOF 3
ENDMDL
MODEL 6
REMARK VINA RESULT:      -9.4      1.475      4.130
REMARK  Name = 42607820
REMARK  3 active torsions:
REMARK  status: ('A' for Active; 'I' for Inactive)
REMARK    1  A    between atoms: C_11  and  C_16
REMARK    2  A    between atoms: C_15  and  C_17
REMARK    3  A    between atoms: C_21  and  C_26
REMARK                            x       y       z     vdW  Elec       q    Type
REMARK                         _______ _______ _______ _____ _____    ______ ____
ROOT
ATOM      1  O   UNL     1     112.689 126.088 138.287  0.00  0.00    +0.000 OA
ATOM      2  O   UNL     1     111.170 124.398 136.516  0.00  0.00    +0.000 OA
ATOM      3  O   UNL     1     114.799 124.887 137.567  0.00  0.00    +0.000 OA
ATOM      4  C   UNL     1     111.935 125.229 137.391  0.00  0.00    +0.000 A 
ATOM      5  C   UNL     1     112.663 125.450 137.711  0.00  0.00    +0.000 A 
ATOM      6  C   UNL     1     111.898 124.619 136.837  0.00  0.00    +0.000 A 
ATOM      7  C   UNL     1     113.352 125.061 137.479  0.00  0.00    +0.000 A 
ATOM      8  C   UNL     1     113.443 126.323 138.625  0.00  0.00    +0.000 C 
ATOM      9  C   UNL     1     114.161 125.917 138.382  0.00  0.00    +0.000 C 
ATOM     10  C   UNL     1     114.115 125.282 137.806  0.00  0.00    +0.000 C 
ATOM     11  C   UNL     1     112.587 124.229 136.605  0.00  0.00    +0.000 A 
ATOM     12  C   UNL     1     113.314 124.450 136.926  0.00  0.00    +0.000 A 
ENDROOT
BRANCH   4  17
ATOM     13  O   UNL     1     110.881 125.420 138.335  0.00  0.00    +0.000 OA
ATOM     14  O   UNL     1     111.289 126.406 136.431  0.00  0.00    +0.000 OA
ATOM     15  O   UNL     1     109.911 127.185 136.896  0.00  0.00    +0.000 OA
ATOM     16  O   UNL     1     109.179 126.787 138.321  0.00  0.00    +0.000 OA
ATOM     17  C   UNL     1     111.246 125.619 137.623  0.00  0.00    +0.000 C 
ATOM     18  C   UNL     1     110.924 126.207 137.144  0.00  0.00    +0.000 C 
ATOM     19  C   UNL     1     110.235 126.596 137.376  0.00  0.00    +0.000 C 
ATOM     20  C   UNL     1     109.868 126.398 138.088  0.00  0.00    +0.000 C 
ATOM     21  C   UNL     1     110.192 125.810 138.567  0.00  0.00    +0.000 C 
BRANCH  21  23
ATOM     22  O   UNL     1     110.254 125.227 139.872  0.00  0.00    +0.000 OA
ATOM     23  C   UNL     1     109.826 125.611 139.280  0.00  0.00    +0.000 C 
ENDBRANCH  21  23
ENDBRANCH   4  17
BRANCH   8  26
ATOM     24  O   UNL     1     113.431 129.115 139.232  0.00  0.00    +0.000 OA
ATOM     25  O   UNL     1     113.584 128.768 140.837  0.00  0.00    +0.000 OA
ATOM     26  C   UNL     1     113.478 126.934 139.178  0.00  0.00    +0.000 A 
ATOM     27  C   UNL     1     113.437 127.719 138.928  0.00  0.00    +0.000 A 
ATOM     28  C   UNL     1     113.555 126.760 139.981  0.00  0.00    +0.000 A 
ATOM     29  C   UNL     1     113.472 128.330 139.482  0.00  0.00    +0.000 A 
ATOM     30  C   UNL     1     113.590 127.371 140.534  0.00  0.00    +0.000 A 
ATOM     31  C   UNL     1     113.549 128.156 140.285  0.00  0.00    +0.000 A 
ENDBRANCH   8  26
TORSDOF 3
ENDMDL
MODEL 7
REMARK VINA RESULT:      -9.4      1.567      2.278
REMARK  Name = 42607820
REMARK  3 active torsions:
REMARK  status: ('A' for Active; 'I' for Inactive)
REMARK    1  A    between atoms: C_11  and  C_16
REMARK    2  A    between atoms: C_15  and  C_17
REMARK    3  A    between atoms: C_21  and  C_26
REMARK                            x       y       z     vdW  Elec       q    Type
REMARK                         _______ _______ _______ _____ _____    ______ ____
ROOT
ATOM      1  O   UNL     1     110.648 127.321 135.878  0.00  0.00    +0.000 OA
ATOM      2  O   UNL     1     112.598 125.439 136.854  0.00  0.00    +0.000 OA
ATOM      3  O   UNL     1     109.509 125.438 134.625  0.00  0.00    +0.000 OA
ATOM      4  C   UNL     1     111.624 126.362 136.362  0.00  0.00    +0.000 A 
ATOM      5  C   UNL     1     110.951 126.517 135.912  0.00  0.00    +0.000 A 
ATOM      6  C   UNL     1     111.924 125.595 136.403  0.00  0.00    +0.000 A 
ATOM      7  C   UNL     1     110.577 125.906 135.503  0.00  0.00    +0.000 A 
ATOM      8  C   UNL     1     109.947 127.490 135.411  0.00  0.00    +0.000 C 
ATOM      9  C   UNL     1     109.558 126.852 134.984  0.00  0.00    +0.000 C 
ATOM     10  C   UNL     1     109.875 126.055 135.031  0.00  0.00    +0.000 C 
ATOM     11  C   UNL     1     111.551 124.983 135.994  0.00  0.00    +0.000 A 
ATOM     12  C   UNL     1     110.878 125.139 135.544  0.00  0.00    +0.000 A 
ENDROOT
BRANCH   4  17
ATOM     13  O   UNL     1     112.535 127.462 136.382  0.00  0.00    +0.000 OA
ATOM     14  O   UNL     1     111.294 126.607 137.961  0.00  0.00    +0.000 OA
ATOM     15  O   UNL     1     112.041 127.830 138.779  0.00  0.00    +0.000 OA
ATOM     16  O   UNL     1     113.117 128.808 137.999  0.00  0.00    +0.000 OA
ATOM     17  C   UNL     1     111.997 126.973 136.772  0.00  0.00    +0.000 C 
ATOM     18  C   UNL     1     111.833 127.096 137.570  0.00  0.00    +0.000 C 
ATOM     19  C   UNL     1     112.206 127.707 137.979  0.00  0.00    +0.000 C 
ATOM     20  C   UNL     1     112.744 128.196 137.590  0.00  0.00    +0.000 C 
ATOM     21  C   UNL     1     112.908 128.073 136.791  0.00  0.00    +0.000 C 
BRANCH  21  23
ATOM     22  O   UNL     1     113.868 128.278 135.751  0.00  0.00    +0.000 OA
ATOM     23  C   UNL     1     113.447 128.563 136.401  0.00  0.00    +0.000 C 
ENDBRANCH  21  23
ENDBRANCH   4  17
BRANCH   8  26
ATOM     24  O   UNL     1     108.156 129.501 136.367  0.00  0.00    +0.000 OA
ATOM     25  O   UNL     1     108.753 130.563 135.254  0.00  0.00    +0.000 OA
ATOM     26  C   UNL     1     109.649 128.258 135.371  0.00  0.00    +0.000 A 
ATOM     27  C   UNL     1     109.051 128.496 135.889  0.00  0.00    +0.000 A 
ATOM     28  C   UNL     1     109.947 128.789 134.815  0.00  0.00    +0.000 A 
ATOM     29  C   UNL     1     108.753 129.264 135.849  0.00  0.00    +0.000 A 
ATOM     30  C   UNL     1     109.649 129.557 134.775  0.00  0.00    +0.000 A 
ATOM     31  C   UNL     1     109.052 129.794 135.293  0.00  0.00    +0.000 A 
ENDBRANCH   8  26
TORSDOF 3
ENDMDL
MODEL 8
REMARK VINA RESULT:      -9.3      1.651      3.715
REMARK  Name = 42607820
REMARK  3 active torsions:
REMARK  status: ('A' for Active; 'I' for Inactive)
REMARK    1  A    between atoms: C_11  and  C_16
REMARK    2  A    between atoms: C_15  and  C_17
REMARK    3  A    between atoms: C_21  and  C_26
REMARK                            x       y       z     vdW  Elec       q    Type
REMARK                         _______ _______ _______ _____ _____    ______ ____
ROOT
ATOM      1  O   UNL     1     111.562 126.598 136.692  0.00  0.00    +0.000 OA
ATOM      2  O   UNL     1     109.803 127.538 134.612  0.00  0.00    +0.000 OA
ATOM      3  O   UNL     1     111.255 124.234 135.835  0.00  0.00    +0.000 OA
ATOM      4  C   UNL     1     110.674 127.058 135.639  0.00  0.00    +0.000 A 
ATOM      5  C   UNL     1     111.059 126.433 136.013  0.00  0.00    +0.000 A 
ATOM      6  C   UNL     1     110.189 126.912 134.987  0.00  0.00    +0.000 A 
ATOM      7  C   UNL     1     110.961 125.662 135.736  0.00  0.00    +0.000 A 
ATOM      8  C   UNL     1     111.966 125.951 137.086  0.00  0.00    +0.000 C 
ATOM      9  C   UNL     1     111.864 125.148 136.798  0.00  0.00    +0.000 C 
ATOM     10  C   UNL     1     111.359 125.002 136.119  0.00  0.00    +0.000 C 
ATOM     11  C   UNL     1     110.091 126.141 134.710  0.00  0.00    +0.000 A 
ATOM     12  C   UNL     1     110.477 125.516 135.085  0.00  0.00    +0.000 A 
ENDROOT
BRANCH   4  17
ATOM     13  O   UNL     1     110.316 128.101 136.547  0.00  0.00    +0.000 OA
ATOM     14  O   UNL     1     111.781 128.055 134.929  0.00  0.00    +0.000 OA
ATOM     15  O   UNL     1     111.977 129.597 135.483  0.00  0.00    +0.000 OA
ATOM     16  O   UNL     1     111.066 130.142 136.746  0.00  0.00    +0.000 OA
ATOM     17  C   UNL     1     110.772 127.829 135.916  0.00  0.00    +0.000 C 
ATOM     18  C   UNL     1     111.325 128.327 135.561  0.00  0.00    +0.000 C 
ATOM     19  C   UNL     1     111.423 129.098 135.838  0.00  0.00    +0.000 C 
ATOM     20  C   UNL     1     110.968 129.371 136.469  0.00  0.00    +0.000 C 
ATOM     21  C   UNL     1     110.414 128.872 136.823  0.00  0.00    +0.000 C 
BRANCH  21  23
ATOM     22  O   UNL     1     109.274 128.741 137.676  0.00  0.00    +0.000 OA
ATOM     23  C   UNL     1     109.958 129.145 137.456  0.00  0.00    +0.000 C 
ENDBRANCH  21  23
ENDBRANCH   4  17
BRANCH   8  26
ATOM     24  O   UNL     1     112.290 126.263 139.908  0.00  0.00    +0.000 OA
ATOM     25  O   UNL     1     113.901 126.546 139.693  0.00  0.00    +0.000 OA
ATOM     26  C   UNL     1     112.450 126.100 137.738  0.00  0.00    +0.000 A 
ATOM     27  C   UNL     1     112.128 126.107 138.497  0.00  0.00    +0.000 A 
ATOM     28  C   UNL     1     113.256 126.241 137.630  0.00  0.00    +0.000 A 
ATOM     29  C   UNL     1     112.612 126.256 139.149  0.00  0.00    +0.000 A 
ATOM     30  C   UNL     1     113.739 126.390 138.281  0.00  0.00    +0.000 A 
ATOM     31  C   UNL     1     113.417 126.397 139.041  0.00  0.00    +0.000 A 
ENDBRANCH   8  26
TORSDOF 3
ENDMDL
MODEL 9
REMARK VINA RESULT:      -9.2      1.440      3.006
REMARK  Name = 42607820
REMARK  3 active torsions:
REMARK  status: ('A' for Active; 'I' for Inactive)
REMARK    1  A    between atoms: C_11  and  C_16
REMARK    2  A    between atoms: C_15  and  C_17
REMARK    3  A    between atoms: C_21  and  C_26
REMARK                            x       y       z     vdW  Elec       q    Type
REMARK                         _______ _______ _______ _____ _____    ______ ____
ROOT
ATOM      1  O   UNL     1     111.746 127.607 136.249  0.00  0.00    +0.000 OA
ATOM      2  O   UNL     1     114.163 126.218 136.978  0.00  0.00    +0.000 OA
ATOM      3  O   UNL     1     113.151 129.376 135.103  0.00  0.00    +0.000 OA
ATOM      4  C   UNL     1     112.972 126.917 136.610  0.00  0.00    +0.000 A 
ATOM      5  C   UNL     1     112.605 127.556 136.239  0.00  0.00    +0.000 A 
ATOM      6  C   UNL     1     113.795 126.857 136.607  0.00  0.00    +0.000 A 
ATOM      7  C   UNL     1     113.060 128.133 135.865  0.00  0.00    +0.000 A 
ATOM      8  C   UNL     1     111.358 128.269 135.864  0.00  0.00    +0.000 C 
ATOM      9  C   UNL     1     111.832 128.872 135.474  0.00  0.00    +0.000 C 
ATOM     10  C   UNL     1     112.688 128.803 135.474  0.00  0.00    +0.000 C 
ATOM     11  C   UNL     1     114.250 127.435 136.232  0.00  0.00    +0.000 A 
ATOM     12  C   UNL     1     113.882 128.073 135.862  0.00  0.00    +0.000 A 
ENDROOT
BRANCH   4  17
ATOM     13  O   UNL     1     112.194 125.721 136.545  0.00  0.00    +0.000 OA
ATOM     14  O   UNL     1     112.710 126.999 138.237  0.00  0.00    +0.000 OA
ATOM     15  O   UNL     1     111.801 125.844 138.986  0.00  0.00    +0.000 OA
ATOM     16  O   UNL     1     111.153 124.606 138.107  0.00  0.00    +0.000 OA
ATOM     17  C   UNL     1     112.517 126.339 136.984  0.00  0.00    +0.000 C 
ATOM     18  C   UNL     1     112.387 126.380 137.797  0.00  0.00    +0.000 C 
ATOM     19  C   UNL     1     111.932 125.803 138.171  0.00  0.00    +0.000 C 
ATOM     20  C   UNL     1     111.608 125.184 137.733  0.00  0.00    +0.000 C 
ATOM     21  C   UNL     1     111.739 125.144 136.919  0.00  0.00    +0.000 C 
BRANCH  21  23
ATOM     22  O   UNL     1     111.111 124.668 135.726  0.00  0.00    +0.000 OA
ATOM     23  C   UNL     1     111.414 124.525 136.480  0.00  0.00    +0.000 C 
ENDBRANCH  21  23
ENDBRANCH   4  17
BRANCH   8  26
ATOM     24  O   UNL     1     108.944 129.127 137.132  0.00  0.00    +0.000 OA
ATOM     25  O   UNL     1     108.065 128.503 135.883  0.00  0.00    +0.000 OA
ATOM     26  C   UNL     1     110.535 128.328 135.869  0.00  0.00    +0.000 A 
ATOM     27  C   UNL     1     110.151 128.698 136.498  0.00  0.00    +0.000 A 
ATOM     28  C   UNL     1     110.095 128.015 135.244  0.00  0.00    +0.000 A 
ATOM     29  C   UNL     1     109.328 128.757 136.503  0.00  0.00    +0.000 A 
ATOM     30  C   UNL     1     109.273 128.073 135.249  0.00  0.00    +0.000 A 
ATOM     31  C   UNL     1     108.889 128.444 135.878  0.00  0.00    +0.000 A 
ENDBRANCH   8  26
TORSDOF 3
ENDMDL
MODEL 10
REMARK VINA RESULT:      -9.2      1.457      3.722
REMARK  Name = 42607820
REMARK  3 active torsions:
REMARK  status: ('A' for Active; 'I' for Inactive)
REMARK    1  A    between atoms: C_11  and  C_16
REMARK    2  A    between atoms: C_15  and  C_17
REMARK    3  A    between atoms: C_21  and  C_26
REMARK                            x       y       z     vdW  Elec       q    Type
REMARK                         _______ _______ _______ _____ _____    ______ ____
ROOT
ATOM      1  O   UNL     1     110.820 126.154 136.751  0.00  0.00    +0.000 OA
ATOM      2  O   UNL     1     109.014 128.350 137.214  0.00  0.00    +0.000 OA
ATOM      3  O   UNL     1     109.571 125.623 134.612  0.00  0.00    +0.000 OA
ATOM      4  C   UNL     1     109.903 127.258 136.972  0.00  0.00    +0.000 A 
ATOM      5  C   UNL     1     110.144 126.624 136.502  0.00  0.00    +0.000 A 
ATOM      6  C   UNL     1     109.256 127.716 136.744  0.00  0.00    +0.000 A 
ATOM      7  C   UNL     1     109.739 126.449 135.805  0.00  0.00    +0.000 A 
ATOM      8  C   UNL     1     111.077 125.493 136.266  0.00  0.00    +0.000 C 
ATOM      9  C   UNL     1     110.655 125.310 135.539  0.00  0.00    +0.000 C 
ATOM     10  C   UNL     1     109.982 125.791 135.308  0.00  0.00    +0.000 C 
ATOM     11  C   UNL     1     108.851 127.540 136.047  0.00  0.00    +0.000 A 
ATOM     12  C   UNL     1     109.093 126.907 135.578  0.00  0.00    +0.000 A 
ENDROOT
BRANCH   4  17
ATOM     13  O   UNL     1     110.999 127.882 137.642  0.00  0.00    +0.000 OA
ATOM     14  O   UNL     1     109.331 126.708 138.419  0.00  0.00    +0.000 OA
ATOM     15  O   UNL     1     110.141 127.059 139.813  0.00  0.00    +0.000 OA
ATOM     16  O   UNL     1     111.523 127.959 139.760  0.00  0.00    +0.000 OA
ATOM     17  C   UNL     1     110.308 127.433 137.669  0.00  0.00    +0.000 C 
ATOM     18  C   UNL     1     110.022 127.158 138.392  0.00  0.00    +0.000 C 
ATOM     19  C   UNL     1     110.427 127.334 139.089  0.00  0.00    +0.000 C 
ATOM     20  C   UNL     1     111.118 127.783 139.063  0.00  0.00    +0.000 C 
ATOM     21  C   UNL     1     111.404 128.058 138.339  0.00  0.00    +0.000 C 
BRANCH  21  23
ATOM     22  O   UNL     1     112.356 128.822 137.596  0.00  0.00    +0.000 OA
ATOM     23  C   UNL     1     112.095 128.508 138.313  0.00  0.00    +0.000 C 
ENDBRANCH  21  23
ENDBRANCH   4  17
BRANCH   8  26
ATOM     24  O   UNL     1     113.896 125.023 136.277  0.00  0.00    +0.000 OA
ATOM     25  O   UNL     1     113.667 123.665 137.185  0.00  0.00    +0.000 OA
ATOM     26  C   UNL     1     111.724 125.036 136.496  0.00  0.00    +0.000 A 
ATOM     27  C   UNL     1     112.486 125.258 136.271  0.00  0.00    +0.000 A 
ATOM     28  C   UNL     1     111.609 124.357 136.950  0.00  0.00    +0.000 A 
ATOM     29  C   UNL     1     113.134 124.801 136.501  0.00  0.00    +0.000 A 
ATOM     30  C   UNL     1     112.257 123.900 137.180  0.00  0.00    +0.000 A 
ATOM     31  C   UNL     1     113.019 124.122 136.955  0.00  0.00    +0.000 A 
ENDBRANCH   8  26
TORSDOF 3
ENDMDL
