MODEL 1
REMARK VINA RESULT:     -11.0      0.000      0.000
REMARK  Name = 74977719
REMARK  6 active torsions:
REMARK  status: ('A' for Active; 'I' for Inactive)
REMARK    1  A    between atoms: O_1  and  C_16
REMARK    2  A    between atoms: O_1  and  C_21
REMARK    3  A    between atoms: O_15  and  C_42
REMARK    4  A    between atoms: C_18  and  C_26
REMARK    5  A    between atoms: C_20  and  C_27
REMARK    6  A    between atoms: C_35  and  C_37
REMARK                            x       y       z     vdW  Elec       q    Type
REMARK                         _______ _______ _______ _____ _____    ______ ____
ROOT
ATOM      1  O   UNL     1     111.818 126.163 136.642  0.00  0.00    +0.000 OA
ATOM      2  O   UNL     1     114.562 125.924 137.485  0.00  0.00    +0.000 OA
ATOM      3  O   UNL     1     113.161 123.601 136.588  0.00  0.00    +0.000 OA
ATOM      4  O   UNL     1     111.786 123.678 136.158  0.00  0.00    +0.000 OA
ATOM      5  C   UNL     1     113.200 126.029 137.064  0.00  0.00    +0.000 A 
ATOM      6  C   UNL     1     112.513 125.677 136.774  0.00  0.00    +0.000 A 
ATOM      7  C   UNL     1     113.874 125.572 137.195  0.00  0.00    +0.000 A 
ATOM      8  C   UNL     1     112.499 124.867 136.615  0.00  0.00    +0.000 A 
ATOM      9  C   UNL     1     113.862 124.762 137.036  0.00  0.00    +0.000 A 
ATOM     10  C   UNL     1     113.174 124.410 136.746  0.00  0.00    +0.000 A 
ATOM     11  C   UNL     1     111.790 124.489 136.314  0.00  0.00    +0.000 A 
ATOM     12  C   UNL     1     111.098 125.803 136.340  0.00  0.00    +0.000 A 
ATOM     13  C   UNL     1     111.085 124.959 136.175  0.00  0.00    +0.000 A 
ENDROOT
BRANCH   5  19
ATOM     14  O   UNL     1     113.494 127.366 136.653  0.00  0.00    +0.000 OA
ATOM     15  O   UNL     1     112.697 128.213 138.837  0.00  0.00    +0.000 OA
ATOM     16  O   UNL     1     113.257 129.267 137.698  0.00  0.00    +0.000 OA
ATOM     17  C   UNL     1     112.949 127.121 137.951  0.00  0.00    +0.000 C 
ATOM     18  C   UNL     1     112.963 127.931 138.110  0.00  0.00    +0.000 C 
ATOM     19  C   UNL     1     113.214 126.839 137.223  0.00  0.00    +0.000 C 
ATOM     20  C   UNL     1     113.242 128.458 137.540  0.00  0.00    +0.000 C 
ATOM     21  C   UNL     1     113.508 128.175 136.811  0.00  0.00    +0.000 C 
BRANCH  21  23
ATOM     22  O   UNL     1     113.611 128.580 135.445  0.00  0.00    +0.000 OA
ATOM     23  C   UNL     1     113.788 128.702 136.241  0.00  0.00    +0.000 C 
ENDBRANCH  21  23
BRANCH  17  24
ATOM     24  O   UNL     1     112.669 126.594 138.520  0.00  0.00    +0.000 OA
BRANCH  24  29
ATOM     25  O   UNL     1     113.672 126.902 139.490  0.00  0.00    +0.000 OA
ATOM     26  O   UNL     1     111.584 126.312 139.731  0.00  0.00    +0.000 OA
ATOM     27  O   UNL     1     112.045 126.479 141.307  0.00  0.00    +0.000 OA
ATOM     28  O   UNL     1     113.590 126.929 141.672  0.00  0.00    +0.000 OA
ATOM     29  C   UNL     1     112.899 126.678 139.309  0.00  0.00    +0.000 C 
ATOM     30  C   UNL     1     112.357 126.537 139.914  0.00  0.00    +0.000 C 
ATOM     31  C   UNL     1     112.587 126.620 140.701  0.00  0.00    +0.000 C 
ATOM     32  C   UNL     1     113.359 126.845 140.884  0.00  0.00    +0.000 C 
ATOM     33  C   UNL     1     113.901 126.986 140.278  0.00  0.00    +0.000 C 
ATOM     34  C   UNL     1     114.675 127.211 140.461  0.00  0.00    +0.000 C 
ENDBRANCH  24  29
ENDBRANCH  17  24
ENDBRANCH   5  19
BRANCH  12  36
ATOM     35  O   UNL     1     108.594 126.836 137.250  0.00  0.00    +0.000 OA
ATOM     36  C   UNL     1     110.425 126.262 136.210  0.00  0.00    +0.000 A 
ATOM     37  C   UNL     1     109.846 126.320 136.795  0.00  0.00    +0.000 A 
ATOM     38  C   UNL     1     110.332 126.664 135.496  0.00  0.00    +0.000 A 
ATOM     39  C   UNL     1     109.174 126.779 136.666  0.00  0.00    +0.000 A 
ATOM     40  C   UNL     1     109.659 127.123 135.367  0.00  0.00    +0.000 A 
ATOM     41  C   UNL     1     109.080 127.181 135.951  0.00  0.00    +0.000 A 
BRANCH  41  42
ATOM     42  O   UNL     1     108.407 127.641 135.821  0.00  0.00    +0.000 OA
ATOM     43  C   UNL     1     108.484 128.439 135.628  0.00  0.00    +0.000 C 
ENDBRANCH  41  42
ENDBRANCH  12  36
TORSDOF 6
ENDMDL
MODEL 2
REMARK VINA RESULT:     -10.7      1.285      1.913
REMARK  Name = 74977719
REMARK  6 active torsions:
REMARK  status: ('A' for Active; 'I' for Inactive)
REMARK    1  A    between atoms: O_1  and  C_16
REMARK    2  A    between atoms: O_1  and  C_21
REMARK    3  A    between atoms: O_15  and  C_42
REMARK    4  A    between atoms: C_18  and  C_26
REMARK    5  A    between atoms: C_20  and  C_27
REMARK    6  A    between atoms: C_35  and  C_37
REMARK                            x       y       z     vdW  Elec       q    Type
REMARK                         _______ _______ _______ _____ _____    ______ ____
ROOT
ATOM      1  O   UNL     1     110.881 127.569 135.883  0.00  0.00    +0.000 OA
ATOM      2  O   UNL     1     113.097 125.948 136.758  0.00  0.00    +0.000 OA
ATOM      3  O   UNL     1     110.879 124.707 135.450  0.00  0.00    +0.000 OA
ATOM      4  O   UNL     1     109.750 125.484 134.997  0.00  0.00    +0.000 OA
ATOM      5  C   UNL     1     111.991 126.741 136.319  0.00  0.00    +0.000 A 
ATOM      6  C   UNL     1     111.253 126.798 135.955  0.00  0.00    +0.000 A 
ATOM      7  C   UNL     1     112.358 126.006 136.393  0.00  0.00    +0.000 A 
ATOM      8  C   UNL     1     110.882 126.120 135.665  0.00  0.00    +0.000 A 
ATOM      9  C   UNL     1     111.988 125.328 136.104  0.00  0.00    +0.000 A 
ATOM     10  C   UNL     1     111.249 125.385 135.739  0.00  0.00    +0.000 A 
ATOM     11  C   UNL     1     110.114 126.167 135.284  0.00  0.00    +0.000 A 
ATOM     12  C   UNL     1     110.112 127.635 135.504  0.00  0.00    +0.000 A 
ATOM     13  C   UNL     1     109.726 126.929 135.203  0.00  0.00    +0.000 A 
ENDROOT
BRANCH   5  19
ATOM     14  O   UNL     1     112.904 127.824 136.138  0.00  0.00    +0.000 OA
ATOM     15  O   UNL     1     112.393 128.638 138.418  0.00  0.00    +0.000 OA
ATOM     16  O   UNL     1     113.478 129.450 137.476  0.00  0.00    +0.000 OA
ATOM     17  C   UNL     1     112.192 127.689 137.368  0.00  0.00    +0.000 C 
ATOM     18  C   UNL     1     112.563 128.367 137.658  0.00  0.00    +0.000 C 
ATOM     19  C   UNL     1     112.362 127.418 136.609  0.00  0.00    +0.000 C 
ATOM     20  C   UNL     1     113.106 128.773 137.187  0.00  0.00    +0.000 C 
ATOM     21  C   UNL     1     113.276 128.501 136.426  0.00  0.00    +0.000 C 
BRANCH  21  23
ATOM     22  O   UNL     1     113.644 129.059 135.163  0.00  0.00    +0.000 OA
ATOM     23  C   UNL     1     113.818 128.907 135.955  0.00  0.00    +0.000 C 
ENDBRANCH  21  23
BRANCH  17  24
ATOM     24  O   UNL     1     111.650 127.283 137.839  0.00  0.00    +0.000 OA
BRANCH  24  29
ATOM     25  O   UNL     1     112.627 126.910 138.813  0.00  0.00    +0.000 OA
ATOM     26  O   UNL     1     110.477 127.240 138.999  0.00  0.00    +0.000 OA
ATOM     27  O   UNL     1     110.867 126.844 140.553  0.00  0.00    +0.000 OA
ATOM     28  O   UNL     1     112.430 126.493 140.947  0.00  0.00    +0.000 OA
ATOM     29  C   UNL     1     111.845 127.085 138.617  0.00  0.00    +0.000 C 
ATOM     30  C   UNL     1     111.259 127.064 139.197  0.00  0.00    +0.000 C 
ATOM     31  C   UNL     1     111.454 126.866 139.973  0.00  0.00    +0.000 C 
ATOM     32  C   UNL     1     112.235 126.690 140.170  0.00  0.00    +0.000 C 
ATOM     33  C   UNL     1     112.821 126.712 139.590  0.00  0.00    +0.000 C 
ATOM     34  C   UNL     1     113.603 126.536 139.787  0.00  0.00    +0.000 C 
ENDBRANCH  24  29
ENDBRANCH  17  24
ENDBRANCH   5  19
BRANCH  12  36
ATOM     35  O   UNL     1     108.171 129.534 136.395  0.00  0.00    +0.000 OA
ATOM     36  C   UNL     1     109.747 128.372 135.431  0.00  0.00    +0.000 A 
ATOM     37  C   UNL     1     109.141 128.585 135.949  0.00  0.00    +0.000 A 
ATOM     38  C   UNL     1     109.988 128.894 134.840  0.00  0.00    +0.000 A 
ATOM     39  C   UNL     1     108.776 129.321 135.877  0.00  0.00    +0.000 A 
ATOM     40  C   UNL     1     109.623 129.631 134.768  0.00  0.00    +0.000 A 
ATOM     41  C   UNL     1     109.017 129.844 135.286  0.00  0.00    +0.000 A 
BRANCH  41  42
ATOM     42  O   UNL     1     108.652 130.580 135.213  0.00  0.00    +0.000 OA
ATOM     43  C   UNL     1     108.998 131.168 134.747  0.00  0.00    +0.000 C 
ENDBRANCH  41  42
ENDBRANCH  12  36
TORSDOF 6
ENDMDL
MODEL 3
REMARK VINA RESULT:     -10.7      1.503      3.399
REMARK  Name = 74977719
REMARK  6 active torsions:
REMARK  status: ('A' for Active; 'I' for Inactive)
REMARK    1  A    between atoms: O_1  and  C_16
REMARK    2  A    between atoms: O_1  and  C_21
REMARK    3  A    between atoms: O_15  and  C_42
REMARK    4  A    between atoms: C_18  and  C_26
REMARK    5  A    between atoms: C_20  and  C_27
REMARK    6  A    between atoms: C_35  and  C_37
REMARK                            x       y       z     vdW  Elec       q    Type
REMARK                         _______ _______ _______ _____ _____    ______ ____
ROOT
ATOM      1  O   UNL     1     112.413 127.299 136.026  0.00  0.00    +0.000 OA
ATOM      2  O   UNL     1     111.522 124.594 136.463  0.00  0.00    +0.000 OA
ATOM      3  O   UNL     1     109.942 126.351 134.855  0.00  0.00    +0.000 OA
ATOM      4  O   UNL     1     110.353 127.712 134.613  0.00  0.00    +0.000 OA
ATOM      5  C   UNL     1     111.953 125.938 136.238  0.00  0.00    +0.000 A 
ATOM      6  C   UNL     1     111.833 126.679 135.896  0.00  0.00    +0.000 A 
ATOM      7  C   UNL     1     111.403 125.335 136.120  0.00  0.00    +0.000 A 
ATOM      8  C   UNL     1     111.163 126.817 135.434  0.00  0.00    +0.000 A 
ATOM      9  C   UNL     1     110.732 125.472 135.659  0.00  0.00    +0.000 A 
ATOM     10  C   UNL     1     110.612 126.214 135.316  0.00  0.00    +0.000 A 
ATOM     11  C   UNL     1     111.027 127.583 135.072  0.00  0.00    +0.000 A 
ATOM     12  C   UNL     1     112.294 128.073 135.671  0.00  0.00    +0.000 A 
ATOM     13  C   UNL     1     111.596 128.216 135.191  0.00  0.00    +0.000 A 
ENDROOT
BRANCH   5  19
ATOM     14  O   UNL     1     113.360 125.714 136.339  0.00  0.00    +0.000 OA
ATOM     15  O   UNL     1     113.160 125.558 138.801  0.00  0.00    +0.000 OA
ATOM     16  O   UNL     1     114.635 125.385 138.080  0.00  0.00    +0.000 OA
ATOM     17  C   UNL     1     112.557 125.748 137.519  0.00  0.00    +0.000 C 
ATOM     18  C   UNL     1     113.227 125.610 137.981  0.00  0.00    +0.000 C 
ATOM     19  C   UNL     1     112.623 125.800 136.699  0.00  0.00    +0.000 C 
ATOM     20  C   UNL     1     113.964 125.524 137.620  0.00  0.00    +0.000 C 
ATOM     21  C   UNL     1     114.031 125.575 136.799  0.00  0.00    +0.000 C 
BRANCH  21  23
ATOM     22  O   UNL     1     114.845 125.018 135.766  0.00  0.00    +0.000 OA
ATOM     23  C   UNL     1     114.768 125.489 136.439  0.00  0.00    +0.000 C 
ENDBRANCH  21  23
BRANCH  17  24
ATOM     24  O   UNL     1     111.819 125.835 137.879  0.00  0.00    +0.000 OA
BRANCH  24  29
ATOM     25  O   UNL     1     112.166 126.984 138.655  0.00  0.00    +0.000 OA
ATOM     26  O   UNL     1     110.840 125.308 139.098  0.00  0.00    +0.000 OA
ATOM     27  O   UNL     1     110.697 126.194 140.483  0.00  0.00    +0.000 OA
ATOM     28  O   UNL     1     111.533 127.607 140.649  0.00  0.00    +0.000 OA
ATOM     29  C   UNL     1     111.748 126.278 138.572  0.00  0.00    +0.000 C 
ATOM     30  C   UNL     1     111.258 126.015 139.182  0.00  0.00    +0.000 C 
ATOM     31  C   UNL     1     111.186 126.457 139.873  0.00  0.00    +0.000 C 
ATOM     32  C   UNL     1     111.604 127.163 139.956  0.00  0.00    +0.000 C 
ATOM     33  C   UNL     1     112.094 127.426 139.347  0.00  0.00    +0.000 C 
ATOM     34  C   UNL     1     112.513 128.133 139.430  0.00  0.00    +0.000 C 
ENDBRANCH  24  29
ENDBRANCH  17  24
ENDBRANCH   5  19
BRANCH  12  36
ATOM     35  O   UNL     1     113.084 130.479 136.996  0.00  0.00    +0.000 OA
ATOM     36  C   UNL     1     112.846 128.674 135.791  0.00  0.00    +0.000 A 
ATOM     37  C   UNL     1     112.690 129.276 136.334  0.00  0.00    +0.000 A 
ATOM     38  C   UNL     1     113.555 128.674 135.369  0.00  0.00    +0.000 A 
ATOM     39  C   UNL     1     113.240 129.877 136.454  0.00  0.00    +0.000 A 
ATOM     40  C   UNL     1     114.106 129.275 135.490  0.00  0.00    +0.000 A 
ATOM     41  C   UNL     1     113.950 129.877 136.032  0.00  0.00    +0.000 A 
BRANCH  41  42
ATOM     42  O   UNL     1     114.502 130.479 136.152  0.00  0.00    +0.000 OA
ATOM     43  C   UNL     1     115.158 130.541 135.656  0.00  0.00    +0.000 C 
ENDBRANCH  41  42
ENDBRANCH  12  36
TORSDOF 6
ENDMDL
MODEL 4
REMARK VINA RESULT:     -10.6      1.536      4.301
REMARK  Name = 74977719
REMARK  6 active torsions:
REMARK  status: ('A' for Active; 'I' for Inactive)
REMARK    1  A    between atoms: O_1  and  C_16
REMARK    2  A    between atoms: O_1  and  C_21
REMARK    3  A    between atoms: O_15  and  C_42
REMARK    4  A    between atoms: C_18  and  C_26
REMARK    5  A    between atoms: C_20  and  C_27
REMARK    6  A    between atoms: C_35  and  C_37
REMARK                            x       y       z     vdW  Elec       q    Type
REMARK                         _______ _______ _______ _____ _____    ______ ____
ROOT
ATOM      1  O   UNL     1     112.218 126.803 137.365  0.00  0.00    +0.000 OA
ATOM      2  O   UNL     1     111.298 127.483 134.721  0.00  0.00    +0.000 OA
ATOM      3  O   UNL     1     110.751 124.883 135.773  0.00  0.00    +0.000 OA
ATOM      4  O   UNL     1     111.194 124.503 137.092  0.00  0.00    +0.000 OA
ATOM      5  C   UNL     1     111.749 127.133 136.032  0.00  0.00    +0.000 A 
ATOM      6  C   UNL     1     111.808 126.583 136.643  0.00  0.00    +0.000 A 
ATOM      7  C   UNL     1     111.357 126.933 135.334  0.00  0.00    +0.000 A 
ATOM      8  C   UNL     1     111.475 125.832 136.558  0.00  0.00    +0.000 A 
ATOM      9  C   UNL     1     111.024 126.183 135.247  0.00  0.00    +0.000 A 
ATOM     10  C   UNL     1     111.084 125.633 135.859  0.00  0.00    +0.000 A 
ATOM     11  C   UNL     1     111.530 125.251 137.187  0.00  0.00    +0.000 A 
ATOM     12  C   UNL     1     112.283 126.234 138.007  0.00  0.00    +0.000 A 
ATOM     13  C   UNL     1     111.937 125.453 137.916  0.00  0.00    +0.000 A 
ENDROOT
BRANCH   5  19
ATOM     14  O   UNL     1     112.846 128.028 135.845  0.00  0.00    +0.000 OA
ATOM     15  O   UNL     1     111.550 129.843 136.918  0.00  0.00    +0.000 OA
ATOM     16  O   UNL     1     113.081 130.133 136.373  0.00  0.00    +0.000 OA
ATOM     17  C   UNL     1     111.650 128.488 136.475  0.00  0.00    +0.000 C 
ATOM     18  C   UNL     1     111.982 129.238 136.560  0.00  0.00    +0.000 C 
ATOM     19  C   UNL     1     112.081 127.883 136.117  0.00  0.00    +0.000 C 
ATOM     20  C   UNL     1     112.747 129.383 136.288  0.00  0.00    +0.000 C 
ATOM     21  C   UNL     1     113.180 128.778 135.930  0.00  0.00    +0.000 C 
BRANCH  21  23
ATOM     22  O   UNL     1     114.473 128.296 135.560  0.00  0.00    +0.000 OA
ATOM     23  C   UNL     1     113.945 128.923 135.658  0.00  0.00    +0.000 C 
ENDBRANCH  21  23
BRANCH  17  24
ATOM     24  O   UNL     1     110.884 128.343 136.747  0.00  0.00    +0.000 OA
BRANCH  24  29
ATOM     25  O   UNL     1     110.221 129.208 135.823  0.00  0.00    +0.000 OA
ATOM     26  O   UNL     1     109.785 128.742 137.911  0.00  0.00    +0.000 OA
ATOM     27  O   UNL     1     108.572 129.807 137.569  0.00  0.00    +0.000 OA
ATOM     28  O   UNL     1     108.458 130.472 136.063  0.00  0.00    +0.000 OA
ATOM     29  C   UNL     1     110.277 128.875 136.576  0.00  0.00    +0.000 C 
ATOM     30  C   UNL     1     109.727 129.075 137.158  0.00  0.00    +0.000 C 
ATOM     31  C   UNL     1     109.121 129.607 136.987  0.00  0.00    +0.000 C 
ATOM     32  C   UNL     1     109.064 129.939 136.235  0.00  0.00    +0.000 C 
ATOM     33  C   UNL     1     109.614 129.740 135.653  0.00  0.00    +0.000 C 
ATOM     34  C   UNL     1     109.558 130.073 134.899  0.00  0.00    +0.000 C 
ENDBRANCH  24  29
ENDBRANCH  17  24
ENDBRANCH   5  19
BRANCH  12  36
ATOM     35  O   UNL     1     112.208 127.168 140.706  0.00  0.00    +0.000 OA
ATOM     36  C   UNL     1     112.675 126.436 138.704  0.00  0.00    +0.000 A 
ATOM     37  C   UNL     1     112.246 126.701 139.357  0.00  0.00    +0.000 A 
ATOM     38  C   UNL     1     113.497 126.374 138.747  0.00  0.00    +0.000 A 
ATOM     39  C   UNL     1     112.637 126.904 140.053  0.00  0.00    +0.000 A 
ATOM     40  C   UNL     1     113.888 126.577 139.445  0.00  0.00    +0.000 A 
ATOM     41  C   UNL     1     113.459 126.842 140.098  0.00  0.00    +0.000 A 
BRANCH  41  42
ATOM     42  O   UNL     1     113.851 127.044 140.795  0.00  0.00    +0.000 OA
ATOM     43  C   UNL     1     114.675 127.097 140.804  0.00  0.00    +0.000 C 
ENDBRANCH  41  42
ENDBRANCH  12  36
TORSDOF 6
ENDMDL
MODEL 5
REMARK VINA RESULT:     -10.5      9.654     11.940
REMARK  Name = 74977719
REMARK  6 active torsions:
REMARK  status: ('A' for Active; 'I' for Inactive)
REMARK    1  A    between atoms: O_1  and  C_16
REMARK    2  A    between atoms: O_1  and  C_21
REMARK    3  A    between atoms: O_15  and  C_42
REMARK    4  A    between atoms: C_18  and  C_26
REMARK    5  A    between atoms: C_20  and  C_27
REMARK    6  A    between atoms: C_35  and  C_37
REMARK                            x       y       z     vdW  Elec       q    Type
REMARK                         _______ _______ _______ _____ _____    ______ ____
ROOT
ATOM      1  O   UNL     1     105.076 125.036 147.319  0.00  0.00    +0.000 OA
ATOM      2  O   UNL     1     107.775 125.786 146.646  0.00  0.00    +0.000 OA
ATOM      3  O   UNL     1     107.220 124.714 149.236  0.00  0.00    +0.000 OA
ATOM      4  O   UNL     1     105.882 124.327 149.612  0.00  0.00    +0.000 OA
ATOM      5  C   UNL     1     106.440 125.410 146.992  0.00  0.00    +0.000 A 
ATOM      6  C   UNL     1     105.903 125.106 147.539  0.00  0.00    +0.000 A 
ATOM      7  C   UNL     1     107.237 125.482 147.193  0.00  0.00    +0.000 A 
ATOM      8  C   UNL     1     106.163 124.874 148.288  0.00  0.00    +0.000 A 
ATOM      9  C   UNL     1     107.497 125.250 147.941  0.00  0.00    +0.000 A 
ATOM     10  C   UNL     1     106.959 124.946 148.488  0.00  0.00    +0.000 A 
ATOM     11  C   UNL     1     105.613 124.556 148.866  0.00  0.00    +0.000 A 
ATOM     12  C   UNL     1     104.511 124.720 147.884  0.00  0.00    +0.000 A 
ATOM     13  C   UNL     1     104.782 124.479 148.663  0.00  0.00    +0.000 A 
ENDROOT
BRANCH   5  19
ATOM     14  O   UNL     1     106.222 125.114 145.612  0.00  0.00    +0.000 OA
ATOM     15  O   UNL     1     105.323 127.393 145.264  0.00  0.00    +0.000 OA
ATOM     16  O   UNL     1     105.405 126.336 143.999  0.00  0.00    +0.000 OA
ATOM     17  C   UNL     1     105.882 126.401 146.128  0.00  0.00    +0.000 C 
ATOM     18  C   UNL     1     105.623 126.633 145.380  0.00  0.00    +0.000 C 
ATOM     19  C   UNL     1     106.181 125.642 146.244  0.00  0.00    +0.000 C 
ATOM     20  C   UNL     1     105.664 126.105 144.747  0.00  0.00    +0.000 C 
ATOM     21  C   UNL     1     105.963 125.345 144.863  0.00  0.00    +0.000 C 
BRANCH  21  23
ATOM     22  O   UNL     1     106.076 124.007 144.375  0.00  0.00    +0.000 OA
ATOM     23  C   UNL     1     106.004 124.816 144.231  0.00  0.00    +0.000 C 
ENDBRANCH  21  23
BRANCH  17  24
ATOM     24  O   UNL     1     105.841 126.930 146.760  0.00  0.00    +0.000 OA
BRANCH  24  29
ATOM     25  O   UNL     1     106.776 127.873 146.234  0.00  0.00    +0.000 OA
ATOM     26  O   UNL     1     104.969 128.164 147.423  0.00  0.00    +0.000 OA
ATOM     27  O   UNL     1     105.468 129.724 147.228  0.00  0.00    +0.000 OA
ATOM     28  O   UNL     1     106.839 130.051 146.370  0.00  0.00    +0.000 OA
ATOM     29  C   UNL     1     106.091 127.711 146.663  0.00  0.00    +0.000 C 
ATOM     30  C   UNL     1     105.655 128.328 146.994  0.00  0.00    +0.000 C 
ATOM     31  C   UNL     1     105.904 129.107 146.896  0.00  0.00    +0.000 C 
ATOM     32  C   UNL     1     106.589 129.270 146.468  0.00  0.00    +0.000 C 
ATOM     33  C   UNL     1     107.025 128.653 146.137  0.00  0.00    +0.000 C 
ATOM     34  C   UNL     1     107.711 128.817 145.707  0.00  0.00    +0.000 C 
ENDBRANCH  24  29
ENDBRANCH  17  24
ENDBRANCH   5  19
BRANCH  12  36
ATOM     35  O   UNL     1     101.824 125.683 148.033  0.00  0.00    +0.000 OA
ATOM     36  C   UNL     1     103.715 124.649 147.681  0.00  0.00    +0.000 A 
ATOM     37  C   UNL     1     103.167 125.201 147.958  0.00  0.00    +0.000 A 
ATOM     38  C   UNL     1     103.466 124.027 147.200  0.00  0.00    +0.000 A 
ATOM     39  C   UNL     1     102.372 125.131 147.755  0.00  0.00    +0.000 A 
ATOM     40  C   UNL     1     102.669 123.956 146.997  0.00  0.00    +0.000 A 
ATOM     41  C   UNL     1     102.122 124.508 147.275  0.00  0.00    +0.000 A 
BRANCH  41  42
ATOM     42  O   UNL     1     101.325 124.437 147.071  0.00  0.00    +0.000 OA
ATOM     43  C   UNL     1     101.086 123.853 146.541  0.00  0.00    +0.000 C 
ENDBRANCH  41  42
ENDBRANCH  12  36
TORSDOF 6
ENDMDL
MODEL 6
REMARK VINA RESULT:     -10.5      1.852      4.766
REMARK  Name = 74977719
REMARK  6 active torsions:
REMARK  status: ('A' for Active; 'I' for Inactive)
REMARK    1  A    between atoms: O_1  and  C_16
REMARK    2  A    between atoms: O_1  and  C_21
REMARK    3  A    between atoms: O_15  and  C_42
REMARK    4  A    between atoms: C_18  and  C_26
REMARK    5  A    between atoms: C_20  and  C_27
REMARK    6  A    between atoms: C_35  and  C_37
REMARK                            x       y       z     vdW  Elec       q    Type
REMARK                         _______ _______ _______ _____ _____    ______ ____
ROOT
ATOM      1  O   UNL     1     112.133 127.659 137.168  0.00  0.00    +0.000 OA
ATOM      2  O   UNL     1     111.820 130.308 138.256  0.00  0.00    +0.000 OA
ATOM      3  O   UNL     1     113.869 129.815 136.325  0.00  0.00    +0.000 OA
ATOM      4  O   UNL     1     114.058 128.503 135.757  0.00  0.00    +0.000 OA
ATOM      5  C   UNL     1     111.986 128.998 137.709  0.00  0.00    +0.000 A 
ATOM      6  C   UNL     1     112.383 128.480 137.205  0.00  0.00    +0.000 A 
ATOM      7  C   UNL     1     112.217 129.789 137.752  0.00  0.00    +0.000 A 
ATOM      8  C   UNL     1     113.011 128.751 136.743  0.00  0.00    +0.000 A 
ATOM      9  C   UNL     1     112.844 130.061 137.291  0.00  0.00    +0.000 A 
ATOM     10  C   UNL     1     113.241 129.542 136.786  0.00  0.00    +0.000 A 
ATOM     11  C   UNL     1     113.431 128.222 136.214  0.00  0.00    +0.000 A 
ATOM     12  C   UNL     1     112.542 127.113 136.645  0.00  0.00    +0.000 A 
ATOM     13  C   UNL     1     113.196 127.397 136.165  0.00  0.00    +0.000 A 
ENDROOT
BRANCH   5  19
ATOM     14  O   UNL     1     111.497 128.463 138.940  0.00  0.00    +0.000 OA
ATOM     15  O   UNL     1     109.201 128.437 138.017  0.00  0.00    +0.000 OA
ATOM     16  O   UNL     1     109.477 127.911 139.556  0.00  0.00    +0.000 OA
ATOM     17  C   UNL     1     110.594 128.717 137.863  0.00  0.00    +0.000 C 
ATOM     18  C   UNL     1     109.966 128.446 138.324  0.00  0.00    +0.000 C 
ATOM     19  C   UNL     1     111.358 128.726 138.170  0.00  0.00    +0.000 C 
ATOM     20  C   UNL     1     110.104 128.182 139.094  0.00  0.00    +0.000 C 
ATOM     21  C   UNL     1     110.870 128.191 139.402  0.00  0.00    +0.000 C 
BRANCH  21  23
ATOM     22  O   UNL     1     111.724 127.564 140.360  0.00  0.00    +0.000 OA
ATOM     23  C   UNL     1     111.008 127.928 140.172  0.00  0.00    +0.000 C 
ENDBRANCH  21  23
BRANCH  17  24
ATOM     24  O   UNL     1     110.455 128.980 137.093  0.00  0.00    +0.000 OA
BRANCH  24  29
ATOM     25  O   UNL     1     109.659 130.108 137.461  0.00  0.00    +0.000 OA
ATOM     26  O   UNL     1     109.534 128.772 135.740  0.00  0.00    +0.000 OA
ATOM     27  O   UNL     1     108.278 129.795 135.431  0.00  0.00    +0.000 OA
ATOM     28  O   UNL     1     107.942 131.028 136.476  0.00  0.00    +0.000 OA
ATOM     29  C   UNL     1     109.826 129.493 136.939  0.00  0.00    +0.000 C 
ATOM     30  C   UNL     1     109.366 129.388 136.262  0.00  0.00    +0.000 C 
ATOM     31  C   UNL     1     108.738 129.900 136.108  0.00  0.00    +0.000 C 
ATOM     32  C   UNL     1     108.570 130.516 136.629  0.00  0.00    +0.000 C 
ATOM     33  C   UNL     1     109.031 130.620 137.306  0.00  0.00    +0.000 C 
ATOM     34  C   UNL     1     108.863 131.237 137.829  0.00  0.00    +0.000 C 
ENDBRANCH  24  29
ENDBRANCH  17  24
ENDBRANCH   5  19
BRANCH  12  36
ATOM     35  O   UNL     1     110.895 125.075 135.504  0.00  0.00    +0.000 OA
ATOM     36  C   UNL     1     112.309 126.323 136.604  0.00  0.00    +0.000 A 
ATOM     37  C   UNL     1     111.719 126.093 136.075  0.00  0.00    +0.000 A 
ATOM     38  C   UNL     1     112.666 125.761 137.092  0.00  0.00    +0.000 A 
ATOM     39  C   UNL     1     111.486 125.304 136.033  0.00  0.00    +0.000 A 
ATOM     40  C   UNL     1     112.433 124.971 137.050  0.00  0.00    +0.000 A 
ATOM     41  C   UNL     1     111.843 124.742 136.521  0.00  0.00    +0.000 A 
BRANCH  41  42
ATOM     42  O   UNL     1     111.610 123.952 136.480  0.00  0.00    +0.000 OA
ATOM     43  C   UNL     1     111.985 123.386 136.948  0.00  0.00    +0.000 C 
ENDBRANCH  41  42
ENDBRANCH  12  36
TORSDOF 6
ENDMDL
MODEL 7
REMARK VINA RESULT:     -10.4      2.068      4.013
REMARK  Name = 74977719
REMARK  6 active torsions:
REMARK  status: ('A' for Active; 'I' for Inactive)
REMARK    1  A    between atoms: O_1  and  C_16
REMARK    2  A    between atoms: O_1  and  C_21
REMARK    3  A    between atoms: O_15  and  C_42
REMARK    4  A    between atoms: C_18  and  C_26
REMARK    5  A    between atoms: C_20  and  C_27
REMARK    6  A    between atoms: C_35  and  C_37
REMARK                            x       y       z     vdW  Elec       q    Type
REMARK                         _______ _______ _______ _____ _____    ______ ____
ROOT
ATOM      1  O   UNL     1     113.002 128.974 136.457  0.00  0.00    +0.000 OA
ATOM      2  O   UNL     1     113.649 131.748 136.886  0.00  0.00    +0.000 OA
ATOM      3  O   UNL     1     115.335 130.154 135.217  0.00  0.00    +0.000 OA
ATOM      4  O   UNL     1     115.045 128.761 134.977  0.00  0.00    +0.000 OA
ATOM      5  C   UNL     1     113.339 130.370 136.665  0.00  0.00    +0.000 A 
ATOM      6  C   UNL     1     113.517 129.646 136.313  0.00  0.00    +0.000 A 
ATOM      7  C   UNL     1     113.827 131.022 136.534  0.00  0.00    +0.000 A 
ATOM      8  C   UNL     1     114.182 129.573 135.830  0.00  0.00    +0.000 A 
ATOM      9  C   UNL     1     114.492 130.951 136.052  0.00  0.00    +0.000 A 
ATOM     10  C   UNL     1     114.670 130.225 135.700  0.00  0.00    +0.000 A 
ATOM     11  C   UNL     1     114.378 128.824 135.459  0.00  0.00    +0.000 A 
ATOM     12  C   UNL     1     113.181 128.215 136.093  0.00  0.00    +0.000 A 
ATOM     13  C   UNL     1     113.874 128.141 135.590  0.00  0.00    +0.000 A 
ENDROOT
BRANCH   5  19
ATOM     14  O   UNL     1     111.920 130.445 136.812  0.00  0.00    +0.000 OA
ATOM     15  O   UNL     1     112.185 130.657 139.263  0.00  0.00    +0.000 OA
ATOM     16  O   UNL     1     110.677 130.661 138.593  0.00  0.00    +0.000 OA
ATOM     17  C   UNL     1     112.762 130.513 137.964  0.00  0.00    +0.000 C 
ATOM     18  C   UNL     1     112.097 130.586 138.447  0.00  0.00    +0.000 C 
ATOM     19  C   UNL     1     112.674 130.443 137.147  0.00  0.00    +0.000 C 
ATOM     20  C   UNL     1     111.343 130.588 138.112  0.00  0.00    +0.000 C 
ATOM     21  C   UNL     1     111.254 130.517 137.294  0.00  0.00    +0.000 C 
BRANCH  21  23
ATOM     22  O   UNL     1     110.377 130.876 136.225  0.00  0.00    +0.000 OA
ATOM     23  C   UNL     1     110.501 130.520 136.958  0.00  0.00    +0.000 C 
ENDBRANCH  21  23
BRANCH  17  24
ATOM     24  O   UNL     1     113.516 130.511 138.299  0.00  0.00    +0.000 OA
BRANCH  24  29
ATOM     25  O   UNL     1     113.319 129.317 139.059  0.00  0.00    +0.000 OA
ATOM     26  O   UNL     1     114.511 131.097 139.478  0.00  0.00    +0.000 OA
ATOM     27  O   UNL     1     114.812 130.195 140.826  0.00  0.00    +0.000 OA
ATOM     28  O   UNL     1     114.118 128.708 140.996  0.00  0.00    +0.000 OA
ATOM     29  C   UNL     1     113.667 130.060 138.974  0.00  0.00    +0.000 C 
ATOM     30  C   UNL     1     114.164 130.353 139.563  0.00  0.00    +0.000 C 
ATOM     31  C   UNL     1     114.315 129.902 140.237  0.00  0.00    +0.000 C 
ATOM     32  C   UNL     1     113.968 129.159 140.322  0.00  0.00    +0.000 C 
ATOM     33  C   UNL     1     113.470 128.867 139.733  0.00  0.00    +0.000 C 
ATOM     34  C   UNL     1     113.122 128.123 139.818  0.00  0.00    +0.000 C 
ENDBRANCH  24  29
ENDBRANCH  17  24
ENDBRANCH   5  19
BRANCH  12  36
ATOM     35  O   UNL     1     110.745 126.808 135.589  0.00  0.00    +0.000 OA
ATOM     36  C   UNL     1     112.692 127.565 136.225  0.00  0.00    +0.000 A 
ATOM     37  C   UNL     1     111.963 127.511 135.841  0.00  0.00    +0.000 A 
ATOM     38  C   UNL     1     112.931 126.967 136.741  0.00  0.00    +0.000 A 
ATOM     39  C   UNL     1     111.474 126.862 135.973  0.00  0.00    +0.000 A 
ATOM     40  C   UNL     1     112.440 126.317 136.873  0.00  0.00    +0.000 A 
ATOM     41  C   UNL     1     111.712 126.263 136.489  0.00  0.00    +0.000 A 
BRANCH  41  42
ATOM     42  O   UNL     1     111.223 125.612 136.621  0.00  0.00    +0.000 OA
ATOM     43  C   UNL     1     111.475 125.000 137.113  0.00  0.00    +0.000 C 
ENDBRANCH  41  42
ENDBRANCH  12  36
TORSDOF 6
ENDMDL
MODEL 8
REMARK VINA RESULT:     -10.4      1.529      4.603
REMARK  Name = 74977719
REMARK  6 active torsions:
REMARK  status: ('A' for Active; 'I' for Inactive)
REMARK    1  A    between atoms: O_1  and  C_16
REMARK    2  A    between atoms: O_1  and  C_21
REMARK    3  A    between atoms: O_15  and  C_42
REMARK    4  A    between atoms: C_18  and  C_26
REMARK    5  A    between atoms: C_20  and  C_27
REMARK    6  A    between atoms: C_35  and  C_37
REMARK                            x       y       z     vdW  Elec       q    Type
REMARK                         _______ _______ _______ _____ _____    ______ ____
ROOT
ATOM      1  O   UNL     1     112.532 126.239 138.568  0.00  0.00    +0.000 OA
ATOM      2  O   UNL     1     110.994 124.619 136.749  0.00  0.00    +0.000 OA
ATOM      3  O   UNL     1     113.839 124.357 136.801  0.00  0.00    +0.000 OA
ATOM      4  O   UNL     1     114.645 125.149 137.697  0.00  0.00    +0.000 OA
ATOM      5  C   UNL     1     111.769 125.417 137.647  0.00  0.00    +0.000 A 
ATOM      6  C   UNL     1     112.501 125.639 137.954  0.00  0.00    +0.000 A 
ATOM      7  C   UNL     1     111.727 124.842 137.057  0.00  0.00    +0.000 A 
ATOM      8  C   UNL     1     113.192 125.286 137.673  0.00  0.00    +0.000 A 
ATOM      9  C   UNL     1     112.417 124.488 136.775  0.00  0.00    +0.000 A 
ATOM     10  C   UNL     1     113.150 124.710 137.083  0.00  0.00    +0.000 A 
ATOM     11  C   UNL     1     113.960 125.508 137.985  0.00  0.00    +0.000 A 
ATOM     12  C   UNL     1     113.293 126.475 138.893  0.00  0.00    +0.000 A 
ATOM     13  C   UNL     1     114.011 126.106 138.599  0.00  0.00    +0.000 A 
ENDROOT
BRANCH   5  19
ATOM     14  O   UNL     1     110.806 125.595 138.687  0.00  0.00    +0.000 OA
ATOM     15  O   UNL     1     109.552 127.177 137.258  0.00  0.00    +0.000 OA
ATOM     16  O   UNL     1     109.007 126.827 138.775  0.00  0.00    +0.000 OA
ATOM     17  C   UNL     1     110.661 126.297 137.452  0.00  0.00    +0.000 C 
ATOM     18  C   UNL     1     109.970 126.650 137.734  0.00  0.00    +0.000 C 
ATOM     19  C   UNL     1     111.079 125.770 137.928  0.00  0.00    +0.000 C 
ATOM     20  C   UNL     1     109.698 126.475 138.493  0.00  0.00    +0.000 C 
ATOM     21  C   UNL     1     110.116 125.947 138.970  0.00  0.00    +0.000 C 
BRANCH  21  23
ATOM     22  O   UNL     1     109.957 125.017 140.043  0.00  0.00    +0.000 OA
ATOM     23  C   UNL     1     109.844 125.772 139.729  0.00  0.00    +0.000 C 
ENDBRANCH  21  23
BRANCH  17  24
ATOM     24  O   UNL     1     110.933 126.472 136.693  0.00  0.00    +0.000 OA
BRANCH  24  29
ATOM     25  O   UNL     1     111.171 127.858 136.947  0.00  0.00    +0.000 OA
ATOM     26  O   UNL     1     110.517 126.829 135.137  0.00  0.00    +0.000 OA
ATOM     27  O   UNL     1     110.548 128.393 134.612  0.00  0.00    +0.000 OA
ATOM     28  O   UNL     1     110.995 129.600 135.644  0.00  0.00    +0.000 OA
ATOM     29  C   UNL     1     110.948 127.255 136.431  0.00  0.00    +0.000 C 
ATOM     30  C   UNL     1     110.740 127.433 135.652  0.00  0.00    +0.000 C 
ATOM     31  C   UNL     1     110.756 128.214 135.390  0.00  0.00    +0.000 C 
ATOM     32  C   UNL     1     110.979 128.818 135.906  0.00  0.00    +0.000 C 
ATOM     33  C   UNL     1     111.187 128.640 136.684  0.00  0.00    +0.000 C 
ATOM     34  C   UNL     1     111.410 129.244 137.200  0.00  0.00    +0.000 C 
ENDBRANCH  24  29
ENDBRANCH  17  24
ENDBRANCH   5  19
BRANCH  12  36
ATOM     35  O   UNL     1     113.128 127.207 141.651  0.00  0.00    +0.000 OA
ATOM     36  C   UNL     1     113.332 127.050 139.483  0.00  0.00    +0.000 A 
ATOM     37  C   UNL     1     113.210 126.841 140.272  0.00  0.00    +0.000 A 
ATOM     38  C   UNL     1     113.493 127.834 139.284  0.00  0.00    +0.000 A 
ATOM     39  C   UNL     1     113.250 127.416 140.862  0.00  0.00    +0.000 A 
ATOM     40  C   UNL     1     113.532 128.409 139.875  0.00  0.00    +0.000 A 
ATOM     41  C   UNL     1     113.410 128.201 140.663  0.00  0.00    +0.000 A 
BRANCH  41  42
ATOM     42  O   UNL     1     113.450 128.776 141.253  0.00  0.00    +0.000 OA
ATOM     43  C   UNL     1     113.613 129.560 141.054  0.00  0.00    +0.000 C 
ENDBRANCH  41  42
ENDBRANCH  12  36
TORSDOF 6
ENDMDL
MODEL 9
REMARK VINA RESULT:     -10.4      1.770      4.744
REMARK  Name = 74977719
REMARK  6 active torsions:
REMARK  status: ('A' for Active; 'I' for Inactive)
REMARK    1  A    between atoms: O_1  and  C_16
REMARK    2  A    between atoms: O_1  and  C_21
REMARK    3  A    between atoms: O_15  and  C_42
REMARK    4  A    between atoms: C_18  and  C_26
REMARK    5  A    between atoms: C_20  and  C_27
REMARK    6  A    between atoms: C_35  and  C_37
REMARK                            x       y       z     vdW  Elec       q    Type
REMARK                         _______ _______ _______ _____ _____    ______ ____
ROOT
ATOM      1  O   UNL     1     112.713 127.813 138.833  0.00  0.00    +0.000 OA
ATOM      2  O   UNL     1     112.368 130.616 139.402  0.00  0.00    +0.000 OA
ATOM      3  O   UNL     1     114.087 129.047 141.061  0.00  0.00    +0.000 OA
ATOM      4  O   UNL     1     114.286 127.641 140.810  0.00  0.00    +0.000 OA
ATOM      5  C   UNL     1     112.548 129.224 139.131  0.00  0.00    +0.000 A 
ATOM      6  C   UNL     1     112.894 128.500 139.317  0.00  0.00    +0.000 A 
ATOM      7  C   UNL     1     112.715 129.890 139.588  0.00  0.00    +0.000 A 
ATOM      8  C   UNL     1     113.407 128.440 139.960  0.00  0.00    +0.000 A 
ATOM      9  C   UNL     1     113.228 129.832 140.231  0.00  0.00    +0.000 A 
ATOM     10  C   UNL     1     113.574 129.106 140.418  0.00  0.00    +0.000 A 
ATOM     11  C   UNL     1     113.774 127.691 140.164  0.00  0.00    +0.000 A 
ATOM     12  C   UNL     1     113.070 127.054 139.022  0.00  0.00    +0.000 A 
ATOM     13  C   UNL     1     113.604 126.993 139.692  0.00  0.00    +0.000 A 
ENDROOT
BRANCH   5  19
ATOM     14  O   UNL     1     111.281 128.952 138.529  0.00  0.00    +0.000 OA
ATOM     15  O   UNL     1     112.003 130.126 136.474  0.00  0.00    +0.000 OA
ATOM     16  O   UNL     1     110.494 129.462 136.558  0.00  0.00    +0.000 OA
ATOM     17  C   UNL     1     112.275 129.675 137.802  0.00  0.00    +0.000 C 
ATOM     18  C   UNL     1     111.762 129.735 137.159  0.00  0.00    +0.000 C 
ATOM     19  C   UNL     1     112.035 129.284 138.487  0.00  0.00    +0.000 C 
ATOM     20  C   UNL     1     111.008 129.403 137.201  0.00  0.00    +0.000 C 
ATOM     21  C   UNL     1     110.767 129.012 137.887  0.00  0.00    +0.000 C 
BRANCH  21  23
ATOM     22  O   UNL     1     109.565 128.761 138.617  0.00  0.00    +0.000 OA
ATOM     23  C   UNL     1     110.013 128.680 137.929  0.00  0.00    +0.000 C 
ENDBRANCH  21  23
BRANCH  17  24
ATOM     24  O   UNL     1     113.030 130.007 137.760  0.00  0.00    +0.000 OA
BRANCH  24  29
ATOM     25  O   UNL     1     113.491 129.169 136.698  0.00  0.00    +0.000 OA
ATOM     26  O   UNL     1     113.952 131.247 137.183  0.00  0.00    +0.000 OA
ATOM     27  O   UNL     1     114.875 131.029 135.832  0.00  0.00    +0.000 OA
ATOM     28  O   UNL     1     114.875 129.572 135.059  0.00  0.00    +0.000 OA
ATOM     29  C   UNL     1     113.491 129.898 137.084  0.00  0.00    +0.000 C 
ATOM     30  C   UNL     1     113.953 130.518 136.795  0.00  0.00    +0.000 C 
ATOM     31  C   UNL     1     114.413 130.409 136.121  0.00  0.00    +0.000 C 
ATOM     32  C   UNL     1     114.414 129.681 135.734  0.00  0.00    +0.000 C 
ATOM     33  C   UNL     1     113.952 129.061 136.023  0.00  0.00    +0.000 C 
ATOM     34  C   UNL     1     113.952 128.332 135.636  0.00  0.00    +0.000 C 
ENDBRANCH  24  29
ENDBRANCH  17  24
ENDBRANCH   5  19
BRANCH  12  36
ATOM     35  O   UNL     1     111.285 124.952 138.273  0.00  0.00    +0.000 OA
ATOM     36  C   UNL     1     112.902 126.390 138.563  0.00  0.00    +0.000 A 
ATOM     37  C   UNL     1     112.178 126.003 138.647  0.00  0.00    +0.000 A 
ATOM     38  C   UNL     1     113.457 126.112 138.020  0.00  0.00    +0.000 A 
ATOM     39  C   UNL     1     112.009 125.339 138.189  0.00  0.00    +0.000 A 
ATOM     40  C   UNL     1     113.288 125.448 137.561  0.00  0.00    +0.000 A 
ATOM     41  C   UNL     1     112.564 125.061 137.645  0.00  0.00    +0.000 A 
BRANCH  41  42
ATOM     42  O   UNL     1     112.396 124.396 137.186  0.00  0.00    +0.000 OA
ATOM     43  C   UNL     1     112.962 124.101 136.664  0.00  0.00    +0.000 C 
ENDBRANCH  41  42
ENDBRANCH  12  36
TORSDOF 6
ENDMDL
MODEL 10
REMARK VINA RESULT:     -10.3      1.483      3.321
REMARK  Name = 74977719
REMARK  6 active torsions:
REMARK  status: ('A' for Active; 'I' for Inactive)
REMARK    1  A    between atoms: O_1  and  C_16
REMARK    2  A    between atoms: O_1  and  C_21
REMARK    3  A    between atoms: O_15  and  C_42
REMARK    4  A    between atoms: C_18  and  C_26
REMARK    5  A    between atoms: C_20  and  C_27
REMARK    6  A    between atoms: C_35  and  C_37
REMARK                            x       y       z     vdW  Elec       q    Type
REMARK                         _______ _______ _______ _____ _____    ______ ____
ROOT
ATOM      1  O   UNL     1     112.522 126.737 136.577  0.00  0.00    +0.000 OA
ATOM      2  O   UNL     1     111.104 124.262 136.984  0.00  0.00    +0.000 OA
ATOM      3  O   UNL     1     113.960 124.241 136.856  0.00  0.00    +0.000 OA
ATOM      4  O   UNL     1     114.706 125.459 136.653  0.00  0.00    +0.000 OA
ATOM      5  C   UNL     1     111.820 125.483 136.783  0.00  0.00    +0.000 A 
ATOM      6  C   UNL     1     112.534 125.886 136.694  0.00  0.00    +0.000 A 
ATOM      7  C   UNL     1     111.819 124.666 136.896  0.00  0.00    +0.000 A 
ATOM      8  C   UNL     1     113.248 125.472 136.719  0.00  0.00    +0.000 A 
ATOM      9  C   UNL     1     112.532 124.251 136.920  0.00  0.00    +0.000 A 
ATOM     10  C   UNL     1     113.247 124.655 136.831  0.00  0.00    +0.000 A 
ATOM     11  C   UNL     1     113.997 125.881 136.628  0.00  0.00    +0.000 A 
ATOM     12  C   UNL     1     113.263 127.163 136.484  0.00  0.00    +0.000 A 
ATOM     13  C   UNL     1     114.005 126.732 136.510  0.00  0.00    +0.000 A 
ENDROOT
BRANCH   5  19
ATOM     14  O   UNL     1     110.820 126.182 136.039  0.00  0.00    +0.000 OA
ATOM     15  O   UNL     1     109.538 126.565 138.121  0.00  0.00    +0.000 OA
ATOM     16  O   UNL     1     108.966 127.137 136.683  0.00  0.00    +0.000 OA
ATOM     17  C   UNL     1     110.679 126.024 137.452  0.00  0.00    +0.000 C 
ATOM     18  C   UNL     1     109.966 126.437 137.428  0.00  0.00    +0.000 C 
ATOM     19  C   UNL     1     111.106 125.897 136.758  0.00  0.00    +0.000 C 
ATOM     20  C   UNL     1     109.679 126.723 136.709  0.00  0.00    +0.000 C 
ATOM     21  C   UNL     1     110.107 126.596 136.014  0.00  0.00    +0.000 C 
BRANCH  21  23
ATOM     22  O   UNL     1     109.887 126.422 134.613  0.00  0.00    +0.000 OA
ATOM     23  C   UNL     1     109.821 126.882 135.295  0.00  0.00    +0.000 C 
ENDBRANCH  21  23
BRANCH  17  24
ATOM     24  O   UNL     1     110.965 125.738 138.171  0.00  0.00    +0.000 OA
BRANCH  24  29
ATOM     25  O   UNL     1     111.154 127.003 138.809  0.00  0.00    +0.000 OA
ATOM     26  O   UNL     1     110.441 125.096 139.598  0.00  0.00    +0.000 OA
ATOM     27  O   UNL     1     110.368 126.040 140.949  0.00  0.00    +0.000 OA
ATOM     28  O   UNL     1     110.818 127.626 140.874  0.00  0.00    +0.000 OA
ATOM     29  C   UNL     1     110.928 126.210 138.847  0.00  0.00    +0.000 C 
ATOM     30  C   UNL     1     110.666 125.889 139.561  0.00  0.00    +0.000 C 
ATOM     31  C   UNL     1     110.630 126.361 140.236  0.00  0.00    +0.000 C 
ATOM     32  C   UNL     1     110.855 127.153 140.198  0.00  0.00    +0.000 C 
ATOM     33  C   UNL     1     111.117 127.474 139.485  0.00  0.00    +0.000 C 
ATOM     34  C   UNL     1     111.342 128.268 139.447  0.00  0.00    +0.000 C 
ENDBRANCH  24  29
ENDBRANCH  17  24
ENDBRANCH   5  19
BRANCH  12  36
ATOM     35  O   UNL     1     112.910 129.424 134.772  0.00  0.00    +0.000 OA
ATOM     36  C   UNL     1     113.261 127.981 136.372  0.00  0.00    +0.000 A 
ATOM     37  C   UNL     1     113.086 128.294 135.629  0.00  0.00    +0.000 A 
ATOM     38  C   UNL     1     113.433 128.484 137.002  0.00  0.00    +0.000 A 
ATOM     39  C   UNL     1     113.084 129.110 135.515  0.00  0.00    +0.000 A 
ATOM     40  C   UNL     1     113.431 129.301 136.888  0.00  0.00    +0.000 A 
ATOM     41  C   UNL     1     113.257 129.615 136.145  0.00  0.00    +0.000 A 
BRANCH  41  42
ATOM     42  O   UNL     1     113.254 130.432 136.032  0.00  0.00    +0.000 OA
ATOM     43  C   UNL     1     113.468 130.934 136.651  0.00  0.00    +0.000 C 
ENDBRANCH  41  42
ENDBRANCH  12  36
TORSDOF 6
ENDMDL
