MODEL 1
REMARK VINA RESULT:      -9.1      0.000      0.000
REMARK  Name = 44259529
REMARK  5 active torsions:
REMARK  status: ('A' for Active; 'I' for Inactive)
REMARK    1  A    between atoms: O_2  and  C_17
REMARK    2  A    between atoms: O_2  and  C_19
REMARK    3  A    between atoms: O_9  and  C_25
REMARK    4  A    between atoms: C_16  and  C_18
REMARK    5  A    between atoms: C_20  and  C_24
REMARK                            x       y       z     vdW  Elec       q    Type
REMARK                         _______ _______ _______ _____ _____    ______ ____
ROOT
ATOM      1  O   UNL     1     111.046 125.509 136.369  0.00  0.00    +0.000 OA
ATOM      2  O   UNL     1     113.325 126.476 136.340  0.00  0.00    +0.000 OA
ATOM      3  O   UNL     1     112.137 122.910 137.101  0.00  0.00    +0.000 OA
ATOM      4  C   UNL     1     111.914 126.629 136.175  0.00  0.00    +0.000 A 
ATOM      5  C   UNL     1     111.154 126.306 136.185  0.00  0.00    +0.000 A 
ATOM      6  C   UNL     1     112.565 126.154 136.350  0.00  0.00    +0.000 A 
ATOM      7  C   UNL     1     112.457 125.357 136.534  0.00  0.00    +0.000 A 
ATOM      8  C   UNL     1     111.698 125.035 136.544  0.00  0.00    +0.000 A 
ATOM      9  C   UNL     1     113.144 124.873 136.714  0.00  0.00    +0.000 A 
ATOM     10  C   UNL     1     111.573 124.206 136.734  0.00  0.00    +0.000 A 
ATOM     11  C   UNL     1     113.038 124.042 136.907  0.00  0.00    +0.000 A 
ATOM     12  C   UNL     1     112.248 123.706 136.917  0.00  0.00    +0.000 A 
ENDROOT
BRANCH   5  15
ATOM     13  O   UNL     1     108.833 127.736 137.044  0.00  0.00    +0.000 OA
ATOM     14  O   UNL     1     108.547 128.207 135.488  0.00  0.00    +0.000 OA
ATOM     15  C   UNL     1     110.502 126.781 136.010  0.00  0.00    +0.000 A 
ATOM     16  C   UNL     1     109.993 127.021 136.614  0.00  0.00    +0.000 A 
ATOM     17  C   UNL     1     110.359 127.016 135.232  0.00  0.00    +0.000 A 
ATOM     18  C   UNL     1     109.342 127.496 136.439  0.00  0.00    +0.000 A 
ATOM     19  C   UNL     1     109.707 127.491 135.059  0.00  0.00    +0.000 A 
ATOM     20  C   UNL     1     109.199 127.731 135.662  0.00  0.00    +0.000 A 
ENDBRANCH   5  15
BRANCH   9  21
ATOM     21  O   UNL     1     113.900 125.204 136.702  0.00  0.00    +0.000 OA
ATOM     22  C   UNL     1     114.518 124.836 137.106  0.00  0.00    +0.000 C 
ENDBRANCH   9  21
BRANCH   4  23
ATOM     23  O   UNL     1     112.021 127.426 135.991  0.00  0.00    +0.000 OA
BRANCH  23  32
ATOM     24  O   UNL     1     112.283 127.826 137.337  0.00  0.00    +0.000 OA
ATOM     25  O   UNL     1     113.772 129.623 136.513  0.00  0.00    +0.000 OA
ATOM     26  O   UNL     1     113.538 129.424 138.133  0.00  0.00    +0.000 OA
ATOM     27  O   UNL     1     113.014 128.624 135.441  0.00  0.00    +0.000 OA
ATOM     28  C   UNL     1     113.276 129.024 136.788  0.00  0.00    +0.000 C 
ATOM     29  C   UNL     1     113.158 128.924 137.598  0.00  0.00    +0.000 C 
ATOM     30  C   UNL     1     112.896 128.524 136.252  0.00  0.00    +0.000 C 
ATOM     31  C   UNL     1     112.662 128.325 137.873  0.00  0.00    +0.000 C 
ATOM     32  C   UNL     1     112.400 127.925 136.526  0.00  0.00    +0.000 C 
BRANCH  31  34
ATOM     33  O   UNL     1     111.788 128.301 139.003  0.00  0.00    +0.000 OA
ATOM     34  C   UNL     1     112.545 128.226 138.683  0.00  0.00    +0.000 C 
ENDBRANCH  31  34
ENDBRANCH  23  32
ENDBRANCH   4  23
TORSDOF 5
ENDMDL
MODEL 2
REMARK VINA RESULT:      -9.1      1.001      3.109
REMARK  Name = 44259529
REMARK  5 active torsions:
REMARK  status: ('A' for Active; 'I' for Inactive)
REMARK    1  A    between atoms: O_2  and  C_17
REMARK    2  A    between atoms: O_2  and  C_19
REMARK    3  A    between atoms: O_9  and  C_25
REMARK    4  A    between atoms: C_16  and  C_18
REMARK    5  A    between atoms: C_20  and  C_24
REMARK                            x       y       z     vdW  Elec       q    Type
REMARK                         _______ _______ _______ _____ _____    ______ ____
ROOT
ATOM      1  O   UNL     1     113.569 126.830 136.783  0.00  0.00    +0.000 OA
ATOM      2  O   UNL     1     111.602 125.520 136.046  0.00  0.00    +0.000 OA
ATOM      3  O   UNL     1     114.966 124.375 137.489  0.00  0.00    +0.000 OA
ATOM      4  C   UNL     1     112.246 126.780 136.243  0.00  0.00    +0.000 A 
ATOM      5  C   UNL     1     112.902 127.217 136.489  0.00  0.00    +0.000 A 
ATOM      6  C   UNL     1     112.258 125.957 136.292  0.00  0.00    +0.000 A 
ATOM      7  C   UNL     1     112.925 125.570 136.586  0.00  0.00    +0.000 A 
ATOM      8  C   UNL     1     113.579 126.007 136.832  0.00  0.00    +0.000 A 
ATOM      9  C   UNL     1     112.924 124.712 136.632  0.00  0.00    +0.000 A 
ATOM     10  C   UNL     1     114.280 125.617 137.140  0.00  0.00    +0.000 A 
ATOM     11  C   UNL     1     113.616 124.304 136.938  0.00  0.00    +0.000 A 
ATOM     12  C   UNL     1     114.298 124.759 137.194  0.00  0.00    +0.000 A 
ENDROOT
BRANCH   5  15
ATOM     13  O   UNL     1     112.706 129.769 137.762  0.00  0.00    +0.000 OA
ATOM     14  O   UNL     1     112.853 130.511 136.295  0.00  0.00    +0.000 OA
ATOM     15  C   UNL     1     112.890 128.040 136.440  0.00  0.00    +0.000 A 
ATOM     16  C   UNL     1     112.804 128.493 137.125  0.00  0.00    +0.000 A 
ATOM     17  C   UNL     1     112.964 128.412 135.707  0.00  0.00    +0.000 A 
ATOM     18  C   UNL     1     112.792 129.316 137.076  0.00  0.00    +0.000 A 
ATOM     19  C   UNL     1     112.951 129.235 135.659  0.00  0.00    +0.000 A 
ATOM     20  C   UNL     1     112.866 129.687 136.343  0.00  0.00    +0.000 A 
ENDBRANCH   5  15
BRANCH   9  21
ATOM     21  O   UNL     1     112.264 124.283 136.384  0.00  0.00    +0.000 OA
ATOM     22  C   UNL     1     112.088 123.557 136.734  0.00  0.00    +0.000 C 
ENDBRANCH   9  21
BRANCH   4  23
ATOM     23  O   UNL     1     111.579 127.167 135.949  0.00  0.00    +0.000 OA
BRANCH  23  32
ATOM     24  O   UNL     1     110.791 126.952 137.121  0.00  0.00    +0.000 OA
ATOM     25  O   UNL     1     108.743 126.891 135.734  0.00  0.00    +0.000 OA
ATOM     26  O   UNL     1     108.638 126.697 137.369  0.00  0.00    +0.000 OA
ATOM     27  O   UNL     1     110.213 127.126 135.024  0.00  0.00    +0.000 OA
ATOM     28  C   UNL     1     109.426 126.911 136.197  0.00  0.00    +0.000 C 
ATOM     29  C   UNL     1     109.374 126.814 137.014  0.00  0.00    +0.000 C 
ATOM     30  C   UNL     1     110.162 127.029 135.841  0.00  0.00    +0.000 C 
ATOM     31  C   UNL     1     110.057 126.835 137.476  0.00  0.00    +0.000 C 
ATOM     32  C   UNL     1     110.845 127.049 136.304  0.00  0.00    +0.000 C 
BRANCH  31  34
ATOM     33  O   UNL     1     110.254 127.341 138.798  0.00  0.00    +0.000 OA
ATOM     34  C   UNL     1     110.004 126.738 138.293  0.00  0.00    +0.000 C 
ENDBRANCH  31  34
ENDBRANCH  23  32
ENDBRANCH   4  23
TORSDOF 5
ENDMDL
MODEL 3
REMARK VINA RESULT:      -9.0      1.874      4.158
REMARK  Name = 44259529
REMARK  5 active torsions:
REMARK  status: ('A' for Active; 'I' for Inactive)
REMARK    1  A    between atoms: O_2  and  C_17
REMARK    2  A    between atoms: O_2  and  C_19
REMARK    3  A    between atoms: O_9  and  C_25
REMARK    4  A    between atoms: C_16  and  C_18
REMARK    5  A    between atoms: C_20  and  C_24
REMARK                            x       y       z     vdW  Elec       q    Type
REMARK                         _______ _______ _______ _____ _____    ______ ____
ROOT
ATOM      1  O   UNL     1     113.816 126.245 138.513  0.00  0.00    +0.000 OA
ATOM      2  O   UNL     1     111.702 125.009 138.149  0.00  0.00    +0.000 OA
ATOM      3  O   UNL     1     115.078 124.764 136.345  0.00  0.00    +0.000 OA
ATOM      4  C   UNL     1     112.453 125.993 138.863  0.00  0.00    +0.000 A 
ATOM      5  C   UNL     1     113.159 126.405 138.985  0.00  0.00    +0.000 A 
ATOM      6  C   UNL     1     112.407 125.421 138.270  0.00  0.00    +0.000 A 
ATOM      7  C   UNL     1     113.065 125.261 137.799  0.00  0.00    +0.000 A 
ATOM      8  C   UNL     1     113.769 125.673 137.920  0.00  0.00    +0.000 A 
ATOM      9  C   UNL     1     113.003 124.663 137.184  0.00  0.00    +0.000 A 
ATOM     10  C   UNL     1     114.461 125.516 137.435  0.00  0.00    +0.000 A 
ATOM     11  C   UNL     1     113.684 124.493 136.690  0.00  0.00    +0.000 A 
ATOM     12  C   UNL     1     114.418 124.921 136.816  0.00  0.00    +0.000 A 
ENDROOT
BRANCH   5  15
ATOM     13  O   UNL     1     113.271 129.150 139.772  0.00  0.00    +0.000 OA
ATOM     14  O   UNL     1     113.344 128.693 141.355  0.00  0.00    +0.000 OA
ATOM     15  C   UNL     1     113.205 126.976 139.578  0.00  0.00    +0.000 A 
ATOM     16  C   UNL     1     113.215 127.777 139.378  0.00  0.00    +0.000 A 
ATOM     17  C   UNL     1     113.241 126.748 140.369  0.00  0.00    +0.000 A 
ATOM     18  C   UNL     1     113.261 128.349 139.971  0.00  0.00    +0.000 A 
ATOM     19  C   UNL     1     113.288 127.320 140.962  0.00  0.00    +0.000 A 
ATOM     20  C   UNL     1     113.298 128.120 140.763  0.00  0.00    +0.000 A 
ENDBRANCH   5  15
BRANCH   9  21
ATOM     21  O   UNL     1     112.294 124.256 137.070  0.00  0.00    +0.000 OA
ATOM     22  C   UNL     1     112.218 123.729 136.440  0.00  0.00    +0.000 C 
ENDBRANCH   9  21
BRANCH   4  23
ATOM     23  O   UNL     1     111.796 126.153 139.335  0.00  0.00    +0.000 OA
BRANCH  23  32
ATOM     24  O   UNL     1     111.089 126.872 138.323  0.00  0.00    +0.000 OA
ATOM     25  O   UNL     1     108.939 126.090 139.269  0.00  0.00    +0.000 OA
ATOM     26  O   UNL     1     108.949 127.070 137.942  0.00  0.00    +0.000 OA
ATOM     27  O   UNL     1     110.363 125.632 139.966  0.00  0.00    +0.000 OA
ATOM     28  C   UNL     1     109.656 126.351 138.954  0.00  0.00    +0.000 C 
ATOM     29  C   UNL     1     109.661 126.841 138.290  0.00  0.00    +0.000 C 
ATOM     30  C   UNL     1     110.368 126.121 139.302  0.00  0.00    +0.000 C 
ATOM     31  C   UNL     1     110.378 127.101 137.975  0.00  0.00    +0.000 C 
ATOM     32  C   UNL     1     111.085 126.382 138.987  0.00  0.00    +0.000 C 
BRANCH  31  34
ATOM     33  O   UNL     1     110.728 128.339 137.352  0.00  0.00    +0.000 OA
ATOM     34  C   UNL     1     110.382 127.591 137.311  0.00  0.00    +0.000 C 
ENDBRANCH  31  34
ENDBRANCH  23  32
ENDBRANCH   4  23
TORSDOF 5
ENDMDL
MODEL 4
REMARK VINA RESULT:      -9.0      1.333      3.474
REMARK  Name = 44259529
REMARK  5 active torsions:
REMARK  status: ('A' for Active; 'I' for Inactive)
REMARK    1  A    between atoms: O_2  and  C_17
REMARK    2  A    between atoms: O_2  and  C_19
REMARK    3  A    between atoms: O_9  and  C_25
REMARK    4  A    between atoms: C_16  and  C_18
REMARK    5  A    between atoms: C_20  and  C_24
REMARK                            x       y       z     vdW  Elec       q    Type
REMARK                         _______ _______ _______ _____ _____    ______ ____
ROOT
ATOM      1  O   UNL     1     111.885 125.790 136.025  0.00  0.00    +0.000 OA
ATOM      2  O   UNL     1     111.869 128.234 135.629  0.00  0.00    +0.000 OA
ATOM      3  O   UNL     1     109.303 125.538 134.702  0.00  0.00    +0.000 OA
ATOM      4  C   UNL     1     112.510 127.070 136.153  0.00  0.00    +0.000 A 
ATOM      5  C   UNL     1     112.516 126.254 136.285  0.00  0.00    +0.000 A 
ATOM      6  C   UNL     1     111.874 127.419 135.761  0.00  0.00    +0.000 A 
ATOM      7  C   UNL     1     111.243 126.955 135.502  0.00  0.00    +0.000 A 
ATOM      8  C   UNL     1     111.249 126.141 135.634  0.00  0.00    +0.000 A 
ATOM      9  C   UNL     1     110.587 127.332 135.095  0.00  0.00    +0.000 A 
ATOM     10  C   UNL     1     110.599 125.646 135.369  0.00  0.00    +0.000 A 
ATOM     11  C   UNL     1     109.927 126.853 134.823  0.00  0.00    +0.000 A 
ATOM     12  C   UNL     1     109.933 126.005 134.960  0.00  0.00    +0.000 A 
ENDROOT
BRANCH   5  15
ATOM     13  O   UNL     1     115.202 125.279 136.260  0.00  0.00    +0.000 OA
ATOM     14  O   UNL     1     115.063 124.857 137.849  0.00  0.00    +0.000 OA
ATOM     15  C   UNL     1     113.152 125.905 136.677  0.00  0.00    +0.000 A 
ATOM     16  C   UNL     1     113.859 125.767 136.273  0.00  0.00    +0.000 A 
ATOM     17  C   UNL     1     113.083 125.694 137.471  0.00  0.00    +0.000 A 
ATOM     18  C   UNL     1     114.495 125.417 136.664  0.00  0.00    +0.000 A 
ATOM     19  C   UNL     1     113.720 125.344 137.862  0.00  0.00    +0.000 A 
ATOM     20  C   UNL     1     114.426 125.206 137.459  0.00  0.00    +0.000 A 
ENDBRANCH   5  15
BRANCH   9  21
ATOM     21  O   UNL     1     110.590 128.147 134.967  0.00  0.00    +0.000 OA
ATOM     22  C   UNL     1     109.884 128.541 134.801  0.00  0.00    +0.000 C 
ENDBRANCH   9  21
BRANCH   4  23
ATOM     23  O   UNL     1     113.141 127.534 136.413  0.00  0.00    +0.000 OA
BRANCH  23  32
ATOM     24  O   UNL     1     112.428 128.117 137.505  0.00  0.00    +0.000 OA
ATOM     25  O   UNL     1     113.739 130.200 137.249  0.00  0.00    +0.000 OA
ATOM     26  O   UNL     1     112.590 130.088 138.427  0.00  0.00    +0.000 OA
ATOM     27  O   UNL     1     114.015 128.923 136.242  0.00  0.00    +0.000 OA
ATOM     28  C   UNL     1     113.302 129.506 137.335  0.00  0.00    +0.000 C 
ATOM     29  C   UNL     1     112.727 129.449 137.923  0.00  0.00    +0.000 C 
ATOM     30  C   UNL     1     113.440 128.866 136.831  0.00  0.00    +0.000 C 
ATOM     31  C   UNL     1     112.290 128.755 138.009  0.00  0.00    +0.000 C 
ATOM     32  C   UNL     1     113.003 128.172 136.916  0.00  0.00    +0.000 C 
BRANCH  31  34
ATOM     33  O   UNL     1     111.792 128.138 139.198  0.00  0.00    +0.000 OA
ATOM     34  C   UNL     1     111.716 128.699 138.597  0.00  0.00    +0.000 C 
ENDBRANCH  31  34
ENDBRANCH  23  32
ENDBRANCH   4  23
TORSDOF 5
ENDMDL
MODEL 5
REMARK VINA RESULT:      -9.0      2.073      4.498
REMARK  Name = 44259529
REMARK  5 active torsions:
REMARK  status: ('A' for Active; 'I' for Inactive)
REMARK    1  A    between atoms: O_2  and  C_17
REMARK    2  A    between atoms: O_2  and  C_19
REMARK    3  A    between atoms: O_9  and  C_25
REMARK    4  A    between atoms: C_16  and  C_18
REMARK    5  A    between atoms: C_20  and  C_24
REMARK                            x       y       z     vdW  Elec       q    Type
REMARK                         _______ _______ _______ _____ _____    ______ ____
ROOT
ATOM      1  O   UNL     1     113.558 127.320 136.661  0.00  0.00    +0.000 OA
ATOM      2  O   UNL     1     112.147 128.236 138.478  0.00  0.00    +0.000 OA
ATOM      3  O   UNL     1     114.050 130.011 135.661  0.00  0.00    +0.000 OA
ATOM      4  C   UNL     1     112.734 127.116 137.811  0.00  0.00    +0.000 A 
ATOM      5  C   UNL     1     113.205 126.811 137.205  0.00  0.00    +0.000 A 
ATOM      6  C   UNL     1     112.617 127.931 137.872  0.00  0.00    +0.000 A 
ATOM      7  C   UNL     1     112.970 128.440 137.327  0.00  0.00    +0.000 A 
ATOM      8  C   UNL     1     113.440 128.135 136.722  0.00  0.00    +0.000 A 
ATOM      9  C   UNL     1     112.841 129.286 137.401  0.00  0.00    +0.000 A 
ATOM     10  C   UNL     1     113.814 128.654 136.149  0.00  0.00    +0.000 A 
ATOM     11  C   UNL     1     113.206 129.821 136.837  0.00  0.00    +0.000 A 
ATOM     12  C   UNL     1     113.696 129.504 136.207  0.00  0.00    +0.000 A 
ENDROOT
BRANCH   5  15
ATOM     13  O   UNL     1     114.890 124.524 137.514  0.00  0.00    +0.000 OA
ATOM     14  O   UNL     1     113.674 123.553 136.965  0.00  0.00    +0.000 OA
ATOM     15  C   UNL     1     113.321 125.997 137.145  0.00  0.00    +0.000 A 
ATOM     16  C   UNL     1     114.047 125.668 137.360  0.00  0.00    +0.000 A 
ATOM     17  C   UNL     1     112.713 125.512 136.871  0.00  0.00    +0.000 A 
ATOM     18  C   UNL     1     114.164 124.853 137.299  0.00  0.00    +0.000 A 
ATOM     19  C   UNL     1     112.831 124.697 136.811  0.00  0.00    +0.000 A 
ATOM     20  C   UNL     1     113.556 124.368 137.025  0.00  0.00    +0.000 A 
ENDBRANCH   5  15
BRANCH   9  21
ATOM     21  O   UNL     1     112.369 129.583 138.010  0.00  0.00    +0.000 OA
ATOM     22  C   UNL     1     112.350 130.393 138.161  0.00  0.00    +0.000 C 
ENDBRANCH   9  21
BRANCH   4  23
ATOM     23  O   UNL     1     112.381 126.607 138.356  0.00  0.00    +0.000 OA
BRANCH  23  32
ATOM     24  O   UNL     1     113.276 126.947 139.416  0.00  0.00    +0.000 OA
ATOM     25  O   UNL     1     111.503 126.455 141.072  0.00  0.00    +0.000 OA
ATOM     26  O   UNL     1     112.989 126.959 141.579  0.00  0.00    +0.000 OA
ATOM     27  O   UNL     1     111.199 126.279 139.459  0.00  0.00    +0.000 OA
ATOM     28  C   UNL     1     112.094 126.619 140.520  0.00  0.00    +0.000 C 
ATOM     29  C   UNL     1     112.838 126.871 140.773  0.00  0.00    +0.000 C 
ATOM     30  C   UNL     1     111.942 126.531 139.713  0.00  0.00    +0.000 C 
ATOM     31  C   UNL     1     113.429 127.035 140.222  0.00  0.00    +0.000 C 
ATOM     32  C   UNL     1     112.533 126.695 139.161  0.00  0.00    +0.000 C 
BRANCH  31  34
ATOM     33  O   UNL     1     114.830 126.801 140.373  0.00  0.00    +0.000 OA
ATOM     34  C   UNL     1     114.171 127.287 140.476  0.00  0.00    +0.000 C 
ENDBRANCH  31  34
ENDBRANCH  23  32
ENDBRANCH   4  23
TORSDOF 5
ENDMDL
MODEL 6
REMARK VINA RESULT:      -8.9      1.254      3.734
REMARK  Name = 44259529
REMARK  5 active torsions:
REMARK  status: ('A' for Active; 'I' for Inactive)
REMARK    1  A    between atoms: O_2  and  C_17
REMARK    2  A    between atoms: O_2  and  C_19
REMARK    3  A    between atoms: O_9  and  C_25
REMARK    4  A    between atoms: C_16  and  C_18
REMARK    5  A    between atoms: C_20  and  C_24
REMARK                            x       y       z     vdW  Elec       q    Type
REMARK                         _______ _______ _______ _____ _____    ______ ____
ROOT
ATOM      1  O   UNL     1     111.937 125.852 136.148  0.00  0.00    +0.000 OA
ATOM      2  O   UNL     1     111.378 128.166 136.827  0.00  0.00    +0.000 OA
ATOM      3  O   UNL     1     109.468 125.684 134.612  0.00  0.00    +0.000 OA
ATOM      4  C   UNL     1     112.264 127.046 136.864  0.00  0.00    +0.000 A 
ATOM      5  C   UNL     1     112.450 126.274 136.637  0.00  0.00    +0.000 A 
ATOM      6  C   UNL     1     111.564 127.394 136.601  0.00  0.00    +0.000 A 
ATOM      7  C   UNL     1     111.051 126.972 136.112  0.00  0.00    +0.000 A 
ATOM      8  C   UNL     1     111.237 126.201 135.886  0.00  0.00    +0.000 A 
ATOM      9  C   UNL     1     110.325 127.347 135.845  0.00  0.00    +0.000 A 
ATOM     10  C   UNL     1     110.711 125.751 135.378  0.00  0.00    +0.000 A 
ATOM     11  C   UNL     1     109.786 126.912 135.336  0.00  0.00    +0.000 A 
ATOM     12  C   UNL     1     109.980 126.109 135.101  0.00  0.00    +0.000 A 
ENDROOT
BRANCH   5  15
ATOM     13  O   UNL     1     115.100 125.341 136.109  0.00  0.00    +0.000 OA
ATOM     14  O   UNL     1     115.252 124.880 137.686  0.00  0.00    +0.000 OA
ATOM     15  C   UNL     1     113.150 125.925 136.900  0.00  0.00    +0.000 A 
ATOM     16  C   UNL     1     113.775 125.807 136.373  0.00  0.00    +0.000 A 
ATOM     17  C   UNL     1     113.226 125.695 137.688  0.00  0.00    +0.000 A 
ATOM     18  C   UNL     1     114.475 125.459 136.636  0.00  0.00    +0.000 A 
ATOM     19  C   UNL     1     113.927 125.346 137.950  0.00  0.00    +0.000 A 
ATOM     20  C   UNL     1     114.551 125.228 137.424  0.00  0.00    +0.000 A 
ENDBRANCH   5  15
BRANCH   9  21
ATOM     21  O   UNL     1     110.146 128.119 136.077  0.00  0.00    +0.000 OA
ATOM     22  C   UNL     1     109.398 128.431 135.928  0.00  0.00    +0.000 C 
ENDBRANCH   9  21
BRANCH   4  23
ATOM     23  O   UNL     1     112.777 127.468 137.352  0.00  0.00    +0.000 OA
BRANCH  23  32
ATOM     24  O   UNL     1     113.295 128.304 136.315  0.00  0.00    +0.000 OA
ATOM     25  O   UNL     1     113.554 130.155 137.937  0.00  0.00    +0.000 OA
ATOM     26  O   UNL     1     113.984 130.373 136.360  0.00  0.00    +0.000 OA
ATOM     27  O   UNL     1     112.950 128.702 138.433  0.00  0.00    +0.000 OA
ATOM     28  C   UNL     1     113.467 129.538 137.396  0.00  0.00    +0.000 C 
ATOM     29  C   UNL     1     113.683 129.647 136.607  0.00  0.00    +0.000 C 
ATOM     30  C   UNL     1     113.165 128.811 137.644  0.00  0.00    +0.000 C 
ATOM     31  C   UNL     1     113.596 129.030 136.067  0.00  0.00    +0.000 C 
ATOM     32  C   UNL     1     113.079 128.194 137.104  0.00  0.00    +0.000 C 
BRANCH  31  34
ATOM     33  O   UNL     1     114.449 128.721 134.963  0.00  0.00    +0.000 OA
ATOM     34  C   UNL     1     113.812 129.139 135.279  0.00  0.00    +0.000 C 
ENDBRANCH  31  34
ENDBRANCH  23  32
ENDBRANCH   4  23
TORSDOF 5
ENDMDL
MODEL 7
REMARK VINA RESULT:      -8.9      1.800      4.320
REMARK  Name = 44259529
REMARK  5 active torsions:
REMARK  status: ('A' for Active; 'I' for Inactive)
REMARK    1  A    between atoms: O_2  and  C_17
REMARK    2  A    between atoms: O_2  and  C_19
REMARK    3  A    between atoms: O_9  and  C_25
REMARK    4  A    between atoms: C_16  and  C_18
REMARK    5  A    between atoms: C_20  and  C_24
REMARK                            x       y       z     vdW  Elec       q    Type
REMARK                         _______ _______ _______ _____ _____    ______ ____
ROOT
ATOM      1  O   UNL     1     113.049 126.085 138.599  0.00  0.00    +0.000 OA
ATOM      2  O   UNL     1     110.720 125.656 137.877  0.00  0.00    +0.000 OA
ATOM      3  O   UNL     1     112.095 127.043 141.178  0.00  0.00    +0.000 OA
ATOM      4  C   UNL     1     112.123 125.636 137.606  0.00  0.00    +0.000 A 
ATOM      5  C   UNL     1     112.900 125.779 137.847  0.00  0.00    +0.000 A 
ATOM      6  C   UNL     1     111.497 125.799 138.118  0.00  0.00    +0.000 A 
ATOM      7  C   UNL     1     111.646 126.105 138.869  0.00  0.00    +0.000 A 
ATOM      8  C   UNL     1     112.422 126.248 139.109  0.00  0.00    +0.000 A 
ATOM      9  C   UNL     1     110.985 126.270 139.392  0.00  0.00    +0.000 A 
ATOM     10  C   UNL     1     112.591 126.566 139.889  0.00  0.00    +0.000 A 
ATOM     11  C   UNL     1     111.134 126.588 140.176  0.00  0.00    +0.000 A 
ATOM     12  C   UNL     1     111.942 126.738 140.427  0.00  0.00    +0.000 A 
ENDROOT
BRANCH   5  15
ATOM     13  O   UNL     1     114.902 126.686 136.020  0.00  0.00    +0.000 OA
ATOM     14  O   UNL     1     115.406 125.130 135.800  0.00  0.00    +0.000 OA
ATOM     15  C   UNL     1     113.526 125.616 137.336  0.00  0.00    +0.000 A 
ATOM     16  C   UNL     1     113.901 126.233 136.934  0.00  0.00    +0.000 A 
ATOM     17  C   UNL     1     113.778 124.839 137.226  0.00  0.00    +0.000 A 
ATOM     18  C   UNL     1     114.527 126.070 136.422  0.00  0.00    +0.000 A 
ATOM     19  C   UNL     1     114.405 124.677 136.714  0.00  0.00    +0.000 A 
ATOM     20  C   UNL     1     114.779 125.292 136.312  0.00  0.00    +0.000 A 
ENDBRANCH   5  15
BRANCH   9  21
ATOM     21  O   UNL     1     110.211 126.123 139.143  0.00  0.00    +0.000 OA
ATOM     22  C   UNL     1     109.593 126.140 139.688  0.00  0.00    +0.000 C 
ENDBRANCH   9  21
BRANCH   4  23
ATOM     23  O   UNL     1     111.974 125.330 136.855  0.00  0.00    +0.000 OA
BRANCH  23  32
ATOM     24  O   UNL     1     111.508 126.570 136.319  0.00  0.00    +0.000 OA
ATOM     25  O   UNL     1     110.021 125.342 134.768  0.00  0.00    +0.000 OA
ATOM     26  O   UNL     1     110.051 126.991 134.750  0.00  0.00    +0.000 OA
ATOM     27  O   UNL     1     110.983 124.511 135.821  0.00  0.00    +0.000 OA
ATOM     28  C   UNL     1     110.517 125.751 135.285  0.00  0.00    +0.000 C 
ATOM     29  C   UNL     1     110.532 126.576 135.276  0.00  0.00    +0.000 C 
ATOM     30  C   UNL     1     110.998 125.336 135.812  0.00  0.00    +0.000 C 
ATOM     31  C   UNL     1     111.028 126.986 135.793  0.00  0.00    +0.000 C 
ATOM     32  C   UNL     1     111.494 125.745 136.329  0.00  0.00    +0.000 C 
BRANCH  31  34
ATOM     33  O   UNL     1     111.737 128.209 135.585  0.00  0.00    +0.000 OA
ATOM     34  C   UNL     1     111.042 127.810 135.784  0.00  0.00    +0.000 C 
ENDBRANCH  31  34
ENDBRANCH  23  32
ENDBRANCH   4  23
TORSDOF 5
ENDMDL
MODEL 8
REMARK VINA RESULT:      -8.8      3.292      4.621
REMARK  Name = 44259529
REMARK  5 active torsions:
REMARK  status: ('A' for Active; 'I' for Inactive)
REMARK    1  A    between atoms: O_2  and  C_17
REMARK    2  A    between atoms: O_2  and  C_19
REMARK    3  A    between atoms: O_9  and  C_25
REMARK    4  A    between atoms: C_16  and  C_18
REMARK    5  A    between atoms: C_20  and  C_24
REMARK                            x       y       z     vdW  Elec       q    Type
REMARK                         _______ _______ _______ _____ _____    ______ ____
ROOT
ATOM      1  O   UNL     1     111.746 129.520 135.893  0.00  0.00    +0.000 OA
ATOM      2  O   UNL     1     112.239 130.817 137.942  0.00  0.00    +0.000 OA
ATOM      3  O   UNL     1     114.564 129.568 135.159  0.00  0.00    +0.000 OA
ATOM      4  C   UNL     1     111.300 130.154 137.094  0.00  0.00    +0.000 A 
ATOM      5  C   UNL     1     111.136 129.721 136.410  0.00  0.00    +0.000 A 
ATOM      6  C   UNL     1     112.075 130.385 137.259  0.00  0.00    +0.000 A 
ATOM      7  C   UNL     1     112.685 130.183 136.741  0.00  0.00    +0.000 A 
ATOM      8  C   UNL     1     112.520 129.751 136.059  0.00  0.00    +0.000 A 
ATOM      9  C   UNL     1     113.487 130.429 136.925  0.00  0.00    +0.000 A 
ATOM     10  C   UNL     1     113.146 129.534 135.512  0.00  0.00    +0.000 A 
ATOM     11  C   UNL     1     114.127 130.222 136.390  0.00  0.00    +0.000 A 
ATOM     12  C   UNL     1     113.956 129.772 135.678  0.00  0.00    +0.000 A 
ENDROOT
BRANCH   5  15
ATOM     13  O   UNL     1     108.722 130.050 134.916  0.00  0.00    +0.000 OA
ATOM     14  O   UNL     1     108.036 128.801 135.748  0.00  0.00    +0.000 OA
ATOM     15  C   UNL     1     110.361 129.491 136.245  0.00  0.00    +0.000 A 
ATOM     16  C   UNL     1     109.929 129.886 135.663  0.00  0.00    +0.000 A 
ATOM     17  C   UNL     1     110.018 128.866 136.661  0.00  0.00    +0.000 A 
ATOM     18  C   UNL     1     109.154 129.655 135.498  0.00  0.00    +0.000 A 
ATOM     19  C   UNL     1     109.243 128.637 136.495  0.00  0.00    +0.000 A 
ATOM     20  C   UNL     1     108.811 129.031 135.914  0.00  0.00    +0.000 A 
ENDBRANCH   5  15
BRANCH   9  21
ATOM     21  O   UNL     1     113.643 130.862 137.611  0.00  0.00    +0.000 OA
ATOM     22  C   UNL     1     114.322 130.705 138.052  0.00  0.00    +0.000 C 
ENDBRANCH   9  21
BRANCH   4  23
ATOM     23  O   UNL     1     110.690 130.356 137.611  0.00  0.00    +0.000 OA
BRANCH  23  32
ATOM     24  O   UNL     1     110.625 131.728 137.216  0.00  0.00    +0.000 OA
ATOM     25  O   UNL     1     109.995 132.363 139.523  0.00  0.00    +0.000 OA
ATOM     26  O   UNL     1     110.140 133.522 138.359  0.00  0.00    +0.000 OA
ATOM     27  O   UNL     1     110.270 130.780 139.150  0.00  0.00    +0.000 OA
ATOM     28  C   UNL     1     110.205 132.151 138.754  0.00  0.00    +0.000 C 
ATOM     29  C   UNL     1     110.278 132.731 138.172  0.00  0.00    +0.000 C 
ATOM     30  C   UNL     1     110.343 131.359 138.567  0.00  0.00    +0.000 C 
ATOM     31  C   UNL     1     110.488 132.519 137.402  0.00  0.00    +0.000 C 
ATOM     32  C   UNL     1     110.553 131.147 137.798  0.00  0.00    +0.000 C 
BRANCH  31  34
ATOM     33  O   UNL     1     110.047 133.102 136.174  0.00  0.00    +0.000 OA
ATOM     34  C   UNL     1     110.560 133.098 136.821  0.00  0.00    +0.000 C 
ENDBRANCH  31  34
ENDBRANCH  23  32
ENDBRANCH   4  23
TORSDOF 5
ENDMDL
MODEL 9
REMARK VINA RESULT:      -8.8      1.441      4.037
REMARK  Name = 44259529
REMARK  5 active torsions:
REMARK  status: ('A' for Active; 'I' for Inactive)
REMARK    1  A    between atoms: O_2  and  C_17
REMARK    2  A    between atoms: O_2  and  C_19
REMARK    3  A    between atoms: O_9  and  C_25
REMARK    4  A    between atoms: C_16  and  C_18
REMARK    5  A    between atoms: C_20  and  C_24
REMARK                            x       y       z     vdW  Elec       q    Type
REMARK                         _______ _______ _______ _____ _____    ______ ____
ROOT
ATOM      1  O   UNL     1     112.999 127.165 136.266  0.00  0.00    +0.000 OA
ATOM      2  O   UNL     1     112.924 128.026 138.586  0.00  0.00    +0.000 OA
ATOM      3  O   UNL     1     113.868 129.773 135.305  0.00  0.00    +0.000 OA
ATOM      4  C   UNL     1     112.748 126.954 137.658  0.00  0.00    +0.000 A 
ATOM      5  C   UNL     1     112.773 126.667 136.884  0.00  0.00    +0.000 A 
ATOM      6  C   UNL     1     112.949 127.739 137.812  0.00  0.00    +0.000 A 
ATOM      7  C   UNL     1     113.174 128.237 137.194  0.00  0.00    +0.000 A 
ATOM      8  C   UNL     1     113.199 127.950 136.422  0.00  0.00    +0.000 A 
ATOM      9  C   UNL     1     113.381 129.052 137.369  0.00  0.00    +0.000 A 
ATOM     10  C   UNL     1     113.433 128.458 135.770  0.00  0.00    +0.000 A 
ATOM     11  C   UNL     1     113.617 129.576 136.730  0.00  0.00    +0.000 A 
ATOM     12  C   UNL     1     113.643 129.277 135.925  0.00  0.00    +0.000 A 
ENDROOT
BRANCH   5  15
ATOM     13  O   UNL     1     110.941 124.744 135.828  0.00  0.00    +0.000 OA
ATOM     14  O   UNL     1     111.967 123.527 136.264  0.00  0.00    +0.000 OA
ATOM     15  C   UNL     1     112.572 125.882 136.729  0.00  0.00    +0.000 A 
ATOM     16  C   UNL     1     111.857 125.705 136.356  0.00  0.00    +0.000 A 
ATOM     17  C   UNL     1     113.085 125.274 136.947  0.00  0.00    +0.000 A 
ATOM     18  C   UNL     1     111.656 124.920 136.201  0.00  0.00    +0.000 A 
ATOM     19  C   UNL     1     112.883 124.489 136.792  0.00  0.00    +0.000 A 
ATOM     20  C   UNL     1     112.169 124.312 136.419  0.00  0.00    +0.000 A 
ENDBRANCH   5  15
BRANCH   9  21
ATOM     21  O   UNL     1     113.353 129.331 138.146  0.00  0.00    +0.000 OA
ATOM     22  C   UNL     1     113.458 130.134 138.300  0.00  0.00    +0.000 C 
ENDBRANCH   9  21
BRANCH   4  23
ATOM     23  O   UNL     1     112.522 126.456 138.275  0.00  0.00    +0.000 OA
BRANCH  23  32
ATOM     24  O   UNL     1     111.226 127.040 138.421  0.00  0.00    +0.000 OA
ATOM     25  O   UNL     1     111.241 126.472 140.830  0.00  0.00    +0.000 OA
ATOM     26  O   UNL     1     109.941 127.245 140.172  0.00  0.00    +0.000 OA
ATOM     27  O   UNL     1     112.532 126.077 139.881  0.00  0.00    +0.000 OA
ATOM     28  C   UNL     1     111.236 126.661 140.027  0.00  0.00    +0.000 C 
ATOM     29  C   UNL     1     110.586 127.048 139.697  0.00  0.00    +0.000 C 
ATOM     30  C   UNL     1     111.882 126.464 139.552  0.00  0.00    +0.000 C 
ATOM     31  C   UNL     1     110.581 127.238 138.894  0.00  0.00    +0.000 C 
ATOM     32  C   UNL     1     111.877 126.653 138.749  0.00  0.00    +0.000 C 
BRANCH  31  34
ATOM     33  O   UNL     1     109.467 127.244 138.000  0.00  0.00    +0.000 OA
ATOM     34  C   UNL     1     109.931 127.624 138.566  0.00  0.00    +0.000 C 
ENDBRANCH  31  34
ENDBRANCH  23  32
ENDBRANCH   4  23
TORSDOF 5
ENDMDL
MODEL 10
REMARK VINA RESULT:      -8.8      1.550      3.830
REMARK  Name = 44259529
REMARK  5 active torsions:
REMARK  status: ('A' for Active; 'I' for Inactive)
REMARK    1  A    between atoms: O_2  and  C_17
REMARK    2  A    between atoms: O_2  and  C_19
REMARK    3  A    between atoms: O_9  and  C_25
REMARK    4  A    between atoms: C_16  and  C_18
REMARK    5  A    between atoms: C_20  and  C_24
REMARK                            x       y       z     vdW  Elec       q    Type
REMARK                         _______ _______ _______ _____ _____    ______ ____
ROOT
ATOM      1  O   UNL     1     113.317 126.087 138.922  0.00  0.00    +0.000 OA
ATOM      2  O   UNL     1     112.386 128.327 138.428  0.00  0.00    +0.000 OA
ATOM      3  O   UNL     1     114.751 127.167 141.215  0.00  0.00    +0.000 OA
ATOM      4  C   UNL     1     112.501 126.938 138.113  0.00  0.00    +0.000 A 
ATOM      5  C   UNL     1     112.812 126.191 138.278  0.00  0.00    +0.000 A 
ATOM      6  C   UNL     1     112.696 127.580 138.593  0.00  0.00    +0.000 A 
ATOM      7  C   UNL     1     113.202 127.476 139.237  0.00  0.00    +0.000 A 
ATOM      8  C   UNL     1     113.511 126.730 139.401  0.00  0.00    +0.000 A 
ATOM      9  C   UNL     1     113.397 128.153 139.728  0.00  0.00    +0.000 A 
ATOM     10  C   UNL     1     114.038 126.608 140.069  0.00  0.00    +0.000 A 
ATOM     11  C   UNL     1     113.922 128.051 140.400  0.00  0.00    +0.000 A 
ATOM     12  C   UNL     1     114.246 127.273 140.572  0.00  0.00    +0.000 A 
ENDROOT
BRANCH   5  15
ATOM     13  O   UNL     1     113.541 124.286 136.276  0.00  0.00    +0.000 OA
ATOM     14  O   UNL     1     112.033 123.622 136.358  0.00  0.00    +0.000 OA
ATOM     15  C   UNL     1     112.616 125.549 137.799  0.00  0.00    +0.000 A 
ATOM     16  C   UNL     1     113.176 125.239 137.277  0.00  0.00    +0.000 A 
ATOM     17  C   UNL     1     111.862 125.216 137.840  0.00  0.00    +0.000 A 
ATOM     18  C   UNL     1     112.981 124.596 136.797  0.00  0.00    +0.000 A 
ATOM     19  C   UNL     1     111.668 124.574 137.360  0.00  0.00    +0.000 A 
ATOM     20  C   UNL     1     112.227 124.264 136.839  0.00  0.00    +0.000 A 
ENDBRANCH   5  15
BRANCH   9  21
ATOM     21  O   UNL     1     113.082 128.897 139.556  0.00  0.00    +0.000 OA
ATOM     22  C   UNL     1     113.416 129.573 139.888  0.00  0.00    +0.000 C 
ENDBRANCH   9  21
BRANCH   4  23
ATOM     23  O   UNL     1     111.996 127.042 137.469  0.00  0.00    +0.000 OA
BRANCH  23  32
ATOM     24  O   UNL     1     112.973 127.717 136.674  0.00  0.00    +0.000 OA
ATOM     25  O   UNL     1     111.173 128.976 135.533  0.00  0.00    +0.000 OA
ATOM     26  O   UNL     1     112.749 129.231 135.118  0.00  0.00    +0.000 OA
ATOM     27  O   UNL     1     110.796 127.881 136.709  0.00  0.00    +0.000 OA
ATOM     28  C   UNL     1     111.773 128.556 135.913  0.00  0.00    +0.000 C 
ATOM     29  C   UNL     1     112.561 128.683 135.706  0.00  0.00    +0.000 C 
ATOM     30  C   UNL     1     111.585 128.008 136.502  0.00  0.00    +0.000 C 
ATOM     31  C   UNL     1     113.161 128.263 136.087  0.00  0.00    +0.000 C 
ATOM     32  C   UNL     1     112.185 127.589 136.882  0.00  0.00    +0.000 C 
BRANCH  31  34
ATOM     33  O   UNL     1     114.426 127.755 135.658  0.00  0.00    +0.000 OA
ATOM     34  C   UNL     1     113.949 128.391 135.879  0.00  0.00    +0.000 C 
ENDBRANCH  31  34
ENDBRANCH  23  32
ENDBRANCH   4  23
TORSDOF 5
ENDMDL
