MODEL 1
REMARK VINA RESULT:      -9.5      0.000      0.000
REMARK  Name = 44259489
REMARK  11 active torsions:
REMARK  status: ('A' for Active; 'I' for Inactive)
REMARK    1  A    between atoms: O_1  and  C_20
REMARK    2  A    between atoms: O_1  and  C_23
REMARK    3  A    between atoms: O_6  and  C_29
REMARK    4  A    between atoms: O_6  and  C_32
REMARK    5  A    between atoms: O_10  and  C_31
REMARK    6  A    between atoms: O_10  and  C_35
REMARK    7  A    between atoms: O_16  and  C_46
REMARK    8  A    between atoms: O_17  and  C_47
REMARK    9  A    between atoms: C_25  and  C_30
REMARK   10  A    between atoms: C_28  and  C_31
REMARK   11  A    between atoms: C_33  and  C_37
REMARK                            x       y       z     vdW  Elec       q    Type
REMARK                         _______ _______ _______ _____ _____    ______ ____
ROOT
ATOM      1  O   UNL     1     111.989 128.287 136.272  0.00  0.00    +0.000 OA
ENDROOT
BRANCH   1   6
ATOM      2  O   UNL     1     113.885 127.345 136.801  0.00  0.00    +0.000 OA
ATOM      3  O   UNL     1     111.545 126.699 136.316  0.00  0.00    +0.000 OA
ATOM      4  O   UNL     1     111.857 125.305 136.518  0.00  0.00    +0.000 OA
ATOM      5  O   UNL     1     114.588 124.550 137.223  0.00  0.00    +0.000 OA
ATOM      6  C   UNL     1     112.547 127.708 136.456  0.00  0.00    +0.000 A 
ATOM      7  C   UNL     1     113.327 127.924 136.617  0.00  0.00    +0.000 A 
ATOM      8  C   UNL     1     112.325 126.914 136.478  0.00  0.00    +0.000 A 
ATOM      9  C   UNL     1     112.883 126.335 136.661  0.00  0.00    +0.000 A 
ATOM     10  C   UNL     1     113.663 126.550 136.823  0.00  0.00    +0.000 A 
ATOM     11  C   UNL     1     112.640 125.510 136.681  0.00  0.00    +0.000 A 
ATOM     12  C   UNL     1     114.254 125.956 137.015  0.00  0.00    +0.000 A 
ATOM     13  C   UNL     1     113.216 124.902 136.871  0.00  0.00    +0.000 A 
ATOM     14  C   UNL     1     114.028 125.127 137.039  0.00  0.00    +0.000 A 
BRANCH   7  16
ATOM     15  O   UNL     1     114.215 131.101 136.531  0.00  0.00    +0.000 OA
ATOM     16  C   UNL     1     113.548 128.717 136.596  0.00  0.00    +0.000 A 
ATOM     17  C   UNL     1     113.725 129.078 135.874  0.00  0.00    +0.000 A 
ATOM     18  C   UNL     1     113.594 129.152 137.295  0.00  0.00    +0.000 A 
ATOM     19  C   UNL     1     113.816 129.947 137.274  0.00  0.00    +0.000 A 
ATOM     20  C   UNL     1     113.947 129.871 135.853  0.00  0.00    +0.000 A 
ATOM     21  C   UNL     1     113.993 130.306 136.552  0.00  0.00    +0.000 A 
BRANCH  19  22
ATOM     22  O   UNL     1     113.861 130.382 137.973  0.00  0.00    +0.000 OA
ATOM     23  C   UNL     1     114.147 130.027 138.661  0.00  0.00    +0.000 C 
ENDBRANCH  19  22
BRANCH  20  24
ATOM     24  O   UNL     1     114.124 130.231 135.132  0.00  0.00    +0.000 OA
ATOM     25  C   UNL     1     114.656 129.874 134.612  0.00  0.00    +0.000 C 
ENDBRANCH  20  24
ENDBRANCH   7  16
ENDBRANCH   1   6
BRANCH   1  33
ATOM     26  O   UNL     1     111.328 128.224 137.538  0.00  0.00    +0.000 OA
ATOM     27  O   UNL     1     109.241 128.564 138.080  0.00  0.00    +0.000 OA
ATOM     28  O   UNL     1     110.562 128.690 135.548  0.00  0.00    +0.000 OA
ATOM     29  C   UNL     1     109.902 128.627 136.814  0.00  0.00    +0.000 C 
ATOM     30  C   UNL     1     109.928 128.495 137.627  0.00  0.00    +0.000 C 
ATOM     31  C   UNL     1     110.588 128.558 136.361  0.00  0.00    +0.000 C 
ATOM     32  C   UNL     1     110.641 128.293 137.989  0.00  0.00    +0.000 C 
ATOM     33  C   UNL     1     111.302 128.357 136.723  0.00  0.00    +0.000 C 
BRANCH  32  35
ATOM     34  O   UNL     1     111.064 128.692 139.295  0.00  0.00    +0.000 OA
ATOM     35  C   UNL     1     110.668 128.161 138.804  0.00  0.00    +0.000 C 
ENDBRANCH  32  35
BRANCH  29  36
ATOM     36  O   UNL     1     109.188 128.829 136.452  0.00  0.00    +0.000 OA
BRANCH  36  41
ATOM     37  O   UNL     1     109.417 130.204 136.767  0.00  0.00    +0.000 OA
ATOM     38  O   UNL     1     107.771 129.234 135.711  0.00  0.00    +0.000 OA
ATOM     39  O   UNL     1     107.291 130.812 135.656  0.00  0.00    +0.000 OA
ATOM     40  O   UNL     1     108.228 131.984 136.341  0.00  0.00    +0.000 OA
ATOM     41  C   UNL     1     108.948 129.617 136.424  0.00  0.00    +0.000 C 
ATOM     42  C   UNL     1     108.239 129.820 136.054  0.00  0.00    +0.000 C 
ATOM     43  C   UNL     1     107.999 130.609 136.026  0.00  0.00    +0.000 C 
ATOM     44  C   UNL     1     108.467 131.195 136.369  0.00  0.00    +0.000 C 
ATOM     45  C   UNL     1     109.176 130.992 136.739  0.00  0.00    +0.000 C 
BRANCH  45  46
ATOM     46  C   UNL     1     109.645 131.579 137.082  0.00  0.00    +0.000 C 
BRANCH  46  47
ATOM     47  O   UNL     1     110.437 131.653 136.863  0.00  0.00    +0.000 OA
BRANCH  47  49
ATOM     48  O   UNL     1     111.141 132.050 138.043  0.00  0.00    +0.000 OA
ATOM     49  C   UNL     1     110.926 132.189 137.258  0.00  0.00    +0.000 C 
ATOM     50  C   UNL     1     111.198 132.862 136.868  0.00  0.00    +0.000 C 
ENDBRANCH  47  49
ENDBRANCH  46  47
ENDBRANCH  45  46
ENDBRANCH  36  41
ENDBRANCH  29  36
ENDBRANCH   1  33
TORSDOF 11
ENDMDL
MODEL 2
REMARK VINA RESULT:      -9.4      1.077      2.075
REMARK  Name = 44259489
REMARK  11 active torsions:
REMARK  status: ('A' for Active; 'I' for Inactive)
REMARK    1  A    between atoms: O_1  and  C_20
REMARK    2  A    between atoms: O_1  and  C_23
REMARK    3  A    between atoms: O_6  and  C_29
REMARK    4  A    between atoms: O_6  and  C_32
REMARK    5  A    between atoms: O_10  and  C_31
REMARK    6  A    between atoms: O_10  and  C_35
REMARK    7  A    between atoms: O_16  and  C_46
REMARK    8  A    between atoms: O_17  and  C_47
REMARK    9  A    between atoms: C_25  and  C_30
REMARK   10  A    between atoms: C_28  and  C_31
REMARK   11  A    between atoms: C_33  and  C_37
REMARK                            x       y       z     vdW  Elec       q    Type
REMARK                         _______ _______ _______ _____ _____    ______ ____
ROOT
ATOM      1  O   UNL     1     111.497 128.120 137.617  0.00  0.00    +0.000 OA
ENDROOT
BRANCH   1   6
ATOM      2  O   UNL     1     113.364 127.277 138.370  0.00  0.00    +0.000 OA
ATOM      3  O   UNL     1     111.604 126.744 136.713  0.00  0.00    +0.000 OA
ATOM      4  O   UNL     1     112.284 125.527 136.339  0.00  0.00    +0.000 OA
ATOM      5  O   UNL     1     114.791 124.838 137.667  0.00  0.00    +0.000 OA
ATOM      6  C   UNL     1     112.137 127.609 137.717  0.00  0.00    +0.000 A 
ATOM      7  C   UNL     1     112.724 127.787 138.270  0.00  0.00    +0.000 A 
ATOM      8  C   UNL     1     112.190 126.922 137.266  0.00  0.00    +0.000 A 
ATOM      9  C   UNL     1     112.830 126.411 137.366  0.00  0.00    +0.000 A 
ATOM     10  C   UNL     1     113.417 126.588 137.918  0.00  0.00    +0.000 A 
ATOM     11  C   UNL     1     112.875 125.697 136.889  0.00  0.00    +0.000 A 
ATOM     12  C   UNL     1     114.089 126.065 138.032  0.00  0.00    +0.000 A 
ATOM     13  C   UNL     1     113.539 125.161 136.989  0.00  0.00    +0.000 A 
ATOM     14  C   UNL     1     114.150 125.347 137.564  0.00  0.00    +0.000 A 
BRANCH   7  16
ATOM     15  O   UNL     1     112.510 130.539 140.078  0.00  0.00    +0.000 OA
ATOM     16  C   UNL     1     112.670 128.475 138.721  0.00  0.00    +0.000 A 
ATOM     17  C   UNL     1     113.122 129.136 138.522  0.00  0.00    +0.000 A 
ATOM     18  C   UNL     1     112.165 128.502 139.373  0.00  0.00    +0.000 A 
ATOM     19  C   UNL     1     112.112 129.190 139.826  0.00  0.00    +0.000 A 
ATOM     20  C   UNL     1     113.068 129.824 138.974  0.00  0.00    +0.000 A 
ATOM     21  C   UNL     1     112.563 129.851 139.626  0.00  0.00    +0.000 A 
BRANCH  19  22
ATOM     22  O   UNL     1     111.607 129.218 140.478  0.00  0.00    +0.000 OA
ATOM     23  C   UNL     1     111.534 128.560 140.970  0.00  0.00    +0.000 C 
ENDBRANCH  19  22
BRANCH  20  24
ATOM     24  O   UNL     1     113.520 130.485 138.775  0.00  0.00    +0.000 OA
ATOM     25  C   UNL     1     114.272 130.388 138.450  0.00  0.00    +0.000 C 
ENDBRANCH  20  24
ENDBRANCH   7  16
ENDBRANCH   1   6
BRANCH   1  33
ATOM     26  O   UNL     1     111.958 128.618 136.359  0.00  0.00    +0.000 OA
ATOM     27  O   UNL     1     110.860 129.404 134.644  0.00  0.00    +0.000 OA
ATOM     28  O   UNL     1     109.938 128.408 137.160  0.00  0.00    +0.000 OA
ATOM     29  C   UNL     1     110.399 128.906 135.902  0.00  0.00    +0.000 C 
ATOM     30  C   UNL     1     111.018 129.083 135.388  0.00  0.00    +0.000 C 
ATOM     31  C   UNL     1     110.557 128.585 136.645  0.00  0.00    +0.000 C 
ATOM     32  C   UNL     1     111.798 128.939 135.617  0.00  0.00    +0.000 C 
ATOM     33  C   UNL     1     111.337 128.441 136.874  0.00  0.00    +0.000 C 
BRANCH  32  35
ATOM     34  O   UNL     1     112.969 129.697 135.304  0.00  0.00    +0.000 OA
ATOM     35  C   UNL     1     112.419 129.116 135.102  0.00  0.00    +0.000 C 
ENDBRANCH  32  35
BRANCH  29  36
ATOM     36  O   UNL     1     109.619 129.050 135.673  0.00  0.00    +0.000 OA
BRANCH  36  41
ATOM     37  O   UNL     1     109.717 130.403 136.122  0.00  0.00    +0.000 OA
ATOM     38  O   UNL     1     107.983 129.212 135.540  0.00  0.00    +0.000 OA
ATOM     39  O   UNL     1     107.262 130.646 135.923  0.00  0.00    +0.000 OA
ATOM     40  O   UNL     1     108.178 131.918 136.438  0.00  0.00    +0.000 OA
ATOM     41  C   UNL     1     109.258 129.766 135.864  0.00  0.00    +0.000 C 
ATOM     42  C   UNL     1     108.440 129.847 135.798  0.00  0.00    +0.000 C 
ATOM     43  C   UNL     1     108.080 130.565 135.989  0.00  0.00    +0.000 C 
ATOM     44  C   UNL     1     108.538 131.201 136.247  0.00  0.00    +0.000 C 
ATOM     45  C   UNL     1     109.356 131.120 136.313  0.00  0.00    +0.000 C 
BRANCH  45  46
ATOM     46  C   UNL     1     109.815 131.756 136.571  0.00  0.00    +0.000 C 
BRANCH  46  47
ATOM     47  O   UNL     1     110.336 131.659 137.203  0.00  0.00    +0.000 OA
BRANCH  47  49
ATOM     48  O   UNL     1     110.668 132.683 138.144  0.00  0.00    +0.000 OA
ATOM     49  C   UNL     1     110.821 132.284 137.437  0.00  0.00    +0.000 C 
ATOM     50  C   UNL     1     111.458 132.511 136.965  0.00  0.00    +0.000 C 
ENDBRANCH  47  49
ENDBRANCH  46  47
ENDBRANCH  45  46
ENDBRANCH  36  41
ENDBRANCH  29  36
ENDBRANCH   1  33
TORSDOF 11
ENDMDL
MODEL 3
REMARK VINA RESULT:      -9.4      1.164      2.315
REMARK  Name = 44259489
REMARK  11 active torsions:
REMARK  status: ('A' for Active; 'I' for Inactive)
REMARK    1  A    between atoms: O_1  and  C_20
REMARK    2  A    between atoms: O_1  and  C_23
REMARK    3  A    between atoms: O_6  and  C_29
REMARK    4  A    between atoms: O_6  and  C_32
REMARK    5  A    between atoms: O_10  and  C_31
REMARK    6  A    between atoms: O_10  and  C_35
REMARK    7  A    between atoms: O_16  and  C_46
REMARK    8  A    between atoms: O_17  and  C_47
REMARK    9  A    between atoms: C_25  and  C_30
REMARK   10  A    between atoms: C_28  and  C_31
REMARK   11  A    between atoms: C_33  and  C_37
REMARK                            x       y       z     vdW  Elec       q    Type
REMARK                         _______ _______ _______ _____ _____    ______ ____
ROOT
ATOM      1  O   UNL     1     111.425 128.291 137.745  0.00  0.00    +0.000 OA
ENDROOT
BRANCH   1   6
ATOM      2  O   UNL     1     113.269 127.463 138.566  0.00  0.00    +0.000 OA
ATOM      3  O   UNL     1     111.560 126.901 136.866  0.00  0.00    +0.000 OA
ATOM      4  O   UNL     1     112.252 125.680 136.531  0.00  0.00    +0.000 OA
ATOM      5  O   UNL     1     114.720 125.015 137.944  0.00  0.00    +0.000 OA
ATOM      6  C   UNL     1     112.063 127.783 137.872  0.00  0.00    +0.000 A 
ATOM      7  C   UNL     1     112.632 127.971 138.439  0.00  0.00    +0.000 A 
ATOM      8  C   UNL     1     112.130 127.089 137.433  0.00  0.00    +0.000 A 
ATOM      9  C   UNL     1     112.767 126.581 137.560  0.00  0.00    +0.000 A 
ATOM     10  C   UNL     1     113.337 126.767 138.126  0.00  0.00    +0.000 A 
ATOM     11  C   UNL     1     112.827 125.859 137.096  0.00  0.00    +0.000 A 
ATOM     12  C   UNL     1     114.006 126.246 138.269  0.00  0.00    +0.000 A 
ATOM     13  C   UNL     1     113.488 125.326 137.224  0.00  0.00    +0.000 A 
ATOM     14  C   UNL     1     114.081 125.521 137.814  0.00  0.00    +0.000 A 
BRANCH   7  16
ATOM     15  O   UNL     1     112.363 130.751 140.196  0.00  0.00    +0.000 OA
ATOM     16  C   UNL     1     112.565 128.665 138.878  0.00  0.00    +0.000 A 
ATOM     17  C   UNL     1     112.038 128.704 139.512  0.00  0.00    +0.000 A 
ATOM     18  C   UNL     1     113.024 129.322 138.683  0.00  0.00    +0.000 A 
ATOM     19  C   UNL     1     112.957 130.018 139.123  0.00  0.00    +0.000 A 
ATOM     20  C   UNL     1     111.971 129.398 139.951  0.00  0.00    +0.000 A 
ATOM     21  C   UNL     1     112.430 130.055 139.757  0.00  0.00    +0.000 A 
BRANCH  19  22
ATOM     22  O   UNL     1     113.416 130.675 138.928  0.00  0.00    +0.000 OA
ATOM     23  C   UNL     1     114.179 130.571 138.631  0.00  0.00    +0.000 C 
ENDBRANCH  19  22
BRANCH  20  24
ATOM     24  O   UNL     1     111.445 129.437 140.586  0.00  0.00    +0.000 OA
ATOM     25  C   UNL     1     111.423 128.827 141.141  0.00  0.00    +0.000 C 
ENDBRANCH  20  24
ENDBRANCH   7  16
ENDBRANCH   1   6
BRANCH   1  33
ATOM     26  O   UNL     1     111.919 128.775 136.494  0.00  0.00    +0.000 OA
ATOM     27  O   UNL     1     110.866 129.515 134.731  0.00  0.00    +0.000 OA
ATOM     28  O   UNL     1     109.878 128.547 137.232  0.00  0.00    +0.000 OA
ATOM     29  C   UNL     1     110.372 129.031 135.981  0.00  0.00    +0.000 C 
ATOM     30  C   UNL     1     111.005 129.209 135.485  0.00  0.00    +0.000 C 
ATOM     31  C   UNL     1     110.511 128.725 136.735  0.00  0.00    +0.000 C 
ATOM     32  C   UNL     1     111.779 129.081 135.741  0.00  0.00    +0.000 C 
ATOM     33  C   UNL     1     111.285 128.597 136.991  0.00  0.00    +0.000 C 
BRANCH  32  35
ATOM     34  O   UNL     1     112.956 129.842 135.460  0.00  0.00    +0.000 OA
ATOM     35  C   UNL     1     112.413 129.259 135.244  0.00  0.00    +0.000 C 
ENDBRANCH  32  35
BRANCH  29  36
ATOM     36  O   UNL     1     109.598 129.158 135.725  0.00  0.00    +0.000 OA
BRANCH  36  41
ATOM     37  O   UNL     1     109.656 130.518 136.160  0.00  0.00    +0.000 OA
ATOM     38  O   UNL     1     107.963 129.285 135.548  0.00  0.00    +0.000 OA
ATOM     39  O   UNL     1     107.203 130.708 135.894  0.00  0.00    +0.000 OA
ATOM     40  O   UNL     1     108.079 132.005 136.417  0.00  0.00    +0.000 OA
ATOM     41  C   UNL     1     109.218 129.869 135.898  0.00  0.00    +0.000 C 
ATOM     42  C   UNL     1     108.400 129.933 135.809  0.00  0.00    +0.000 C 
ATOM     43  C   UNL     1     108.021 130.645 135.982  0.00  0.00    +0.000 C 
ATOM     44  C   UNL     1     108.458 131.293 136.244  0.00  0.00    +0.000 C 
ATOM     45  C   UNL     1     109.276 131.229 136.333  0.00  0.00    +0.000 C 
BRANCH  45  46
ATOM     46  C   UNL     1     109.714 131.878 136.595  0.00  0.00    +0.000 C 
BRANCH  46  47
ATOM     47  O   UNL     1     110.256 131.787 137.210  0.00  0.00    +0.000 OA
BRANCH  47  49
ATOM     48  O   UNL     1     110.548 132.828 138.146  0.00  0.00    +0.000 OA
ATOM     49  C   UNL     1     110.722 132.427 137.447  0.00  0.00    +0.000 C 
ATOM     50  C   UNL     1     111.362 132.663 136.983  0.00  0.00    +0.000 C 
ENDBRANCH  47  49
ENDBRANCH  46  47
ENDBRANCH  45  46
ENDBRANCH  36  41
ENDBRANCH  29  36
ENDBRANCH   1  33
TORSDOF 11
ENDMDL
MODEL 4
REMARK VINA RESULT:      -9.4      1.568      2.303
REMARK  Name = 44259489
REMARK  11 active torsions:
REMARK  status: ('A' for Active; 'I' for Inactive)
REMARK    1  A    between atoms: O_1  and  C_20
REMARK    2  A    between atoms: O_1  and  C_23
REMARK    3  A    between atoms: O_6  and  C_29
REMARK    4  A    between atoms: O_6  and  C_32
REMARK    5  A    between atoms: O_10  and  C_31
REMARK    6  A    between atoms: O_10  and  C_35
REMARK    7  A    between atoms: O_16  and  C_46
REMARK    8  A    between atoms: O_17  and  C_47
REMARK    9  A    between atoms: C_25  and  C_30
REMARK   10  A    between atoms: C_28  and  C_31
REMARK   11  A    between atoms: C_33  and  C_37
REMARK                            x       y       z     vdW  Elec       q    Type
REMARK                         _______ _______ _______ _____ _____    ______ ____
ROOT
ATOM      1  O   UNL     1     111.965 128.490 137.452  0.00  0.00    +0.000 OA
ENDROOT
BRANCH   1   6
ATOM      2  O   UNL     1     113.433 127.281 138.522  0.00  0.00    +0.000 OA
ATOM      3  O   UNL     1     112.152 127.230 136.404  0.00  0.00    +0.000 OA
ATOM      4  O   UNL     1     112.758 125.973 136.034  0.00  0.00    +0.000 OA
ATOM      5  O   UNL     1     114.696 124.746 137.841  0.00  0.00    +0.000 OA
ATOM      6  C   UNL     1     112.486 127.877 137.634  0.00  0.00    +0.000 A 
ATOM      7  C   UNL     1     112.912 127.894 138.340  0.00  0.00    +0.000 A 
ATOM      8  C   UNL     1     112.579 127.247 137.110  0.00  0.00    +0.000 A 
ATOM      9  C   UNL     1     113.100 126.634 137.292  0.00  0.00    +0.000 A 
ATOM     10  C   UNL     1     113.527 126.650 137.997  0.00  0.00    +0.000 A 
ATOM     11  C   UNL     1     113.189 125.982 136.738  0.00  0.00    +0.000 A 
ATOM     12  C   UNL     1     114.073 126.018 138.199  0.00  0.00    +0.000 A 
ATOM     13  C   UNL     1     113.730 125.340 136.921  0.00  0.00    +0.000 A 
ATOM     14  C   UNL     1     114.175 125.359 137.657  0.00  0.00    +0.000 A 
BRANCH   7  16
ATOM     15  O   UNL     1     112.538 130.416 140.436  0.00  0.00    +0.000 OA
ATOM     16  C   UNL     1     112.819 128.524 138.863  0.00  0.00    +0.000 A 
ATOM     17  C   UNL     1     112.369 128.429 139.549  0.00  0.00    +0.000 A 
ATOM     18  C   UNL     1     113.174 129.251 138.702  0.00  0.00    +0.000 A 
ATOM     19  C   UNL     1     113.081 129.882 139.226  0.00  0.00    +0.000 A 
ATOM     20  C   UNL     1     112.276 129.058 140.073  0.00  0.00    +0.000 A 
ATOM     21  C   UNL     1     112.631 129.785 139.911  0.00  0.00    +0.000 A 
BRANCH  19  22
ATOM     22  O   UNL     1     113.436 130.609 139.065  0.00  0.00    +0.000 OA
ATOM     23  C   UNL     1     114.209 130.634 138.776  0.00  0.00    +0.000 C 
ENDBRANCH  19  22
BRANCH  20  24
ATOM     24  O   UNL     1     111.827 128.963 140.758  0.00  0.00    +0.000 OA
ATOM     25  C   UNL     1     111.781 128.223 141.121  0.00  0.00    +0.000 C 
ENDBRANCH  20  24
ENDBRANCH   7  16
ENDBRANCH   1   6
BRANCH   1  33
ATOM     26  O   UNL     1     110.798 127.707 137.712  0.00  0.00    +0.000 OA
ATOM     27  O   UNL     1     108.777 127.839 136.897  0.00  0.00    +0.000 OA
ATOM     28  O   UNL     1     111.110 129.407 136.378  0.00  0.00    +0.000 OA
ATOM     29  C   UNL     1     109.944 128.623 136.638  0.00  0.00    +0.000 C 
ATOM     30  C   UNL     1     109.574 128.003 137.036  0.00  0.00    +0.000 C 
ATOM     31  C   UNL     1     110.741 128.786 136.776  0.00  0.00    +0.000 C 
ATOM     32  C   UNL     1     110.002 127.545 137.572  0.00  0.00    +0.000 C 
ATOM     33  C   UNL     1     111.168 128.328 137.313  0.00  0.00    +0.000 C 
BRANCH  32  35
ATOM     34  O   UNL     1     109.457 126.994 138.774  0.00  0.00    +0.000 OA
ATOM     35  C   UNL     1     109.632 126.923 137.971  0.00  0.00    +0.000 C 
ENDBRANCH  32  35
BRANCH  29  36
ATOM     36  O   UNL     1     109.517 129.081 136.101  0.00  0.00    +0.000 OA
BRANCH  36  41
ATOM     37  O   UNL     1     109.216 130.021 137.135  0.00  0.00    +0.000 OA
ATOM     38  O   UNL     1     108.529 129.905 135.067  0.00  0.00    +0.000 OA
ATOM     39  O   UNL     1     107.735 131.256 135.584  0.00  0.00    +0.000 OA
ATOM     40  O   UNL     1     107.929 131.783 137.135  0.00  0.00    +0.000 OA
ATOM     41  C   UNL     1     109.119 129.757 136.359  0.00  0.00    +0.000 C 
ATOM     42  C   UNL     1     108.626 130.168 135.842  0.00  0.00    +0.000 C 
ATOM     43  C   UNL     1     108.229 130.844 136.101  0.00  0.00    +0.000 C 
ATOM     44  C   UNL     1     108.325 131.108 136.876  0.00  0.00    +0.000 C 
ATOM     45  C   UNL     1     108.819 130.696 137.393  0.00  0.00    +0.000 C 
BRANCH  45  46
ATOM     46  C   UNL     1     108.916 130.960 138.170  0.00  0.00    +0.000 C 
BRANCH  46  47
ATOM     47  O   UNL     1     108.701 130.473 138.800  0.00  0.00    +0.000 OA
BRANCH  47  49
ATOM     48  O   UNL     1     109.397 131.335 139.703  0.00  0.00    +0.000 OA
ATOM     49  C   UNL     1     108.924 130.672 139.569  0.00  0.00    +0.000 C 
ATOM     50  C   UNL     1     108.672 130.209 140.204  0.00  0.00    +0.000 C 
ENDBRANCH  47  49
ENDBRANCH  46  47
ENDBRANCH  45  46
ENDBRANCH  36  41
ENDBRANCH  29  36
ENDBRANCH   1  33
TORSDOF 11
ENDMDL
MODEL 5
REMARK VINA RESULT:      -9.2      1.986      3.815
REMARK  Name = 44259489
REMARK  11 active torsions:
REMARK  status: ('A' for Active; 'I' for Inactive)
REMARK    1  A    between atoms: O_1  and  C_20
REMARK    2  A    between atoms: O_1  and  C_23
REMARK    3  A    between atoms: O_6  and  C_29
REMARK    4  A    between atoms: O_6  and  C_32
REMARK    5  A    between atoms: O_10  and  C_31
REMARK    6  A    between atoms: O_10  and  C_35
REMARK    7  A    between atoms: O_16  and  C_46
REMARK    8  A    between atoms: O_17  and  C_47
REMARK    9  A    between atoms: C_25  and  C_30
REMARK   10  A    between atoms: C_28  and  C_31
REMARK   11  A    between atoms: C_33  and  C_37
REMARK                            x       y       z     vdW  Elec       q    Type
REMARK                         _______ _______ _______ _____ _____    ______ ____
ROOT
ATOM      1  O   UNL     1     109.972 126.939 138.011  0.00  0.00    +0.000 OA
ENDROOT
BRANCH   1   6
ATOM      2  O   UNL     1     111.082 125.125 138.503  0.00  0.00    +0.000 OA
ATOM      3  O   UNL     1     110.384 126.408 136.505  0.00  0.00    +0.000 OA
ATOM      4  O   UNL     1     111.027 125.455 135.633  0.00  0.00    +0.000 OA
ATOM      5  O   UNL     1     112.401 123.161 136.806  0.00  0.00    +0.000 OA
ATOM      6  C   UNL     1     110.411 126.246 137.924  0.00  0.00    +0.000 A 
ATOM      7  C   UNL     1     110.643 125.819 138.591  0.00  0.00    +0.000 A 
ATOM      8  C   UNL     1     110.617 125.981 137.171  0.00  0.00    +0.000 A 
ATOM      9  C   UNL     1     111.055 125.288 137.084  0.00  0.00    +0.000 A 
ATOM     10  C   UNL     1     111.288 124.859 137.749  0.00  0.00    +0.000 A 
ATOM     11  C   UNL     1     111.264 125.021 136.294  0.00  0.00    +0.000 A 
ATOM     12  C   UNL     1     111.745 124.136 137.672  0.00  0.00    +0.000 A 
ATOM     13  C   UNL     1     111.721 124.300 136.196  0.00  0.00    +0.000 A 
ATOM     14  C   UNL     1     111.962 123.855 136.890  0.00  0.00    +0.000 A 
BRANCH   7  16
ATOM     15  O   UNL     1     109.820 126.881 141.605  0.00  0.00    +0.000 OA
ATOM     16  C   UNL     1     110.437 126.084 139.344  0.00  0.00    +0.000 A 
ATOM     17  C   UNL     1     109.666 125.986 139.620  0.00  0.00    +0.000 A 
ATOM     18  C   UNL     1     111.003 126.447 139.822  0.00  0.00    +0.000 A 
ATOM     19  C   UNL     1     110.797 126.713 140.576  0.00  0.00    +0.000 A 
ATOM     20  C   UNL     1     109.460 126.252 140.373  0.00  0.00    +0.000 A 
ATOM     21  C   UNL     1     110.025 126.615 140.851  0.00  0.00    +0.000 A 
BRANCH  19  22
ATOM     22  O   UNL     1     111.363 127.076 141.054  0.00  0.00    +0.000 OA
ATOM     23  C   UNL     1     112.144 126.813 141.041  0.00  0.00    +0.000 C 
ENDBRANCH  19  22
BRANCH  20  24
ATOM     24  O   UNL     1     108.688 126.154 140.649  0.00  0.00    +0.000 OA
ATOM     25  C   UNL     1     108.341 125.406 140.644  0.00  0.00    +0.000 C 
ENDBRANCH  20  24
ENDBRANCH   7  16
ENDBRANCH   1   6
BRANCH   1  33
ATOM     26  O   UNL     1     111.049 127.836 137.732  0.00  0.00    +0.000 OA
ATOM     27  O   UNL     1     111.074 129.765 136.710  0.00  0.00    +0.000 OA
ATOM     28  O   UNL     1     108.920 127.971 137.268  0.00  0.00    +0.000 OA
ATOM     29  C   UNL     1     109.997 128.868 136.989  0.00  0.00    +0.000 C 
ATOM     30  C   UNL     1     110.798 129.058 137.035  0.00  0.00    +0.000 C 
ATOM     31  C   UNL     1     109.721 128.161 137.314  0.00  0.00    +0.000 C 
ATOM     32  C   UNL     1     111.324 128.543 137.407  0.00  0.00    +0.000 C 
ATOM     33  C   UNL     1     110.247 127.646 137.686  0.00  0.00    +0.000 C 
BRANCH  32  35
ATOM     34  O   UNL     1     112.483 128.837 138.190  0.00  0.00    +0.000 OA
ATOM     35  C   UNL     1     112.126 128.733 137.453  0.00  0.00    +0.000 C 
ENDBRANCH  32  35
BRANCH  29  36
ATOM     36  O   UNL     1     109.471 129.384 136.618  0.00  0.00    +0.000 OA
BRANCH  36  41
ATOM     37  O   UNL     1     109.211 130.045 137.857  0.00  0.00    +0.000 OA
ATOM     38  O   UNL     1     108.730 130.614 135.806  0.00  0.00    +0.000 OA
ATOM     39  O   UNL     1     108.098 131.890 136.639  0.00  0.00    +0.000 OA
ATOM     40  O   UNL     1     108.208 131.936 138.285  0.00  0.00    +0.000 OA
ATOM     41  C   UNL     1     109.156 130.022 137.034  0.00  0.00    +0.000 C 
ATOM     42  C   UNL     1     108.785 130.637 136.628  0.00  0.00    +0.000 C 
ATOM     43  C   UNL     1     108.469 131.275 137.045  0.00  0.00    +0.000 C 
ATOM     44  C   UNL     1     108.524 131.298 137.868  0.00  0.00    +0.000 C 
ATOM     45  C   UNL     1     108.895 130.683 138.274  0.00  0.00    +0.000 C 
BRANCH  45  46
ATOM     46  C   UNL     1     108.950 130.706 139.097  0.00  0.00    +0.000 C 
BRANCH  46  47
ATOM     47  O   UNL     1     108.633 130.093 139.548  0.00  0.00    +0.000 OA
BRANCH  47  49
ATOM     48  O   UNL     1     109.607 130.073 140.595  0.00  0.00    +0.000 OA
ATOM     49  C   UNL     1     108.820 130.032 140.350  0.00  0.00    +0.000 C 
ATOM     50  C   UNL     1     108.219 129.931 140.906  0.00  0.00    +0.000 C 
ENDBRANCH  47  49
ENDBRANCH  46  47
ENDBRANCH  45  46
ENDBRANCH  36  41
ENDBRANCH  29  36
ENDBRANCH   1  33
TORSDOF 11
ENDMDL
MODEL 6
REMARK VINA RESULT:      -9.2      2.580      3.984
REMARK  Name = 44259489
REMARK  11 active torsions:
REMARK  status: ('A' for Active; 'I' for Inactive)
REMARK    1  A    between atoms: O_1  and  C_20
REMARK    2  A    between atoms: O_1  and  C_23
REMARK    3  A    between atoms: O_6  and  C_29
REMARK    4  A    between atoms: O_6  and  C_32
REMARK    5  A    between atoms: O_10  and  C_31
REMARK    6  A    between atoms: O_10  and  C_35
REMARK    7  A    between atoms: O_16  and  C_46
REMARK    8  A    between atoms: O_17  and  C_47
REMARK    9  A    between atoms: C_25  and  C_30
REMARK   10  A    between atoms: C_28  and  C_31
REMARK   11  A    between atoms: C_33  and  C_37
REMARK                            x       y       z     vdW  Elec       q    Type
REMARK                         _______ _______ _______ _____ _____    ______ ____
ROOT
ATOM      1  O   UNL     1     111.932 126.210 139.195  0.00  0.00    +0.000 OA
ENDROOT
BRANCH   1   6
ATOM      2  O   UNL     1     113.670 126.355 137.883  0.00  0.00    +0.000 OA
ATOM      3  O   UNL     1     111.743 124.852 138.277  0.00  0.00    +0.000 OA
ATOM      4  O   UNL     1     112.178 123.970 137.221  0.00  0.00    +0.000 OA
ATOM      5  O   UNL     1     114.608 124.621 135.740  0.00  0.00    +0.000 OA
ATOM      6  C   UNL     1     112.480 126.032 138.605  0.00  0.00    +0.000 A 
ATOM      7  C   UNL     1     113.122 126.533 138.474  0.00  0.00    +0.000 A 
ATOM      8  C   UNL     1     112.385 125.354 138.146  0.00  0.00    +0.000 A 
ATOM      9  C   UNL     1     112.933 125.176 137.555  0.00  0.00    +0.000 A 
ATOM     10  C   UNL     1     113.575 125.676 137.423  0.00  0.00    +0.000 A 
ATOM     11  C   UNL     1     112.824 124.465 137.083  0.00  0.00    +0.000 A 
ATOM     12  C   UNL     1     114.153 125.502 136.811  0.00  0.00    +0.000 A 
ATOM     13  C   UNL     1     113.390 124.274 136.466  0.00  0.00    +0.000 A 
ATOM     14  C   UNL     1     114.059 124.797 136.330  0.00  0.00    +0.000 A 
BRANCH   7  16
ATOM     15  O   UNL     1     113.502 129.248 140.311  0.00  0.00    +0.000 OA
ATOM     16  C   UNL     1     113.217 127.211 138.933  0.00  0.00    +0.000 A 
ATOM     17  C   UNL     1     112.988 127.947 138.636  0.00  0.00    +0.000 A 
ATOM     18  C   UNL     1     113.542 127.155 139.689  0.00  0.00    +0.000 A 
ATOM     19  C   UNL     1     113.637 127.835 140.149  0.00  0.00    +0.000 A 
ATOM     20  C   UNL     1     113.083 128.625 139.095  0.00  0.00    +0.000 A 
ATOM     21  C   UNL     1     113.407 128.569 139.851  0.00  0.00    +0.000 A 
BRANCH  19  22
ATOM     22  O   UNL     1     113.961 127.779 140.905  0.00  0.00    +0.000 OA
ATOM     23  C   UNL     1     114.595 127.269 141.045  0.00  0.00    +0.000 C 
ENDBRANCH  19  22
BRANCH  20  24
ATOM     24  O   UNL     1     112.853 129.360 138.798  0.00  0.00    +0.000 OA
ATOM     25  C   UNL     1     112.926 129.520 137.992  0.00  0.00    +0.000 C 
ENDBRANCH  20  24
ENDBRANCH   7  16
ENDBRANCH   1   6
BRANCH   1  33
ATOM     26  O   UNL     1     110.900 126.581 138.280  0.00  0.00    +0.000 OA
ATOM     27  O   UNL     1     108.727 126.463 138.453  0.00  0.00    +0.000 OA
ATOM     28  O   UNL     1     110.792 125.722 140.284  0.00  0.00    +0.000 OA
ATOM     29  C   UNL     1     109.760 126.093 139.368  0.00  0.00    +0.000 C 
ATOM     30  C   UNL     1     109.528 126.400 138.639  0.00  0.00    +0.000 C 
ATOM     31  C   UNL     1     110.561 126.029 139.555  0.00  0.00    +0.000 C 
ATOM     32  C   UNL     1     110.098 126.644 138.095  0.00  0.00    +0.000 C 
ATOM     33  C   UNL     1     111.131 126.273 139.010  0.00  0.00    +0.000 C 
BRANCH  32  35
ATOM     34  O   UNL     1     110.008 127.745 137.187  0.00  0.00    +0.000 OA
ATOM     35  C   UNL     1     109.867 126.951 137.364  0.00  0.00    +0.000 C 
ENDBRANCH  32  35
BRANCH  29  36
ATOM     36  O   UNL     1     109.190 125.849 139.912  0.00  0.00    +0.000 OA
BRANCH  36  41
ATOM     37  O   UNL     1     109.071 127.179 140.420  0.00  0.00    +0.000 OA
ATOM     38  O   UNL     1     108.362 125.276 141.220  0.00  0.00    +0.000 OA
ATOM     39  O   UNL     1     107.830 126.320 142.382  0.00  0.00    +0.000 OA
ATOM     40  O   UNL     1     108.126 127.937 142.236  0.00  0.00    +0.000 OA
ATOM     41  C   UNL     1     108.923 126.370 140.494  0.00  0.00    +0.000 C 
ATOM     42  C   UNL     1     108.510 126.084 141.147  0.00  0.00    +0.000 C 
ATOM     43  C   UNL     1     108.244 126.606 141.728  0.00  0.00    +0.000 C 
ATOM     44  C   UNL     1     108.392 127.414 141.655  0.00  0.00    +0.000 C 
ATOM     45  C   UNL     1     108.805 127.700 141.001  0.00  0.00    +0.000 C 
BRANCH  45  46
ATOM     46  C   UNL     1     108.953 128.509 140.928  0.00  0.00    +0.000 C 
BRANCH  46  47
ATOM     47  O   UNL     1     109.730 128.784 140.890  0.00  0.00    +0.000 OA
BRANCH  47  49
ATOM     48  O   UNL     1     109.667 129.801 139.887  0.00  0.00    +0.000 OA
ATOM     49  C   UNL     1     109.882 129.558 140.645  0.00  0.00    +0.000 C 
ATOM     50  C   UNL     1     110.249 130.088 141.160  0.00  0.00    +0.000 C 
ENDBRANCH  47  49
ENDBRANCH  46  47
ENDBRANCH  45  46
ENDBRANCH  36  41
ENDBRANCH  29  36
ENDBRANCH   1  33
TORSDOF 11
ENDMDL
MODEL 7
REMARK VINA RESULT:      -9.1      2.155      3.848
REMARK  Name = 44259489
REMARK  11 active torsions:
REMARK  status: ('A' for Active; 'I' for Inactive)
REMARK    1  A    between atoms: O_1  and  C_20
REMARK    2  A    between atoms: O_1  and  C_23
REMARK    3  A    between atoms: O_6  and  C_29
REMARK    4  A    between atoms: O_6  and  C_32
REMARK    5  A    between atoms: O_10  and  C_31
REMARK    6  A    between atoms: O_10  and  C_35
REMARK    7  A    between atoms: O_16  and  C_46
REMARK    8  A    between atoms: O_17  and  C_47
REMARK    9  A    between atoms: C_25  and  C_30
REMARK   10  A    between atoms: C_28  and  C_31
REMARK   11  A    between atoms: C_33  and  C_37
REMARK                            x       y       z     vdW  Elec       q    Type
REMARK                         _______ _______ _______ _____ _____    ______ ____
ROOT
ATOM      1  O   UNL     1     111.764 126.738 137.868  0.00  0.00    +0.000 OA
ENDROOT
BRANCH   1   6
ATOM      2  O   UNL     1     113.447 127.073 136.520  0.00  0.00    +0.000 OA
ATOM      3  O   UNL     1     112.544 125.288 137.978  0.00  0.00    +0.000 OA
ATOM      4  O   UNL     1     113.625 124.404 137.614  0.00  0.00    +0.000 OA
ATOM      5  O   UNL     1     115.658 125.345 135.741  0.00  0.00    +0.000 OA
ATOM      6  C   UNL     1     112.455 126.608 137.437  0.00  0.00    +0.000 A 
ATOM      7  C   UNL     1     112.756 127.203 136.951  0.00  0.00    +0.000 A 
ATOM      8  C   UNL     1     112.845 125.883 137.492  0.00  0.00    +0.000 A 
ATOM      9  C   UNL     1     113.536 125.753 137.060  0.00  0.00    +0.000 A 
ATOM     10  C   UNL     1     113.838 126.347 136.575  0.00  0.00    +0.000 A 
ATOM     11  C   UNL     1     113.934 124.993 137.126  0.00  0.00    +0.000 A 
ATOM     12  C   UNL     1     114.557 126.225 136.120  0.00  0.00    +0.000 A 
ATOM     13  C   UNL     1     114.654 124.851 136.679  0.00  0.00    +0.000 A 
ATOM     14  C   UNL     1     114.967 125.472 136.173  0.00  0.00    +0.000 A 
BRANCH   7  16
ATOM     15  O   UNL     1     111.196 130.103 136.732  0.00  0.00    +0.000 OA
ATOM     16  C   UNL     1     112.367 127.928 136.896  0.00  0.00    +0.000 A 
ATOM     17  C   UNL     1     112.665 128.588 137.291  0.00  0.00    +0.000 A 
ATOM     18  C   UNL     1     111.678 127.993 136.446  0.00  0.00    +0.000 A 
ATOM     19  C   UNL     1     111.288 128.718 136.391  0.00  0.00    +0.000 A 
ATOM     20  C   UNL     1     112.275 129.312 137.237  0.00  0.00    +0.000 A 
ATOM     21  C   UNL     1     111.587 129.378 136.787  0.00  0.00    +0.000 A 
BRANCH  19  22
ATOM     22  O   UNL     1     110.599 128.783 135.941  0.00  0.00    +0.000 OA
ATOM     23  C   UNL     1     110.587 128.505 135.165  0.00  0.00    +0.000 C 
ENDBRANCH  19  22
BRANCH  20  24
ATOM     24  O   UNL     1     112.573 129.973 137.632  0.00  0.00    +0.000 OA
ATOM     25  C   UNL     1     113.387 130.061 137.731  0.00  0.00    +0.000 C 
ENDBRANCH  20  24
ENDBRANCH   7  16
ENDBRANCH   1   6
BRANCH   1  33
ATOM     26  O   UNL     1     112.395 126.901 139.140  0.00  0.00    +0.000 OA
ATOM     27  O   UNL     1     111.754 126.306 141.140  0.00  0.00    +0.000 OA
ATOM     28  O   UNL     1     110.492 125.981 138.596  0.00  0.00    +0.000 OA
ATOM     29  C   UNL     1     111.123 126.143 139.868  0.00  0.00    +0.000 C 
ATOM     30  C   UNL     1     111.756 126.414 140.322  0.00  0.00    +0.000 C 
ATOM     31  C   UNL     1     111.125 126.251 139.050  0.00  0.00    +0.000 C 
ATOM     32  C   UNL     1     112.392 126.793 139.958  0.00  0.00    +0.000 C 
ATOM     33  C   UNL     1     111.761 126.630 138.686  0.00  0.00    +0.000 C 
BRANCH  32  35
ATOM     34  O   UNL     1     113.196 127.871 140.444  0.00  0.00    +0.000 OA
ATOM     35  C   UNL     1     113.026 127.064 140.412  0.00  0.00    +0.000 C 
ENDBRANCH  32  35
BRANCH  29  36
ATOM     36  O   UNL     1     110.487 125.765 140.232  0.00  0.00    +0.000 OA
BRANCH  36  41
ATOM     37  O   UNL     1     109.833 127.024 140.405  0.00  0.00    +0.000 OA
ATOM     38  O   UNL     1     109.277 125.021 141.073  0.00  0.00    +0.000 OA
ATOM     39  O   UNL     1     108.019 125.908 141.666  0.00  0.00    +0.000 OA
ATOM     40  O   UNL     1     107.970 127.539 141.419  0.00  0.00    +0.000 OA
ATOM     41  C   UNL     1     109.858 126.208 140.529  0.00  0.00    +0.000 C 
ATOM     42  C   UNL     1     109.253 125.836 140.949  0.00  0.00    +0.000 C 
ATOM     43  C   UNL     1     108.624 126.280 141.246  0.00  0.00    +0.000 C 
ATOM     44  C   UNL     1     108.599 127.095 141.122  0.00  0.00    +0.000 C 
ATOM     45  C   UNL     1     109.204 127.467 140.702  0.00  0.00    +0.000 C 
BRANCH  45  46
ATOM     46  C   UNL     1     109.180 128.283 140.579  0.00  0.00    +0.000 C 
BRANCH  46  47
ATOM     47  O   UNL     1     109.295 128.588 139.821  0.00  0.00    +0.000 OA
BRANCH  47  49
ATOM     48  O   UNL     1     108.705 129.770 139.275  0.00  0.00    +0.000 OA
ATOM     49  C   UNL     1     109.308 129.405 139.704  0.00  0.00    +0.000 C 
ATOM     50  C   UNL     1     109.925 129.856 140.015  0.00  0.00    +0.000 C 
ENDBRANCH  47  49
ENDBRANCH  46  47
ENDBRANCH  45  46
ENDBRANCH  36  41
ENDBRANCH  29  36
ENDBRANCH   1  33
TORSDOF 11
ENDMDL
MODEL 8
REMARK VINA RESULT:      -9.0      2.709      4.776
REMARK  Name = 44259489
REMARK  11 active torsions:
REMARK  status: ('A' for Active; 'I' for Inactive)
REMARK    1  A    between atoms: O_1  and  C_20
REMARK    2  A    between atoms: O_1  and  C_23
REMARK    3  A    between atoms: O_6  and  C_29
REMARK    4  A    between atoms: O_6  and  C_32
REMARK    5  A    between atoms: O_10  and  C_31
REMARK    6  A    between atoms: O_10  and  C_35
REMARK    7  A    between atoms: O_16  and  C_46
REMARK    8  A    between atoms: O_17  and  C_47
REMARK    9  A    between atoms: C_25  and  C_30
REMARK   10  A    between atoms: C_28  and  C_31
REMARK   11  A    between atoms: C_33  and  C_37
REMARK                            x       y       z     vdW  Elec       q    Type
REMARK                         _______ _______ _______ _____ _____    ______ ____
ROOT
ATOM      1  O   UNL     1     111.783 127.106 137.860  0.00  0.00    +0.000 OA
ENDROOT
BRANCH   1   6
ATOM      2  O   UNL     1     113.015 127.471 136.097  0.00  0.00    +0.000 OA
ATOM      3  O   UNL     1     112.306 128.642 138.159  0.00  0.00    +0.000 OA
ATOM      4  O   UNL     1     113.065 129.813 137.790  0.00  0.00    +0.000 OA
ATOM      5  O   UNL     1     114.569 129.798 135.287  0.00  0.00    +0.000 OA
ATOM      6  C   UNL     1     112.281 127.484 137.322  0.00  0.00    +0.000 A 
ATOM      7  C   UNL     1     112.517 127.093 136.635  0.00  0.00    +0.000 A 
ATOM      8  C   UNL     1     112.542 128.252 137.471  0.00  0.00    +0.000 A 
ATOM      9  C   UNL     1     113.040 128.630 136.933  0.00  0.00    +0.000 A 
ATOM     10  C   UNL     1     113.277 128.240 136.246  0.00  0.00    +0.000 A 
ATOM     11  C   UNL     1     113.307 129.430 137.099  0.00  0.00    +0.000 A 
ATOM     12  C   UNL     1     113.796 128.622 135.677  0.00  0.00    +0.000 A 
ATOM     13  C   UNL     1     113.825 129.829 136.543  0.00  0.00    +0.000 A 
ATOM     14  C   UNL     1     114.071 129.422 135.827  0.00  0.00    +0.000 A 
BRANCH   7  16
ATOM     15  O   UNL     1     111.471 124.021 136.037  0.00  0.00    +0.000 OA
ATOM     16  C   UNL     1     112.256 126.326 136.486  0.00  0.00    +0.000 A 
ATOM     17  C   UNL     1     112.759 125.685 136.618  0.00  0.00    +0.000 A 
ATOM     18  C   UNL     1     111.491 126.198 136.204  0.00  0.00    +0.000 A 
ATOM     19  C   UNL     1     111.229 125.429 136.055  0.00  0.00    +0.000 A 
ATOM     20  C   UNL     1     112.498 124.918 136.468  0.00  0.00    +0.000 A 
ATOM     21  C   UNL     1     111.733 124.790 136.187  0.00  0.00    +0.000 A 
BRANCH  19  22
ATOM     22  O   UNL     1     110.464 125.302 135.773  0.00  0.00    +0.000 OA
ATOM     23  C   UNL     1     110.190 125.725 135.120  0.00  0.00    +0.000 C 
ENDBRANCH  19  22
BRANCH  20  24
ATOM     24  O   UNL     1     113.001 124.277 136.600  0.00  0.00    +0.000 OA
ATOM     25  C   UNL     1     113.816 124.369 136.517  0.00  0.00    +0.000 C 
ENDBRANCH  20  24
ENDBRANCH   7  16
ENDBRANCH   1   6
BRANCH   1  33
ATOM     26  O   UNL     1     112.843 126.925 138.801  0.00  0.00    +0.000 OA
ATOM     27  O   UNL     1     112.798 126.572 140.955  0.00  0.00    +0.000 OA
ATOM     28  O   UNL     1     110.678 126.935 139.074  0.00  0.00    +0.000 OA
ATOM     29  C   UNL     1     111.738 126.754 140.014  0.00  0.00    +0.000 C 
ATOM     30  C   UNL     1     112.544 126.706 140.181  0.00  0.00    +0.000 C 
ATOM     31  C   UNL     1     111.484 126.887 139.241  0.00  0.00    +0.000 C 
ATOM     32  C   UNL     1     113.097 126.791 139.575  0.00  0.00    +0.000 C 
ATOM     33  C   UNL     1     112.036 126.973 138.634  0.00  0.00    +0.000 C 
BRANCH  32  35
ATOM     34  O   UNL     1     114.369 126.174 139.368  0.00  0.00    +0.000 OA
ATOM     35  C   UNL     1     113.904 126.743 139.742  0.00  0.00    +0.000 C 
ENDBRANCH  32  35
BRANCH  29  36
ATOM     36  O   UNL     1     111.185 126.668 140.621  0.00  0.00    +0.000 OA
BRANCH  36  41
ATOM     37  O   UNL     1     111.274 128.064 140.916  0.00  0.00    +0.000 OA
ATOM     38  O   UNL     1     109.880 126.540 141.622  0.00  0.00    +0.000 OA
ATOM     39  O   UNL     1     109.316 127.871 142.417  0.00  0.00    +0.000 OA
ATOM     40  O   UNL     1     110.057 129.331 142.212  0.00  0.00    +0.000 OA
ATOM     41  C   UNL     1     110.903 127.333 141.019  0.00  0.00    +0.000 C 
ATOM     42  C   UNL     1     110.250 127.269 141.519  0.00  0.00    +0.000 C 
ATOM     43  C   UNL     1     109.969 127.935 141.917  0.00  0.00    +0.000 C 
ATOM     44  C   UNL     1     110.339 128.664 141.814  0.00  0.00    +0.000 C 
ATOM     45  C   UNL     1     110.992 128.729 141.314  0.00  0.00    +0.000 C 
BRANCH  45  46
ATOM     46  C   UNL     1     111.363 129.459 141.211  0.00  0.00    +0.000 C 
BRANCH  46  47
ATOM     47  O   UNL     1     112.132 129.573 141.485  0.00  0.00    +0.000 OA
BRANCH  47  49
ATOM     48  O   UNL     1     112.193 130.863 140.872  0.00  0.00    +0.000 OA
ATOM     49  C   UNL     1     112.573 130.219 141.222  0.00  0.00    +0.000 C 
ATOM     50  C   UNL     1     113.393 130.222 141.309  0.00  0.00    +0.000 C 
ENDBRANCH  47  49
ENDBRANCH  46  47
ENDBRANCH  45  46
ENDBRANCH  36  41
ENDBRANCH  29  36
ENDBRANCH   1  33
TORSDOF 11
ENDMDL
MODEL 9
REMARK VINA RESULT:      -8.8      1.490      5.011
REMARK  Name = 44259489
REMARK  11 active torsions:
REMARK  status: ('A' for Active; 'I' for Inactive)
REMARK    1  A    between atoms: O_1  and  C_20
REMARK    2  A    between atoms: O_1  and  C_23
REMARK    3  A    between atoms: O_6  and  C_29
REMARK    4  A    between atoms: O_6  and  C_32
REMARK    5  A    between atoms: O_10  and  C_31
REMARK    6  A    between atoms: O_10  and  C_35
REMARK    7  A    between atoms: O_16  and  C_46
REMARK    8  A    between atoms: O_17  and  C_47
REMARK    9  A    between atoms: C_25  and  C_30
REMARK   10  A    between atoms: C_28  and  C_31
REMARK   11  A    between atoms: C_33  and  C_37
REMARK                            x       y       z     vdW  Elec       q    Type
REMARK                         _______ _______ _______ _____ _____    ______ ____
ROOT
ATOM      1  O   UNL     1     111.646 129.165 136.412  0.00  0.00    +0.000 OA
ENDROOT
BRANCH   1   6
ATOM      2  O   UNL     1     110.727 131.134 136.611  0.00  0.00    +0.000 OA
ATOM      3  O   UNL     1     110.428 129.053 135.305  0.00  0.00    +0.000 OA
ATOM      4  O   UNL     1     109.295 129.616 134.612  0.00  0.00    +0.000 OA
ATOM      5  O   UNL     1     108.449 132.337 135.253  0.00  0.00    +0.000 OA
ATOM      6  C   UNL     1     111.137 129.803 136.294  0.00  0.00    +0.000 A 
ATOM      7  C   UNL     1     111.237 130.497 136.729  0.00  0.00    +0.000 A 
ATOM      8  C   UNL     1     110.528 129.747 135.741  0.00  0.00    +0.000 A 
ATOM      9  C   UNL     1     110.018 130.385 135.623  0.00  0.00    +0.000 A 
ATOM     10  C   UNL     1     110.117 131.079 136.057  0.00  0.00    +0.000 A 
ATOM     11  C   UNL     1     109.387 130.314 135.043  0.00  0.00    +0.000 A 
ATOM     12  C   UNL     1     109.594 131.750 135.944  0.00  0.00    +0.000 A 
ATOM     13  C   UNL     1     108.853 130.975 134.915  0.00  0.00    +0.000 A 
ATOM     14  C   UNL     1     108.957 131.697 135.369  0.00  0.00    +0.000 A 
BRANCH   7  16
ATOM     15  O   UNL     1     113.674 130.721 138.943  0.00  0.00    +0.000 OA
ATOM     16  C   UNL     1     111.846 130.553 137.282  0.00  0.00    +0.000 A 
ATOM     17  C   UNL     1     112.623 130.669 137.031  0.00  0.00    +0.000 A 
ATOM     18  C   UNL     1     111.678 130.493 138.088  0.00  0.00    +0.000 A 
ATOM     19  C   UNL     1     112.288 130.549 138.642  0.00  0.00    +0.000 A 
ATOM     20  C   UNL     1     113.232 130.725 137.584  0.00  0.00    +0.000 A 
ATOM     21  C   UNL     1     113.064 130.665 138.389  0.00  0.00    +0.000 A 
BRANCH  19  22
ATOM     22  O   UNL     1     112.120 130.489 139.447  0.00  0.00    +0.000 OA
ATOM     23  C   UNL     1     111.348 130.604 139.717  0.00  0.00    +0.000 C 
ENDBRANCH  19  22
BRANCH  20  24
ATOM     24  O   UNL     1     114.009 130.841 137.332  0.00  0.00    +0.000 OA
ATOM     25  C   UNL     1     114.158 131.200 136.604  0.00  0.00    +0.000 C 
ENDBRANCH  20  24
ENDBRANCH   7  16
ENDBRANCH   1   6
BRANCH   1  33
ATOM     26  O   UNL     1     110.663 128.396 137.106  0.00  0.00    +0.000 OA
ATOM     27  O   UNL     1     110.438 126.237 137.337  0.00  0.00    +0.000 OA
ATOM     28  O   UNL     1     112.406 127.776 135.949  0.00  0.00    +0.000 OA
ATOM     29  C   UNL     1     111.422 127.006 136.643  0.00  0.00    +0.000 C 
ATOM     30  C   UNL     1     110.741 126.969 137.105  0.00  0.00    +0.000 C 
ATOM     31  C   UNL     1     111.725 127.738 136.411  0.00  0.00    +0.000 C 
ATOM     32  C   UNL     1     110.361 127.663 137.337  0.00  0.00    +0.000 C 
ATOM     33  C   UNL     1     111.345 128.433 136.643  0.00  0.00    +0.000 C 
BRANCH  32  35
ATOM     34  O   UNL     1     109.700 127.873 138.587  0.00  0.00    +0.000 OA
ATOM     35  C   UNL     1     109.679 127.626 137.800  0.00  0.00    +0.000 C 
ENDBRANCH  32  35
BRANCH  29  36
ATOM     36  O   UNL     1     111.802 126.311 136.411  0.00  0.00    +0.000 OA
BRANCH  36  41
ATOM     37  O   UNL     1     112.664 126.400 137.547  0.00  0.00    +0.000 OA
ATOM     38  O   UNL     1     112.643 124.997 135.876  0.00  0.00    +0.000 OA
ATOM     39  O   UNL     1     113.926 124.428 136.745  0.00  0.00    +0.000 OA
ATOM     40  O   UNL     1     114.367 125.174 138.149  0.00  0.00    +0.000 OA
ATOM     41  C   UNL     1     112.443 126.027 136.845  0.00  0.00    +0.000 C 
ATOM     42  C   UNL     1     112.864 125.369 136.577  0.00  0.00    +0.000 C 
ATOM     43  C   UNL     1     113.505 125.086 137.012  0.00  0.00    +0.000 C 
ATOM     44  C   UNL     1     113.726 125.458 137.714  0.00  0.00    +0.000 C 
ATOM     45  C   UNL     1     113.305 126.116 137.981  0.00  0.00    +0.000 C 
BRANCH  45  46
ATOM     46  C   UNL     1     113.525 126.489 138.684  0.00  0.00    +0.000 C 
BRANCH  46  47
ATOM     47  O   UNL     1     112.978 126.573 139.295  0.00  0.00    +0.000 OA
BRANCH  47  49
ATOM     48  O   UNL     1     113.796 127.577 139.900  0.00  0.00    +0.000 OA
ATOM     49  C   UNL     1     113.141 127.077 139.929  0.00  0.00    +0.000 C 
ATOM     50  C   UNL     1     112.650 127.078 140.591  0.00  0.00    +0.000 C 
ENDBRANCH  47  49
ENDBRANCH  46  47
ENDBRANCH  45  46
ENDBRANCH  36  41
ENDBRANCH  29  36
ENDBRANCH   1  33
TORSDOF 11
ENDMDL
