MODEL 1
REMARK VINA RESULT:      -9.2      0.000      0.000
REMARK  Name = 
REMARK  6 active torsions:
REMARK  status: ('A' for Active; 'I' for Inactive)
REMARK    1  A    between atoms: C_9  and  C_11
REMARK    2  A    between atoms: C_14  and  O_30
REMARK    3  A    between atoms: C_15  and  O_20
REMARK    4  A    between atoms: C_16  and  O_32
REMARK    5  A    between atoms: O_20  and  C_22
REMARK    6  A    between atoms: C_24  and  C_34
REMARK                            x       y       z     vdW  Elec       q    Type
REMARK                         _______ _______ _______ _____ _____    ______ ____
ROOT
ATOM      1  C   UNL     1     112.610 128.319 136.960  0.00  0.00    +0.000 A 
ATOM      2  C   UNL     1     112.487 128.906 136.148  0.00  0.00    +0.000 A 
ATOM      3  C   UNL     1     112.201 129.867 136.259  0.00  0.00    +0.000 A 
ATOM      4  C   UNL     1     112.038 130.241 137.183  0.00  0.00    +0.000 A 
ATOM      5  C   UNL     1     112.161 129.654 137.994  0.00  0.00    +0.000 A 
ATOM      6  C   UNL     1     112.447 128.694 137.883  0.00  0.00    +0.000 A 
ENDROOT
BRANCH   1  15
ATOM      7  C   UNL     1     113.101 123.841 136.792  0.00  0.00    +0.000 A 
ATOM      8  C   UNL     1     113.726 124.566 136.565  0.00  0.00    +0.000 A 
ATOM      9  C   UNL     1     113.447 125.504 136.664  0.00  0.00    +0.000 A 
ATOM     10  C   UNL     1     112.543 125.717 136.989  0.00  0.00    +0.000 A 
ATOM     11  C   UNL     1     111.918 124.992 137.216  0.00  0.00    +0.000 A 
ATOM     12  C   UNL     1     112.197 124.054 137.118  0.00  0.00    +0.000 A 
ATOM     13  C   UNL     1     114.072 126.229 136.437  0.00  0.00    +0.000 C 
ATOM     14  C   UNL     1     113.793 127.168 136.536  0.00  0.00    +0.000 C 
ATOM     15  C   UNL     1     112.889 127.381 136.861  0.00  0.00    +0.000 C 
ATOM     16  O   UNL     1     112.264 126.656 137.088  0.00  0.00    +0.000 OA
ATOM     17  O   UNL     1     114.975 126.016 136.112  0.00  0.00    +0.000 OA
ATOM     18  O   UNL     1     111.572 123.328 137.344  0.00  0.00    +0.000 OA
ATOM     19  O   UNL     1     111.014 125.205 137.542  0.00  0.00    +0.000 OA
ENDBRANCH   1  15
BRANCH   3  20
ATOM     20  O   UNL     1     111.935 130.686 136.735  0.00  0.00    +0.000 OA
ATOM     21  C   UNL     1     112.953 131.965 136.793  0.00  0.00    +0.000 C 
ENDBRANCH   3  20
BRANCH   5  22
ATOM     22  O   UNL     1     112.317 128.981 138.694  0.00  0.00    +0.000 OA
ATOM     23  C   UNL     1     111.175 128.705 139.833  0.00  0.00    +0.000 C 
ENDBRANCH   5  22
BRANCH   4  24
ATOM     24  O   UNL     1     111.759 131.179 137.291  0.00  0.00    +0.000 OA
BRANCH  24  26
ATOM     25  C   UNL     1     110.525 132.024 137.934  0.00  0.00    +0.000 C 
ATOM     26  C   UNL     1     110.998 131.352 137.435  0.00  0.00    +0.000 C 
ATOM     27  O   UNL     1     110.075 131.561 137.610  0.00  0.00    +0.000 OA
ATOM     28  C   UNL     1     109.144 131.359 137.487  0.00  0.00    +0.000 C 
ATOM     29  C   UNL     1     108.669 132.032 137.986  0.00  0.00    +0.000 C 
ATOM     30  C   UNL     1     109.592 131.822 137.811  0.00  0.00    +0.000 C 
ATOM     31  O   UNL     1     109.544 132.469 138.281  0.00  0.00    +0.000 OA
ATOM     32  O   UNL     1     110.770 132.530 138.294  0.00  0.00    +0.000 OA
ATOM     33  O   UNL     1     107.705 131.982 137.975  0.00  0.00    +0.000 OA
BRANCH  28  34
ATOM     34  C   UNL     1     108.757 130.621 136.964  0.00  0.00    +0.000 C 
ATOM     35  O   UNL     1     108.640 129.735 137.373  0.00  0.00    +0.000 OA
ENDBRANCH  28  34
ENDBRANCH  24  26
ENDBRANCH   4  24
TORSDOF 6
ENDMDL
MODEL 2
REMARK VINA RESULT:      -9.0      1.577      2.553
REMARK  Name = 
REMARK  6 active torsions:
REMARK  status: ('A' for Active; 'I' for Inactive)
REMARK    1  A    between atoms: C_9  and  C_11
REMARK    2  A    between atoms: C_14  and  O_30
REMARK    3  A    between atoms: C_15  and  O_20
REMARK    4  A    between atoms: C_16  and  O_32
REMARK    5  A    between atoms: O_20  and  C_22
REMARK    6  A    between atoms: C_24  and  C_34
REMARK                            x       y       z     vdW  Elec       q    Type
REMARK                         _______ _______ _______ _____ _____    ______ ____
ROOT
ATOM      1  C   UNL     1     111.445 128.234 138.591  0.00  0.00    +0.000 A 
ATOM      2  C   UNL     1     110.512 127.945 138.845  0.00  0.00    +0.000 A 
ATOM      3  C   UNL     1     109.770 128.627 138.900  0.00  0.00    +0.000 A 
ATOM      4  C   UNL     1     109.963 129.598 138.701  0.00  0.00    +0.000 A 
ATOM      5  C   UNL     1     110.895 129.886 138.447  0.00  0.00    +0.000 A 
ATOM      6  C   UNL     1     111.636 129.204 138.392  0.00  0.00    +0.000 A 
ENDROOT
BRANCH   1  15
ATOM      7  C   UNL     1     114.464 125.048 137.559  0.00  0.00    +0.000 A 
ATOM      8  C   UNL     1     114.362 125.602 138.366  0.00  0.00    +0.000 A 
ATOM      9  C   UNL     1     113.633 126.260 138.422  0.00  0.00    +0.000 A 
ATOM     10  C   UNL     1     113.005 126.364 137.672  0.00  0.00    +0.000 A 
ATOM     11  C   UNL     1     113.106 125.810 136.865  0.00  0.00    +0.000 A 
ATOM     12  C   UNL     1     113.835 125.152 136.809  0.00  0.00    +0.000 A 
ATOM     13  C   UNL     1     113.532 126.814 139.228  0.00  0.00    +0.000 C 
ATOM     14  C   UNL     1     112.803 127.472 139.285  0.00  0.00    +0.000 C 
ATOM     15  C   UNL     1     112.174 127.576 138.535  0.00  0.00    +0.000 C 
ATOM     16  O   UNL     1     112.276 127.022 137.728  0.00  0.00    +0.000 OA
ATOM     17  O   UNL     1     114.159 126.711 139.978  0.00  0.00    +0.000 OA
ATOM     18  O   UNL     1     113.937 124.597 136.002  0.00  0.00    +0.000 OA
ATOM     19  O   UNL     1     112.478 125.913 136.115  0.00  0.00    +0.000 OA
ENDBRANCH   1  15
BRANCH   3  20
ATOM     20  O   UNL     1     109.347 129.514 138.852  0.00  0.00    +0.000 OA
ATOM     21  C   UNL     1     108.787 130.227 140.213  0.00  0.00    +0.000 C 
ENDBRANCH   3  20
BRANCH   5  22
ATOM     22  O   UNL     1     111.840 130.032 138.213  0.00  0.00    +0.000 OA
ATOM     23  C   UNL     1     112.233 131.030 136.979  0.00  0.00    +0.000 C 
ENDBRANCH   5  22
BRANCH   4  24
ATOM     24  O   UNL     1     109.239 130.264 138.755  0.00  0.00    +0.000 OA
BRANCH  24  26
ATOM     25  C   UNL     1     108.443 131.350 137.841  0.00  0.00    +0.000 C 
ATOM     26  C   UNL     1     108.913 130.549 138.090  0.00  0.00    +0.000 C 
ATOM     27  O   UNL     1     108.518 130.896 137.285  0.00  0.00    +0.000 OA
ATOM     28  C   UNL     1     108.315 130.789 136.351  0.00  0.00    +0.000 C 
ATOM     29  C   UNL     1     107.844 131.591 136.100  0.00  0.00    +0.000 C 
ATOM     30  C   UNL     1     108.239 131.244 136.906  0.00  0.00    +0.000 C 
ATOM     31  O   UNL     1     107.917 131.963 137.048  0.00  0.00    +0.000 OA
ATOM     32  O   UNL     1     108.282 131.877 138.217  0.00  0.00    +0.000 OA
ATOM     33  O   UNL     1     107.559 131.656 135.180  0.00  0.00    +0.000 OA
BRANCH  28  34
ATOM     34  C   UNL     1     108.541 130.025 135.774  0.00  0.00    +0.000 C 
ATOM     35  O   UNL     1     107.986 129.213 135.793  0.00  0.00    +0.000 OA
ENDBRANCH  28  34
ENDBRANCH  24  26
ENDBRANCH   4  24
TORSDOF 6
ENDMDL
MODEL 3
REMARK VINA RESULT:      -8.8      1.399      6.335
REMARK  Name = 
REMARK  6 active torsions:
REMARK  status: ('A' for Active; 'I' for Inactive)
REMARK    1  A    between atoms: C_9  and  C_11
REMARK    2  A    between atoms: C_14  and  O_30
REMARK    3  A    between atoms: C_15  and  O_20
REMARK    4  A    between atoms: C_16  and  O_32
REMARK    5  A    between atoms: O_20  and  C_22
REMARK    6  A    between atoms: C_24  and  C_34
REMARK                            x       y       z     vdW  Elec       q    Type
REMARK                         _______ _______ _______ _____ _____    ______ ____
ROOT
ATOM      1  C   UNL     1     111.506 129.242 137.484  0.00  0.00    +0.000 A 
ATOM      2  C   UNL     1     111.384 128.836 138.399  0.00  0.00    +0.000 A 
ATOM      3  C   UNL     1     111.967 128.066 138.691  0.00  0.00    +0.000 A 
ATOM      4  C   UNL     1     112.672 127.702 138.066  0.00  0.00    +0.000 A 
ATOM      5  C   UNL     1     112.792 128.108 137.150  0.00  0.00    +0.000 A 
ATOM      6  C   UNL     1     112.210 128.878 136.859  0.00  0.00    +0.000 A 
ENDROOT
BRANCH   1  15
ATOM      7  C   UNL     1     108.325 132.085 136.025  0.00  0.00    +0.000 A 
ATOM      8  C   UNL     1     109.251 132.248 136.313  0.00  0.00    +0.000 A 
ATOM      9  C   UNL     1     109.815 131.497 136.605  0.00  0.00    +0.000 A 
ATOM     10  C   UNL     1     109.452 130.582 136.610  0.00  0.00    +0.000 A 
ATOM     11  C   UNL     1     108.526 130.419 136.322  0.00  0.00    +0.000 A 
ATOM     12  C   UNL     1     107.962 131.170 136.029  0.00  0.00    +0.000 A 
ATOM     13  C   UNL     1     110.741 131.660 136.894  0.00  0.00    +0.000 C 
ATOM     14  C   UNL     1     111.305 130.909 137.186  0.00  0.00    +0.000 C 
ATOM     15  C   UNL     1     110.942 129.994 137.191  0.00  0.00    +0.000 C 
ATOM     16  O   UNL     1     110.016 129.831 136.903  0.00  0.00    +0.000 OA
ATOM     17  O   UNL     1     111.104 132.574 136.889  0.00  0.00    +0.000 OA
ATOM     18  O   UNL     1     107.036 131.007 135.741  0.00  0.00    +0.000 OA
ATOM     19  O   UNL     1     108.163 129.504 136.326  0.00  0.00    +0.000 OA
ENDBRANCH   1  15
BRANCH   3  20
ATOM     20  O   UNL     1     112.670 127.382 138.620  0.00  0.00    +0.000 OA
ATOM     21  C   UNL     1     113.761 127.202 139.825  0.00  0.00    +0.000 C 
ENDBRANCH   3  20
BRANCH   5  22
ATOM     22  O   UNL     1     112.806 128.592 136.294  0.00  0.00    +0.000 OA
ATOM     23  C   UNL     1     114.233 128.963 135.585  0.00  0.00    +0.000 C 
ENDBRANCH   5  22
BRANCH   4  24
ATOM     24  O   UNL     1     113.241 126.950 138.350  0.00  0.00    +0.000 OA
BRANCH  24  26
ATOM     25  C   UNL     1     113.715 125.513 137.749  0.00  0.00    +0.000 C 
ATOM     26  C   UNL     1     113.140 126.233 138.026  0.00  0.00    +0.000 C 
ATOM     27  O   UNL     1     113.018 125.363 137.633  0.00  0.00    +0.000 OA
ATOM     28  C   UNL     1     112.429 124.685 137.292  0.00  0.00    +0.000 C 
ATOM     29  C   UNL     1     113.004 123.964 137.014  0.00  0.00    +0.000 C 
ATOM     30  C   UNL     1     113.125 124.834 137.407  0.00  0.00    +0.000 C 
ATOM     31  O   UNL     1     113.836 124.481 137.302  0.00  0.00    +0.000 OA
ATOM     32  O   UNL     1     114.380 125.473 137.779  0.00  0.00    +0.000 OA
ATOM     33  O   UNL     1     112.574 123.186 136.640  0.00  0.00    +0.000 OA
BRANCH  28  34
ATOM     34  C   UNL     1     111.447 124.719 137.237  0.00  0.00    +0.000 C 
ATOM     35  O   UNL     1     111.011 125.093 136.438  0.00  0.00    +0.000 OA
ENDBRANCH  28  34
ENDBRANCH  24  26
ENDBRANCH   4  24
TORSDOF 6
ENDMDL
MODEL 4
REMARK VINA RESULT:      -8.8      8.328     10.381
REMARK  Name = 
REMARK  6 active torsions:
REMARK  status: ('A' for Active; 'I' for Inactive)
REMARK    1  A    between atoms: C_9  and  C_11
REMARK    2  A    between atoms: C_14  and  O_30
REMARK    3  A    between atoms: C_15  and  O_20
REMARK    4  A    between atoms: C_16  and  O_32
REMARK    5  A    between atoms: O_20  and  C_22
REMARK    6  A    between atoms: C_24  and  C_34
REMARK                            x       y       z     vdW  Elec       q    Type
REMARK                         _______ _______ _______ _____ _____    ______ ____
ROOT
ATOM      1  C   UNL     1     106.068 126.361 145.330  0.00  0.00    +0.000 A 
ATOM      2  C   UNL     1     106.371 127.320 145.258  0.00  0.00    +0.000 A 
ATOM      3  C   UNL     1     106.415 127.770 144.356  0.00  0.00    +0.000 A 
ATOM      4  C   UNL     1     106.155 127.258 143.525  0.00  0.00    +0.000 A 
ATOM      5  C   UNL     1     105.852 126.299 143.597  0.00  0.00    +0.000 A 
ATOM      6  C   UNL     1     105.808 125.850 144.499  0.00  0.00    +0.000 A 
ENDROOT
BRANCH   1  15
ATOM      7  C   UNL     1     106.711 124.345 149.311  0.00  0.00    +0.000 A 
ATOM      8  C   UNL     1     105.883 124.576 148.832  0.00  0.00    +0.000 A 
ATOM      9  C   UNL     1     105.929 125.022 147.957  0.00  0.00    +0.000 A 
ATOM     10  C   UNL     1     106.803 125.237 147.559  0.00  0.00    +0.000 A 
ATOM     11  C   UNL     1     107.631 125.006 148.038  0.00  0.00    +0.000 A 
ATOM     12  C   UNL     1     107.585 124.560 148.913  0.00  0.00    +0.000 A 
ATOM     13  C   UNL     1     105.101 125.253 147.478  0.00  0.00    +0.000 C 
ATOM     14  C   UNL     1     105.147 125.699 146.603  0.00  0.00    +0.000 C 
ATOM     15  C   UNL     1     106.021 125.914 146.205  0.00  0.00    +0.000 C 
ATOM     16  O   UNL     1     106.850 125.683 146.684  0.00  0.00    +0.000 OA
ATOM     17  O   UNL     1     104.228 125.038 147.875  0.00  0.00    +0.000 OA
ATOM     18  O   UNL     1     108.413 124.329 149.392  0.00  0.00    +0.000 OA
ATOM     19  O   UNL     1     108.506 125.221 147.640  0.00  0.00    +0.000 OA
ENDBRANCH   1  15
BRANCH   3  20
ATOM     20  O   UNL     1     106.333 127.855 143.379  0.00  0.00    +0.000 OA
ATOM     21  C   UNL     1     107.667 128.097 142.465  0.00  0.00    +0.000 C 
ENDBRANCH   3  20
BRANCH   5  22
ATOM     22  O   UNL     1     105.577 125.378 143.805  0.00  0.00    +0.000 OA
ATOM     23  C   UNL     1     105.579 124.237 142.633  0.00  0.00    +0.000 C 
ENDBRANCH   5  22
BRANCH   4  24
ATOM     24  O   UNL     1     106.199 127.697 142.644  0.00  0.00    +0.000 OA
BRANCH  24  26
ATOM     25  C   UNL     1     105.041 127.944 141.527  0.00  0.00    +0.000 C 
ATOM     26  C   UNL     1     105.550 128.035 142.338  0.00  0.00    +0.000 C 
ATOM     27  O   UNL     1     104.762 128.444 141.966  0.00  0.00    +0.000 OA
ATOM     28  C   UNL     1     104.044 129.079 142.046  0.00  0.00    +0.000 C 
ATOM     29  C   UNL     1     103.534 128.988 141.234  0.00  0.00    +0.000 C 
ATOM     30  C   UNL     1     104.322 128.579 141.606  0.00  0.00    +0.000 C 
ATOM     31  O   UNL     1     104.162 128.261 140.888  0.00  0.00    +0.000 OA
ATOM     32  O   UNL     1     105.146 127.536 141.009  0.00  0.00    +0.000 OA
ATOM     33  O   UNL     1     102.762 129.560 141.141  0.00  0.00    +0.000 OA
BRANCH  28  34
ATOM     34  C   UNL     1     103.868 129.690 142.796  0.00  0.00    +0.000 C 
ATOM     35  O   UNL     1     104.356 130.541 142.863  0.00  0.00    +0.000 OA
ENDBRANCH  28  34
ENDBRANCH  24  26
ENDBRANCH   4  24
TORSDOF 6
ENDMDL
MODEL 5
REMARK VINA RESULT:      -8.7      1.490      2.513
REMARK  Name = 
REMARK  6 active torsions:
REMARK  status: ('A' for Active; 'I' for Inactive)
REMARK    1  A    between atoms: C_9  and  C_11
REMARK    2  A    between atoms: C_14  and  O_30
REMARK    3  A    between atoms: C_15  and  O_20
REMARK    4  A    between atoms: C_16  and  O_32
REMARK    5  A    between atoms: O_20  and  C_22
REMARK    6  A    between atoms: C_24  and  C_34
REMARK                            x       y       z     vdW  Elec       q    Type
REMARK                         _______ _______ _______ _____ _____    ______ ____
ROOT
ATOM      1  C   UNL     1     111.202 127.909 138.289  0.00  0.00    +0.000 A 
ATOM      2  C   UNL     1     110.225 128.073 138.093  0.00  0.00    +0.000 A 
ATOM      3  C   UNL     1     109.796 128.945 138.362  0.00  0.00    +0.000 A 
ATOM      4  C   UNL     1     110.344 129.655 138.827  0.00  0.00    +0.000 A 
ATOM      5  C   UNL     1     111.320 129.491 139.023  0.00  0.00    +0.000 A 
ATOM      6  C   UNL     1     111.749 128.619 138.754  0.00  0.00    +0.000 A 
ENDROOT
BRANCH   1  15
ATOM      7  C   UNL     1     113.748 124.527 136.738  0.00  0.00    +0.000 A 
ATOM      8  C   UNL     1     112.910 124.518 137.255  0.00  0.00    +0.000 A 
ATOM      9  C   UNL     1     112.483 125.366 137.513  0.00  0.00    +0.000 A 
ATOM     10  C   UNL     1     112.893 126.222 137.255  0.00  0.00    +0.000 A 
ATOM     11  C   UNL     1     113.731 126.231 136.739  0.00  0.00    +0.000 A 
ATOM     12  C   UNL     1     114.158 125.383 136.481  0.00  0.00    +0.000 A 
ATOM     13  C   UNL     1     111.646 125.357 138.030  0.00  0.00    +0.000 C 
ATOM     14  C   UNL     1     111.219 126.205 138.288  0.00  0.00    +0.000 C 
ATOM     15  C   UNL     1     111.629 127.062 138.030  0.00  0.00    +0.000 C 
ATOM     16  O   UNL     1     112.466 127.070 137.514  0.00  0.00    +0.000 OA
ATOM     17  O   UNL     1     111.236 124.502 138.287  0.00  0.00    +0.000 OA
ATOM     18  O   UNL     1     114.995 125.392 135.964  0.00  0.00    +0.000 OA
ATOM     19  O   UNL     1     114.141 127.087 136.481  0.00  0.00    +0.000 OA
ENDBRANCH   1  15
BRANCH   3  20
ATOM     20  O   UNL     1     109.740 129.849 138.747  0.00  0.00    +0.000 OA
ATOM     21  C   UNL     1     108.815 130.117 140.070  0.00  0.00    +0.000 C 
ENDBRANCH   3  20
BRANCH   5  22
ATOM     22  O   UNL     1     112.253 129.206 139.152  0.00  0.00    +0.000 OA
ATOM     23  C   UNL     1     113.479 130.219 138.772  0.00  0.00    +0.000 C 
ENDBRANCH   5  22
BRANCH   4  24
ATOM     24  O   UNL     1     109.925 130.507 139.090  0.00  0.00    +0.000 OA
BRANCH  24  26
ATOM     25  C   UNL     1     110.111 132.100 138.812  0.00  0.00    +0.000 C 
ATOM     26  C   UNL     1     110.035 131.155 138.647  0.00  0.00    +0.000 C 
ATOM     27  O   UNL     1     110.169 131.942 138.110  0.00  0.00    +0.000 OA
ATOM     28  C   UNL     1     110.300 132.341 137.244  0.00  0.00    +0.000 C 
ATOM     29  C   UNL     1     110.375 133.286 137.409  0.00  0.00    +0.000 C 
ATOM     30  C   UNL     1     110.241 132.499 137.946  0.00  0.00    +0.000 C 
ATOM     31  O   UNL     1     110.256 133.149 138.414  0.00  0.00    +0.000 OA
ATOM     32  O   UNL     1     110.082 132.427 139.392  0.00  0.00    +0.000 OA
ATOM     33  O   UNL     1     110.512 133.851 136.638  0.00  0.00    +0.000 OA
BRANCH  28  34
ATOM     34  C   UNL     1     110.346 131.881 136.376  0.00  0.00    +0.000 C 
ATOM     35  O   UNL     1     109.520 131.653 135.894  0.00  0.00    +0.000 OA
ENDBRANCH  28  34
ENDBRANCH  24  26
ENDBRANCH   4  24
TORSDOF 6
ENDMDL
MODEL 6
REMARK VINA RESULT:      -8.7      2.005      2.769
REMARK  Name = 
REMARK  6 active torsions:
REMARK  status: ('A' for Active; 'I' for Inactive)
REMARK    1  A    between atoms: C_9  and  C_11
REMARK    2  A    between atoms: C_14  and  O_30
REMARK    3  A    between atoms: C_15  and  O_20
REMARK    4  A    between atoms: C_16  and  O_32
REMARK    5  A    between atoms: O_20  and  C_22
REMARK    6  A    between atoms: C_24  and  C_34
REMARK                            x       y       z     vdW  Elec       q    Type
REMARK                         _______ _______ _______ _____ _____    ______ ____
ROOT
ATOM      1  C   UNL     1     112.517 127.529 139.213  0.00  0.00    +0.000 A 
ATOM      2  C   UNL     1     112.448 127.477 140.218  0.00  0.00    +0.000 A 
ATOM      3  C   UNL     1     112.140 128.280 140.745  0.00  0.00    +0.000 A 
ATOM      4  C   UNL     1     111.902 129.137 140.266  0.00  0.00    +0.000 A 
ATOM      5  C   UNL     1     111.972 129.189 139.261  0.00  0.00    +0.000 A 
ATOM      6  C   UNL     1     112.280 128.385 138.734  0.00  0.00    +0.000 A 
ENDROOT
BRANCH   1  15
ATOM      7  C   UNL     1     113.066 123.908 136.584  0.00  0.00    +0.000 A 
ATOM      8  C   UNL     1     113.713 124.415 137.124  0.00  0.00    +0.000 A 
ATOM      9  C   UNL     1     113.414 125.194 137.646  0.00  0.00    +0.000 A 
ATOM     10  C   UNL     1     112.468 125.465 137.628  0.00  0.00    +0.000 A 
ATOM     11  C   UNL     1     111.822 124.958 137.087  0.00  0.00    +0.000 A 
ATOM     12  C   UNL     1     112.120 124.179 136.565  0.00  0.00    +0.000 A 
ATOM     13  C   UNL     1     114.061 125.701 138.187  0.00  0.00    +0.000 C 
ATOM     14  C   UNL     1     113.762 126.479 138.709  0.00  0.00    +0.000 C 
ATOM     15  C   UNL     1     112.816 126.751 138.691  0.00  0.00    +0.000 C 
ATOM     16  O   UNL     1     112.169 126.244 138.150  0.00  0.00    +0.000 OA
ATOM     17  O   UNL     1     115.005 125.430 138.206  0.00  0.00    +0.000 OA
ATOM     18  O   UNL     1     111.474 123.672 136.024  0.00  0.00    +0.000 OA
ATOM     19  O   UNL     1     110.876 125.229 137.068  0.00  0.00    +0.000 OA
ENDBRANCH   1  15
BRANCH   3  20
ATOM     20  O   UNL     1     111.827 129.200 140.898  0.00  0.00    +0.000 OA
ATOM     21  C   UNL     1     112.725 130.231 141.796  0.00  0.00    +0.000 C 
ENDBRANCH   3  20
BRANCH   5  22
ATOM     22  O   UNL     1     112.084 129.106 138.287  0.00  0.00    +0.000 OA
ATOM     23  C   UNL     1     110.856 129.511 137.285  0.00  0.00    +0.000 C 
ENDBRANCH   5  22
BRANCH   4  24
ATOM     24  O   UNL     1     111.602 129.921 140.780  0.00  0.00    +0.000 OA
BRANCH  24  26
ATOM     25  C   UNL     1     110.329 130.935 140.766  0.00  0.00    +0.000 C 
ATOM     26  C   UNL     1     110.834 130.117 140.791  0.00  0.00    +0.000 C 
ATOM     27  O   UNL     1     109.902 130.354 140.805  0.00  0.00    +0.000 OA
ATOM     28  C   UNL     1     108.979 130.084 140.843  0.00  0.00    +0.000 C 
ATOM     29  C   UNL     1     108.474 130.903 140.817  0.00  0.00    +0.000 C 
ATOM     30  C   UNL     1     109.406 130.665 140.804  0.00  0.00    +0.000 C 
ATOM     31  O   UNL     1     109.327 131.461 140.767  0.00  0.00    +0.000 OA
ATOM     32  O   UNL     1     110.550 131.563 140.729  0.00  0.00    +0.000 OA
ATOM     33  O   UNL     1     107.512 130.820 140.847  0.00  0.00    +0.000 OA
BRANCH  28  34
ATOM     34  C   UNL     1     108.628 129.167 140.897  0.00  0.00    +0.000 C 
ATOM     35  O   UNL     1     108.566 128.615 140.086  0.00  0.00    +0.000 OA
ENDBRANCH  28  34
ENDBRANCH  24  26
ENDBRANCH   4  24
TORSDOF 6
ENDMDL
MODEL 7
REMARK VINA RESULT:      -8.7      1.440      2.460
REMARK  Name = 
REMARK  6 active torsions:
REMARK  status: ('A' for Active; 'I' for Inactive)
REMARK    1  A    between atoms: C_9  and  C_11
REMARK    2  A    between atoms: C_14  and  O_30
REMARK    3  A    between atoms: C_15  and  O_20
REMARK    4  A    between atoms: C_16  and  O_32
REMARK    5  A    between atoms: O_20  and  C_22
REMARK    6  A    between atoms: C_24  and  C_34
REMARK                            x       y       z     vdW  Elec       q    Type
REMARK                         _______ _______ _______ _____ _____    ______ ____
ROOT
ATOM      1  C   UNL     1     110.805 127.633 136.327  0.00  0.00    +0.000 A 
ATOM      2  C   UNL     1     110.974 128.275 135.566  0.00  0.00    +0.000 A 
ATOM      3  C   UNL     1     110.448 129.133 135.503  0.00  0.00    +0.000 A 
ATOM      4  C   UNL     1     109.752 129.350 136.201  0.00  0.00    +0.000 A 
ATOM      5  C   UNL     1     109.583 128.709 136.962  0.00  0.00    +0.000 A 
ATOM      6  C   UNL     1     110.109 127.851 137.024  0.00  0.00    +0.000 A 
ENDROOT
BRANCH   1  15
ATOM      7  C   UNL     1     113.714 124.267 137.054  0.00  0.00    +0.000 A 
ATOM      8  C   UNL     1     112.838 124.276 136.605  0.00  0.00    +0.000 A 
ATOM      9  C   UNL     1     112.330 125.115 136.536  0.00  0.00    +0.000 A 
ATOM     10  C   UNL     1     112.697 125.946 136.915  0.00  0.00    +0.000 A 
ATOM     11  C   UNL     1     113.572 125.937 137.364  0.00  0.00    +0.000 A 
ATOM     12  C   UNL     1     114.081 125.097 137.433  0.00  0.00    +0.000 A 
ATOM     13  C   UNL     1     111.454 125.124 136.087  0.00  0.00    +0.000 C 
ATOM     14  C   UNL     1     110.946 125.963 136.017  0.00  0.00    +0.000 C 
ATOM     15  C   UNL     1     111.313 126.794 136.396  0.00  0.00    +0.000 C 
ATOM     16  O   UNL     1     112.189 126.785 136.845  0.00  0.00    +0.000 OA
ATOM     17  O   UNL     1     111.088 124.294 135.708  0.00  0.00    +0.000 OA
ATOM     18  O   UNL     1     114.956 125.088 137.882  0.00  0.00    +0.000 OA
ATOM     19  O   UNL     1     113.940 126.767 137.743  0.00  0.00    +0.000 OA
ENDBRANCH   1  15
BRANCH   3  20
ATOM     20  O   UNL     1     109.787 129.814 135.762  0.00  0.00    +0.000 OA
ATOM     21  C   UNL     1     108.928 130.598 134.612  0.00  0.00    +0.000 C 
ENDBRANCH   3  20
BRANCH   5  22
ATOM     22  O   UNL     1     109.517 128.004 137.644  0.00  0.00    +0.000 OA
ATOM     23  C   UNL     1     109.829 128.351 139.212  0.00  0.00    +0.000 C 
ENDBRANCH   5  22
BRANCH   4  24
ATOM     24  O   UNL     1     109.238 130.188 136.140  0.00  0.00    +0.000 OA
BRANCH  24  26
ATOM     25  C   UNL     1     108.900 131.406 137.166  0.00  0.00    +0.000 C 
ATOM     26  C   UNL     1     109.406 130.792 136.625  0.00  0.00    +0.000 C 
ATOM     27  O   UNL     1     109.610 131.525 137.215  0.00  0.00    +0.000 OA
ATOM     28  C   UNL     1     110.264 132.091 137.635  0.00  0.00    +0.000 C 
ATOM     29  C   UNL     1     109.757 132.705 138.176  0.00  0.00    +0.000 C 
ATOM     30  C   UNL     1     109.553 131.973 137.587  0.00  0.00    +0.000 C 
ATOM     31  O   UNL     1     108.876 132.278 137.886  0.00  0.00    +0.000 OA
ATOM     32  O   UNL     1     108.239 131.446 137.246  0.00  0.00    +0.000 OA
ATOM     33  O   UNL     1     110.261 133.358 138.678  0.00  0.00    +0.000 OA
BRANCH  28  34
ATOM     34  C   UNL     1     111.241 132.052 137.534  0.00  0.00    +0.000 C 
ATOM     35  O   UNL     1     111.774 131.466 138.118  0.00  0.00    +0.000 OA
ENDBRANCH  28  34
ENDBRANCH  24  26
ENDBRANCH   4  24
TORSDOF 6
ENDMDL
MODEL 8
REMARK VINA RESULT:      -8.6      1.628      2.416
REMARK  Name = 
REMARK  6 active torsions:
REMARK  status: ('A' for Active; 'I' for Inactive)
REMARK    1  A    between atoms: C_9  and  C_11
REMARK    2  A    between atoms: C_14  and  O_30
REMARK    3  A    between atoms: C_15  and  O_20
REMARK    4  A    between atoms: C_16  and  O_32
REMARK    5  A    between atoms: O_20  and  C_22
REMARK    6  A    between atoms: C_24  and  C_34
REMARK                            x       y       z     vdW  Elec       q    Type
REMARK                         _______ _______ _______ _____ _____    ______ ____
ROOT
ATOM      1  C   UNL     1     111.522 128.047 136.518  0.00  0.00    +0.000 A 
ATOM      2  C   UNL     1     111.065 128.433 137.331  0.00  0.00    +0.000 A 
ATOM      3  C   UNL     1     110.819 129.411 137.355  0.00  0.00    +0.000 A 
ATOM      4  C   UNL     1     111.030 130.003 136.564  0.00  0.00    +0.000 A 
ATOM      5  C   UNL     1     111.486 129.617 135.752  0.00  0.00    +0.000 A 
ATOM      6  C   UNL     1     111.732 128.639 135.729  0.00  0.00    +0.000 A 
ENDROOT
BRANCH   1  15
ATOM      7  C   UNL     1     113.355 123.936 136.766  0.00  0.00    +0.000 A 
ATOM      8  C   UNL     1     112.496 124.236 136.392  0.00  0.00    +0.000 A 
ATOM      9  C   UNL     1     112.253 125.189 136.423  0.00  0.00    +0.000 A 
ATOM     10  C   UNL     1     112.868 125.841 136.829  0.00  0.00    +0.000 A 
ATOM     11  C   UNL     1     113.727 125.540 137.203  0.00  0.00    +0.000 A 
ATOM     12  C   UNL     1     113.971 124.588 137.171  0.00  0.00    +0.000 A 
ATOM     13  C   UNL     1     111.394 125.489 136.049  0.00  0.00    +0.000 C 
ATOM     14  C   UNL     1     111.150 126.442 136.081  0.00  0.00    +0.000 C 
ATOM     15  C   UNL     1     111.765 127.094 136.486  0.00  0.00    +0.000 C 
ATOM     16  O   UNL     1     112.624 126.794 136.861  0.00  0.00    +0.000 OA
ATOM     17  O   UNL     1     110.779 124.838 135.644  0.00  0.00    +0.000 OA
ATOM     18  O   UNL     1     114.829 124.287 137.545  0.00  0.00    +0.000 OA
ATOM     19  O   UNL     1     114.342 126.192 137.609  0.00  0.00    +0.000 OA
ENDBRANCH   1  15
BRANCH   3  20
ATOM     20  O   UNL     1     110.742 130.336 137.028  0.00  0.00    +0.000 OA
ATOM     21  C   UNL     1     111.736 131.495 137.615  0.00  0.00    +0.000 C 
ENDBRANCH   3  20
BRANCH   5  22
ATOM     22  O   UNL     1     111.930 129.118 135.029  0.00  0.00    +0.000 OA
ATOM     23  C   UNL     1     113.473 129.470 134.618  0.00  0.00    +0.000 C 
ENDBRANCH   5  22
BRANCH   4  24
ATOM     24  O   UNL     1     110.789 130.958 136.587  0.00  0.00    +0.000 OA
BRANCH  24  26
ATOM     25  C   UNL     1     109.786 132.053 135.920  0.00  0.00    +0.000 C 
ATOM     26  C   UNL     1     110.127 131.208 136.229  0.00  0.00    +0.000 C 
ATOM     27  O   UNL     1     109.324 131.512 135.795  0.00  0.00    +0.000 OA
ATOM     28  C   UNL     1     108.461 131.315 135.419  0.00  0.00    +0.000 C 
ATOM     29  C   UNL     1     108.120 132.160 135.110  0.00  0.00    +0.000 C 
ATOM     30  C   UNL     1     108.922 131.856 135.544  0.00  0.00    +0.000 C 
ATOM     31  O   UNL     1     108.960 132.646 135.425  0.00  0.00    +0.000 OA
ATOM     32  O   UNL     1     110.070 132.656 135.950  0.00  0.00    +0.000 OA
ATOM     33  O   UNL     1     107.247 132.150 134.697  0.00  0.00    +0.000 OA
BRANCH  28  34
ATOM     34  C   UNL     1     108.021 130.437 135.363  0.00  0.00    +0.000 C 
ATOM     35  O   UNL     1     107.533 130.080 136.138  0.00  0.00    +0.000 OA
ENDBRANCH  28  34
ENDBRANCH  24  26
ENDBRANCH   4  24
TORSDOF 6
ENDMDL
MODEL 9
REMARK VINA RESULT:      -8.6      1.251      2.056
REMARK  Name = 
REMARK  6 active torsions:
REMARK  status: ('A' for Active; 'I' for Inactive)
REMARK    1  A    between atoms: C_9  and  C_11
REMARK    2  A    between atoms: C_14  and  O_30
REMARK    3  A    between atoms: C_15  and  O_20
REMARK    4  A    between atoms: C_16  and  O_32
REMARK    5  A    between atoms: O_20  and  C_22
REMARK    6  A    between atoms: C_24  and  C_34
REMARK                            x       y       z     vdW  Elec       q    Type
REMARK                         _______ _______ _______ _____ _____    ______ ____
ROOT
ATOM      1  C   UNL     1     111.955 127.983 138.006  0.00  0.00    +0.000 A 
ATOM      2  C   UNL     1     112.453 128.539 138.686  0.00  0.00    +0.000 A 
ATOM      3  C   UNL     1     112.024 129.365 139.074  0.00  0.00    +0.000 A 
ATOM      4  C   UNL     1     111.095 129.635 138.783  0.00  0.00    +0.000 A 
ATOM      5  C   UNL     1     110.598 129.079 138.104  0.00  0.00    +0.000 A 
ATOM      6  C   UNL     1     111.027 128.253 137.716  0.00  0.00    +0.000 A 
ENDROOT
BRANCH   1  15
ATOM      7  C   UNL     1     113.184 123.874 136.616  0.00  0.00    +0.000 A 
ATOM      8  C   UNL     1     113.598 124.754 136.469  0.00  0.00    +0.000 A 
ATOM      9  C   UNL     1     113.187 125.562 136.854  0.00  0.00    +0.000 A 
ATOM     10  C   UNL     1     112.362 125.489 137.384  0.00  0.00    +0.000 A 
ATOM     11  C   UNL     1     111.948 124.608 137.531  0.00  0.00    +0.000 A 
ATOM     12  C   UNL     1     112.358 123.801 137.147  0.00  0.00    +0.000 A 
ATOM     13  C   UNL     1     113.602 126.442 136.707  0.00  0.00    +0.000 C 
ATOM     14  C   UNL     1     113.191 127.249 137.091  0.00  0.00    +0.000 C 
ATOM     15  C   UNL     1     112.366 127.176 137.622  0.00  0.00    +0.000 C 
ATOM     16  O   UNL     1     111.951 126.296 137.769  0.00  0.00    +0.000 OA
ATOM     17  O   UNL     1     114.426 126.515 136.177  0.00  0.00    +0.000 OA
ATOM     18  O   UNL     1     111.944 122.921 137.293  0.00  0.00    +0.000 OA
ATOM     19  O   UNL     1     111.122 124.535 138.062  0.00  0.00    +0.000 OA
ENDBRANCH   1  15
BRANCH   3  20
ATOM     20  O   UNL     1     111.328 130.047 139.214  0.00  0.00    +0.000 OA
ATOM     21  C   UNL     1     110.519 130.109 140.634  0.00  0.00    +0.000 C 
ENDBRANCH   3  20
BRANCH   5  22
ATOM     22  O   UNL     1     110.226 128.454 137.441  0.00  0.00    +0.000 OA
ATOM     23  C   UNL     1     109.346 129.022 136.185  0.00  0.00    +0.000 C 
ENDBRANCH   5  22
BRANCH   4  24
ATOM     24  O   UNL     1     110.676 130.442 139.163  0.00  0.00    +0.000 OA
BRANCH  24  26
ATOM     25  C   UNL     1     110.117 131.920 138.774  0.00  0.00    +0.000 C 
ATOM     26  C   UNL     1     110.618 131.101 138.725  0.00  0.00    +0.000 C 
ATOM     27  O   UNL     1     110.547 131.900 138.195  0.00  0.00    +0.000 OA
ATOM     28  C   UNL     1     110.816 132.408 137.424  0.00  0.00    +0.000 C 
ATOM     29  C   UNL     1     110.315 133.228 137.472  0.00  0.00    +0.000 C 
ATOM     30  C   UNL     1     110.386 132.429 138.003  0.00  0.00    +0.000 C 
ATOM     31  O   UNL     1     109.860 132.931 138.337  0.00  0.00    +0.000 OA
ATOM     32  O   UNL     1     109.674 132.114 139.234  0.00  0.00    +0.000 OA
ATOM     33  O   UNL     1     110.462 133.869 136.765  0.00  0.00    +0.000 OA
BRANCH  28  34
ATOM     34  C   UNL     1     111.465 132.145 136.732  0.00  0.00    +0.000 C 
ATOM     35  O   UNL     1     112.430 132.213 136.911  0.00  0.00    +0.000 OA
ENDBRANCH  28  34
ENDBRANCH  24  26
ENDBRANCH   4  24
TORSDOF 6
ENDMDL
MODEL 10
REMARK VINA RESULT:      -8.6      2.708      3.867
REMARK  Name = 
REMARK  6 active torsions:
REMARK  status: ('A' for Active; 'I' for Inactive)
REMARK    1  A    between atoms: C_9  and  C_11
REMARK    2  A    between atoms: C_14  and  O_30
REMARK    3  A    between atoms: C_15  and  O_20
REMARK    4  A    between atoms: C_16  and  O_32
REMARK    5  A    between atoms: O_20  and  C_22
REMARK    6  A    between atoms: C_24  and  C_34
REMARK                            x       y       z     vdW  Elec       q    Type
REMARK                         _______ _______ _______ _____ _____    ______ ____
ROOT
ATOM      1  C   UNL     1     113.456 127.413 139.165  0.00  0.00    +0.000 A 
ATOM      2  C   UNL     1     113.996 127.325 140.013  0.00  0.00    +0.000 A 
ATOM      3  C   UNL     1     114.081 128.111 140.641  0.00  0.00    +0.000 A 
ATOM      4  C   UNL     1     113.624 128.984 140.420  0.00  0.00    +0.000 A 
ATOM      5  C   UNL     1     113.085 129.071 139.572  0.00  0.00    +0.000 A 
ATOM      6  C   UNL     1     113.000 128.286 138.945  0.00  0.00    +0.000 A 
ENDROOT
BRANCH   1  15
ATOM      7  C   UNL     1     112.265 124.234 136.199  0.00  0.00    +0.000 A 
ATOM      8  C   UNL     1     113.105 124.372 136.692  0.00  0.00    +0.000 A 
ATOM      9  C   UNL     1     113.193 125.132 137.310  0.00  0.00    +0.000 A 
ATOM     10  C   UNL     1     112.441 125.755 137.435  0.00  0.00    +0.000 A 
ATOM     11  C   UNL     1     111.601 125.616 136.941  0.00  0.00    +0.000 A 
ATOM     12  C   UNL     1     111.513 124.856 136.323  0.00  0.00    +0.000 A 
ATOM     13  C   UNL     1     114.032 125.270 137.804  0.00  0.00    +0.000 C 
ATOM     14  C   UNL     1     114.120 126.031 138.422  0.00  0.00    +0.000 C 
ATOM     15  C   UNL     1     113.368 126.653 138.547  0.00  0.00    +0.000 C 
ATOM     16  O   UNL     1     112.528 126.515 138.053  0.00  0.00    +0.000 OA
ATOM     17  O   UNL     1     114.784 124.649 137.679  0.00  0.00    +0.000 OA
ATOM     18  O   UNL     1     110.673 124.718 135.830  0.00  0.00    +0.000 OA
ATOM     19  O   UNL     1     110.849 126.239 137.066  0.00  0.00    +0.000 OA
ENDBRANCH   1  15
BRANCH   3  20
ATOM     20  O   UNL     1     113.941 129.025 140.975  0.00  0.00    +0.000 OA
ATOM     21  C   UNL     1     115.092 130.165 140.743  0.00  0.00    +0.000 C 
ENDBRANCH   3  20
BRANCH   5  22
ATOM     22  O   UNL     1     112.593 129.022 138.722  0.00  0.00    +0.000 OA
ATOM     23  C   UNL     1     111.096 129.669 138.603  0.00  0.00    +0.000 C 
ENDBRANCH   5  22
BRANCH   4  24
ATOM     24  O   UNL     1     113.707 129.751 141.033  0.00  0.00    +0.000 OA
BRANCH  24  26
ATOM     25  C   UNL     1     112.829 130.698 142.025  0.00  0.00    +0.000 C 
ATOM     26  C   UNL     1     113.117 129.921 141.535  0.00  0.00    +0.000 C 
ATOM     27  O   UNL     1     112.402 130.128 142.145  0.00  0.00    +0.000 OA
ATOM     28  C   UNL     1     111.622 129.846 142.631  0.00  0.00    +0.000 C 
ATOM     29  C   UNL     1     111.333 130.623 143.121  0.00  0.00    +0.000 C 
ATOM     30  C   UNL     1     112.048 130.416 142.511  0.00  0.00    +0.000 C 
ATOM     31  O   UNL     1     112.100 131.181 142.742  0.00  0.00    +0.000 OA
ATOM     32  O   UNL     1     113.098 131.308 142.038  0.00  0.00    +0.000 OA
ATOM     33  O   UNL     1     110.548 130.520 143.674  0.00  0.00    +0.000 OA
BRANCH  28  34
ATOM     34  C   UNL     1     111.207 128.954 142.629  0.00  0.00    +0.000 C 
ATOM     35  O   UNL     1     111.514 128.267 143.262  0.00  0.00    +0.000 OA
ENDBRANCH  28  34
ENDBRANCH  24  26
ENDBRANCH   4  24
TORSDOF 6
ENDMDL
