MODEL 1
REMARK VINA RESULT:      -8.3      0.000      0.000
REMARK  Name = 477645
REMARK  3 active torsions:
REMARK  status: ('A' for Active; 'I' for Inactive)
REMARK    1  A    between atoms: O_4  and  C_9
REMARK    2  A    between atoms: O_5  and  C_15
REMARK    3  A    between atoms: C_14  and  C_17
REMARK                            x       y       z     vdW  Elec       q    Type
REMARK                         _______ _______ _______ _____ _____    ______ ____
ROOT
ATOM      1  O   UNL     1     105.379 124.234 147.089  0.00  0.00    +0.000 OA
ATOM      2  O   UNL     1     102.216 123.930 146.144  0.00  0.00    +0.000 OA
ATOM      3  O   UNL     1     103.108 123.152 145.542  0.00  0.00    +0.000 OA
ATOM      4  O   UNL     1     103.671 125.713 148.233  0.00  0.00    +0.000 OA
ATOM      5  C   UNL     1     103.992 124.677 147.255  0.00  0.00    +0.000 A 
ATOM      6  C   UNL     1     104.546 124.194 146.880  0.00  0.00    +0.000 A 
ATOM      7  C   UNL     1     103.196 124.629 147.046  0.00  0.00    +0.000 A 
ATOM      8  C   UNL     1     102.952 124.099 146.463  0.00  0.00    +0.000 A 
ATOM      9  C   UNL     1     103.506 123.615 146.088  0.00  0.00    +0.000 A 
ATOM     10  C   UNL     1     104.304 123.663 146.297  0.00  0.00    +0.000 A 
ATOM     11  C   UNL     1     104.232 125.234 147.864  0.00  0.00    +0.000 A 
ATOM     12  C   UNL     1     105.637 124.784 147.696  0.00  0.00    +0.000 A 
ATOM     13  C   UNL     1     105.060 125.288 148.086  0.00  0.00    +0.000 A 
ATOM     14  C   UNL     1     102.312 123.346 145.576  0.00  0.00    +0.000 C 
ENDROOT
BRANCH  12  15
ATOM     15  C   UNL     1     106.435 124.829 147.902  0.00  0.00    +0.000 A 
ATOM     16  C   UNL     1     106.706 124.459 148.588  0.00  0.00    +0.000 A 
ATOM     17  C   UNL     1     106.962 125.245 147.422  0.00  0.00    +0.000 A 
ATOM     18  C   UNL     1     107.504 124.504 148.793  0.00  0.00    +0.000 A 
ATOM     19  C   UNL     1     107.760 125.290 147.628  0.00  0.00    +0.000 A 
ATOM     20  C   UNL     1     108.031 124.920 148.314  0.00  0.00    +0.000 A 
ENDBRANCH  12  15
BRANCH   7  21
ATOM     21  O   UNL     1     102.642 125.113 147.420  0.00  0.00    +0.000 OA
ATOM     22  C   UNL     1     102.219 124.829 148.070  0.00  0.00    +0.000 C 
ENDBRANCH   7  21
BRANCH  13  23
ATOM     23  O   UNL     1     105.300 125.819 148.669  0.00  0.00    +0.000 OA
ATOM     24  C   UNL     1     104.935 126.556 148.731  0.00  0.00    +0.000 C 
ENDBRANCH  13  23
TORSDOF 3
ENDMDL
MODEL 2
REMARK VINA RESULT:      -8.3     12.907     13.712
REMARK  Name = 477645
REMARK  3 active torsions:
REMARK  status: ('A' for Active; 'I' for Inactive)
REMARK    1  A    between atoms: O_4  and  C_9
REMARK    2  A    between atoms: O_5  and  C_15
REMARK    3  A    between atoms: C_14  and  C_17
REMARK                            x       y       z     vdW  Elec       q    Type
REMARK                         _______ _______ _______ _____ _____    ______ ____
ROOT
ATOM      1  O   UNL     1     112.640 126.621 136.266  0.00  0.00    +0.000 OA
ATOM      2  O   UNL     1     109.824 127.811 134.986  0.00  0.00    +0.000 OA
ATOM      3  O   UNL     1     110.809 128.677 135.198  0.00  0.00    +0.000 OA
ATOM      4  O   UNL     1     110.756 124.979 135.860  0.00  0.00    +0.000 OA
ATOM      5  C   UNL     1     111.278 126.342 135.805  0.00  0.00    +0.000 A 
ATOM      6  C   UNL     1     111.890 126.879 135.936  0.00  0.00    +0.000 A 
ATOM      7  C   UNL     1     110.562 126.601 135.487  0.00  0.00    +0.000 A 
ATOM      8  C   UNL     1     110.458 127.398 135.301  0.00  0.00    +0.000 A 
ATOM      9  C   UNL     1     111.070 127.936 135.433  0.00  0.00    +0.000 A 
ATOM     10  C   UNL     1     111.786 127.676 135.750  0.00  0.00    +0.000 A 
ATOM     11  C   UNL     1     111.374 125.509 135.994  0.00  0.00    +0.000 A 
ATOM     12  C   UNL     1     112.754 125.792 136.462  0.00  0.00    +0.000 A 
ATOM     13  C   UNL     1     112.117 125.232 136.325  0.00  0.00    +0.000 A 
ATOM     14  C   UNL     1     110.040 128.600 134.922  0.00  0.00    +0.000 C 
ENDROOT
BRANCH  12  15
ATOM     15  C   UNL     1     113.472 125.536 136.779  0.00  0.00    +0.000 A 
ATOM     16  C   UNL     1     114.051 125.217 136.286  0.00  0.00    +0.000 A 
ATOM     17  C   UNL     1     113.609 125.599 137.591  0.00  0.00    +0.000 A 
ATOM     18  C   UNL     1     114.768 124.961 136.605  0.00  0.00    +0.000 A 
ATOM     19  C   UNL     1     114.326 125.343 137.909  0.00  0.00    +0.000 A 
ATOM     20  C   UNL     1     114.906 125.024 137.416  0.00  0.00    +0.000 A 
ENDBRANCH  12  15
BRANCH   7  21
ATOM     21  O   UNL     1     109.950 126.064 135.356  0.00  0.00    +0.000 OA
ATOM     22  C   UNL     1     109.858 125.717 134.612  0.00  0.00    +0.000 C 
ENDBRANCH   7  21
BRANCH  13  23
ATOM     23  O   UNL     1     112.218 124.435 136.510  0.00  0.00    +0.000 OA
ATOM     24  C   UNL     1     111.596 124.007 136.843  0.00  0.00    +0.000 C 
ENDBRANCH  13  23
TORSDOF 3
ENDMDL
MODEL 3
REMARK VINA RESULT:      -8.1      1.416      4.337
REMARK  Name = 477645
REMARK  3 active torsions:
REMARK  status: ('A' for Active; 'I' for Inactive)
REMARK    1  A    between atoms: O_4  and  C_9
REMARK    2  A    between atoms: O_5  and  C_15
REMARK    3  A    between atoms: C_14  and  C_17
REMARK                            x       y       z     vdW  Elec       q    Type
REMARK                         _______ _______ _______ _____ _____    ______ ____
ROOT
ATOM      1  O   UNL     1     103.898 124.384 147.153  0.00  0.00    +0.000 OA
ATOM      2  O   UNL     1     106.999 125.270 146.388  0.00  0.00    +0.000 OA
ATOM      3  O   UNL     1     106.552 125.602 147.593  0.00  0.00    +0.000 OA
ATOM      4  O   UNL     1     104.759 123.755 144.856  0.00  0.00    +0.000 OA
ATOM      5  C   UNL     1     104.973 124.384 146.157  0.00  0.00    +0.000 A 
ATOM      6  C   UNL     1     104.695 124.591 146.906  0.00  0.00    +0.000 A 
ATOM      7  C   UNL     1     105.739 124.588 145.931  0.00  0.00    +0.000 A 
ATOM      8  C   UNL     1     106.229 124.998 146.454  0.00  0.00    +0.000 A 
ATOM      9  C   UNL     1     105.951 125.204 147.203  0.00  0.00    +0.000 A 
ATOM     10  C   UNL     1     105.183 125.000 147.429  0.00  0.00    +0.000 A 
ATOM     11  C   UNL     1     104.472 123.957 145.603  0.00  0.00    +0.000 A 
ATOM     12  C   UNL     1     103.384 123.958 146.613  0.00  0.00    +0.000 A 
ATOM     13  C   UNL     1     103.673 123.743 145.833  0.00  0.00    +0.000 A 
ATOM     14  C   UNL     1     107.199 125.642 147.091  0.00  0.00    +0.000 C 
ENDROOT
BRANCH  12  15
ATOM     15  C   UNL     1     102.617 123.756 146.842  0.00  0.00    +0.000 A 
ATOM     16  C   UNL     1     102.484 123.069 147.280  0.00  0.00    +0.000 A 
ATOM     17  C   UNL     1     101.983 124.241 146.633  0.00  0.00    +0.000 A 
ATOM     18  C   UNL     1     101.717 122.868 147.509  0.00  0.00    +0.000 A 
ATOM     19  C   UNL     1     101.217 124.040 146.862  0.00  0.00    +0.000 A 
ATOM     20  C   UNL     1     101.084 123.353 147.300  0.00  0.00    +0.000 A 
ENDBRANCH  12  15
BRANCH   7  21
ATOM     21  O   UNL     1     106.017 124.381 145.182  0.00  0.00    +0.000 OA
ATOM     22  C   UNL     1     105.943 124.912 144.554  0.00  0.00    +0.000 C 
ENDBRANCH   7  21
BRANCH  13  23
ATOM     23  O   UNL     1     103.186 123.333 145.308  0.00  0.00    +0.000 OA
ATOM     24  C   UNL     1     103.502 122.739 144.830  0.00  0.00    +0.000 C 
ENDBRANCH  13  23
TORSDOF 3
ENDMDL
MODEL 4
REMARK VINA RESULT:      -8.1      1.070      2.081
REMARK  Name = 477645
REMARK  3 active torsions:
REMARK  status: ('A' for Active; 'I' for Inactive)
REMARK    1  A    between atoms: O_4  and  C_9
REMARK    2  A    between atoms: O_5  and  C_15
REMARK    3  A    between atoms: C_14  and  C_17
REMARK                            x       y       z     vdW  Elec       q    Type
REMARK                         _______ _______ _______ _____ _____    ______ ____
ROOT
ATOM      1  O   UNL     1     104.088 124.541 147.839  0.00  0.00    +0.000 OA
ATOM      2  O   UNL     1     101.286 123.362 146.518  0.00  0.00    +0.000 OA
ATOM      3  O   UNL     1     101.258 123.697 147.802  0.00  0.00    +0.000 OA
ATOM      4  O   UNL     1     104.131 123.900 145.390  0.00  0.00    +0.000 OA
ATOM      5  C   UNL     1     103.405 124.022 146.651  0.00  0.00    +0.000 A 
ATOM      6  C   UNL     1     103.388 124.230 147.449  0.00  0.00    +0.000 A 
ATOM      7  C   UNL     1     102.727 123.726 146.287  0.00  0.00    +0.000 A 
ATOM      8  C   UNL     1     102.031 123.636 146.722  0.00  0.00    +0.000 A 
ATOM      9  C   UNL     1     102.014 123.844 147.520  0.00  0.00    +0.000 A 
ATOM     10  C   UNL     1     102.693 124.141 147.884  0.00  0.00    +0.000 A 
ATOM     11  C   UNL     1     104.124 124.110 146.187  0.00  0.00    +0.000 A 
ATOM     12  C   UNL     1     104.815 124.636 147.391  0.00  0.00    +0.000 A 
ATOM     13  C   UNL     1     104.833 124.419 146.560  0.00  0.00    +0.000 A 
ATOM     14  C   UNL     1     100.809 123.399 147.184  0.00  0.00    +0.000 C 
ENDROOT
BRANCH  12  15
ATOM     15  C   UNL     1     105.492 124.933 147.758  0.00  0.00    +0.000 A 
ATOM     16  C   UNL     1     106.042 124.416 148.092  0.00  0.00    +0.000 A 
ATOM     17  C   UNL     1     105.618 125.748 147.792  0.00  0.00    +0.000 A 
ATOM     18  C   UNL     1     106.719 124.714 148.458  0.00  0.00    +0.000 A 
ATOM     19  C   UNL     1     106.294 126.046 148.159  0.00  0.00    +0.000 A 
ATOM     20  C   UNL     1     106.845 125.529 148.492  0.00  0.00    +0.000 A 
ENDBRANCH  12  15
BRANCH   7  21
ATOM     21  O   UNL     1     102.744 123.518 145.489  0.00  0.00    +0.000 OA
ATOM     22  C   UNL     1     102.912 122.740 145.269  0.00  0.00    +0.000 C 
ENDBRANCH   7  21
BRANCH  13  23
ATOM     23  O   UNL     1     105.527 124.507 146.123  0.00  0.00    +0.000 OA
ATOM     24  C   UNL     1     105.490 124.732 145.331  0.00  0.00    +0.000 C 
ENDBRANCH  13  23
TORSDOF 3
ENDMDL
MODEL 5
REMARK VINA RESULT:      -8.0     10.560     12.201
REMARK  Name = 477645
REMARK  3 active torsions:
REMARK  status: ('A' for Active; 'I' for Inactive)
REMARK    1  A    between atoms: O_4  and  C_9
REMARK    2  A    between atoms: O_5  and  C_15
REMARK    3  A    between atoms: C_14  and  C_17
REMARK                            x       y       z     vdW  Elec       q    Type
REMARK                         _______ _______ _______ _____ _____    ______ ____
ROOT
ATOM      1  O   UNL     1     113.643 126.373 138.848  0.00  0.00    +0.000 OA
ATOM      2  O   UNL     1     111.735 127.270 141.406  0.00  0.00    +0.000 OA
ATOM      3  O   UNL     1     113.004 127.661 141.428  0.00  0.00    +0.000 OA
ATOM      4  O   UNL     1     111.221 125.633 138.816  0.00  0.00    +0.000 OA
ATOM      5  C   UNL     1     112.318 126.337 139.474  0.00  0.00    +0.000 A 
ATOM      6  C   UNL     1     113.107 126.580 139.488  0.00  0.00    +0.000 A 
ATOM      7  C   UNL     1     111.814 126.541 140.093  0.00  0.00    +0.000 A 
ATOM      8  C   UNL     1     112.096 126.988 140.727  0.00  0.00    +0.000 A 
ATOM      9  C   UNL     1     112.885 127.231 140.740  0.00  0.00    +0.000 A 
ATOM     10  C   UNL     1     113.390 127.026 140.120  0.00  0.00    +0.000 A 
ATOM     11  C   UNL     1     112.011 125.871 138.820  0.00  0.00    +0.000 A 
ATOM     12  C   UNL     1     113.354 125.907 138.187  0.00  0.00    +0.000 A 
ATOM     13  C   UNL     1     112.533 125.655 138.173  0.00  0.00    +0.000 A 
ATOM     14  C   UNL     1     112.295 127.685 141.840  0.00  0.00    +0.000 C 
ENDROOT
BRANCH  12  15
ATOM     15  C   UNL     1     113.862 125.705 137.569  0.00  0.00    +0.000 A 
ATOM     16  C   UNL     1     114.333 125.030 137.626  0.00  0.00    +0.000 A 
ATOM     17  C   UNL     1     113.898 126.177 136.894  0.00  0.00    +0.000 A 
ATOM     18  C   UNL     1     114.841 124.828 137.008  0.00  0.00    +0.000 A 
ATOM     19  C   UNL     1     114.406 125.975 136.275  0.00  0.00    +0.000 A 
ATOM     20  C   UNL     1     114.877 125.301 136.333  0.00  0.00    +0.000 A 
ENDBRANCH  12  15
BRANCH   7  21
ATOM     21  O   UNL     1     111.025 126.299 140.080  0.00  0.00    +0.000 OA
ATOM     22  C   UNL     1     110.443 126.803 139.782  0.00  0.00    +0.000 C 
ENDBRANCH   7  21
BRANCH  13  23
ATOM     23  O   UNL     1     112.247 125.208 137.541  0.00  0.00    +0.000 OA
ATOM     24  C   UNL     1     111.635 124.668 137.662  0.00  0.00    +0.000 C 
ENDBRANCH  13  23
TORSDOF 3
ENDMDL
MODEL 6
REMARK VINA RESULT:      -7.9     13.229     13.664
REMARK  Name = 477645
REMARK  3 active torsions:
REMARK  status: ('A' for Active; 'I' for Inactive)
REMARK    1  A    between atoms: O_4  and  C_9
REMARK    2  A    between atoms: O_5  and  C_15
REMARK    3  A    between atoms: C_14  and  C_17
REMARK                            x       y       z     vdW  Elec       q    Type
REMARK                         _______ _______ _______ _____ _____    ______ ____
ROOT
ATOM      1  O   UNL     1     112.267 125.529 136.211  0.00  0.00    +0.000 OA
ATOM      2  O   UNL     1     109.495 126.827 134.940  0.00  0.00    +0.000 OA
ATOM      3  O   UNL     1     109.565 125.504 135.021  0.00  0.00    +0.000 OA
ATOM      4  O   UNL     1     112.125 128.052 136.053  0.00  0.00    +0.000 OA
ATOM      5  C   UNL     1     111.526 126.737 135.839  0.00  0.00    +0.000 A 
ATOM      6  C   UNL     1     111.570 125.915 135.889  0.00  0.00    +0.000 A 
ATOM      7  C   UNL     1     110.853 127.096 135.528  0.00  0.00    +0.000 A 
ATOM      8  C   UNL     1     110.221 126.634 135.267  0.00  0.00    +0.000 A 
ATOM      9  C   UNL     1     110.264 125.811 135.317  0.00  0.00    +0.000 A 
ATOM     10  C   UNL     1     110.939 125.451 135.629  0.00  0.00    +0.000 A 
ATOM     11  C   UNL     1     112.178 127.230 136.107  0.00  0.00    +0.000 A 
ATOM     12  C   UNL     1     112.927 126.005 136.484  0.00  0.00    +0.000 A 
ATOM     13  C   UNL     1     112.882 126.862 136.432  0.00  0.00    +0.000 A 
ATOM     14  C   UNL     1     109.089 126.131 134.787  0.00  0.00    +0.000 C 
ENDROOT
BRANCH  12  15
ATOM     15  C   UNL     1     113.600 125.642 136.795  0.00  0.00    +0.000 A 
ATOM     16  C   UNL     1     113.691 125.569 137.611  0.00  0.00    +0.000 A 
ATOM     17  C   UNL     1     114.183 125.353 136.288  0.00  0.00    +0.000 A 
ATOM     18  C   UNL     1     114.364 125.206 137.921  0.00  0.00    +0.000 A 
ATOM     19  C   UNL     1     114.856 124.990 136.597  0.00  0.00    +0.000 A 
ATOM     20  C   UNL     1     114.947 124.917 137.414  0.00  0.00    +0.000 A 
ENDBRANCH  12  15
BRANCH   7  21
ATOM     21  O   UNL     1     110.809 127.918 135.478  0.00  0.00    +0.000 OA
ATOM     22  C   UNL     1     110.452 128.351 136.083  0.00  0.00    +0.000 C 
ENDBRANCH   7  21
BRANCH  13  23
ATOM     23  O   UNL     1     113.512 127.327 136.692  0.00  0.00    +0.000 OA
ATOM     24  C   UNL     1     113.699 128.026 136.296  0.00  0.00    +0.000 C 
ENDBRANCH  13  23
TORSDOF 3
ENDMDL
MODEL 7
REMARK VINA RESULT:      -7.8     13.086     13.911
REMARK  Name = 477645
REMARK  3 active torsions:
REMARK  status: ('A' for Active; 'I' for Inactive)
REMARK    1  A    between atoms: O_4  and  C_9
REMARK    2  A    between atoms: O_5  and  C_15
REMARK    3  A    between atoms: C_14  and  C_17
REMARK                            x       y       z     vdW  Elec       q    Type
REMARK                         _______ _______ _______ _____ _____    ______ ____
ROOT
ATOM      1  O   UNL     1     113.237 126.917 136.415  0.00  0.00    +0.000 OA
ATOM      2  O   UNL     1     111.587 124.050 136.626  0.00  0.00    +0.000 OA
ATOM      3  O   UNL     1     112.882 124.029 136.920  0.00  0.00    +0.000 OA
ATOM      4  O   UNL     1     110.768 126.947 135.856  0.00  0.00    +0.000 OA
ATOM      5  C   UNL     1     111.960 126.213 136.272  0.00  0.00    +0.000 A 
ATOM      6  C   UNL     1     112.765 126.200 136.454  0.00  0.00    +0.000 A 
ATOM      7  C   UNL     1     111.517 125.519 136.313  0.00  0.00    +0.000 A 
ATOM      8  C   UNL     1     111.877 124.811 136.537  0.00  0.00    +0.000 A 
ATOM      9  C   UNL     1     112.681 124.798 136.720  0.00  0.00    +0.000 A 
ATOM     10  C   UNL     1     113.126 125.493 136.678  0.00  0.00    +0.000 A 
ATOM     11  C   UNL     1     111.573 126.944 136.037  0.00  0.00    +0.000 A 
ATOM     12  C   UNL     1     112.867 127.656 136.182  0.00  0.00    +0.000 A 
ATOM     13  C   UNL     1     112.030 127.670 135.992  0.00  0.00    +0.000 A 
ATOM     14  C   UNL     1     112.206 123.567 136.863  0.00  0.00    +0.000 C 
ENDROOT
BRANCH  12  15
ATOM     15  C   UNL     1     113.315 128.349 136.142  0.00  0.00    +0.000 A 
ATOM     16  C   UNL     1     113.391 128.831 136.808  0.00  0.00    +0.000 A 
ATOM     17  C   UNL     1     113.685 128.560 135.436  0.00  0.00    +0.000 A 
ATOM     18  C   UNL     1     113.838 129.523 136.767  0.00  0.00    +0.000 A 
ATOM     19  C   UNL     1     114.132 129.252 135.394  0.00  0.00    +0.000 A 
ATOM     20  C   UNL     1     114.208 129.734 136.060  0.00  0.00    +0.000 A 
ENDBRANCH  12  15
BRANCH   7  21
ATOM     21  O   UNL     1     110.712 125.532 136.130  0.00  0.00    +0.000 OA
ATOM     22  C   UNL     1     110.461 125.365 135.362  0.00  0.00    +0.000 C 
ENDBRANCH   7  21
BRANCH  13  23
ATOM     23  O   UNL     1     111.667 128.376 135.768  0.00  0.00    +0.000 OA
ATOM     24  C   UNL     1     110.882 128.521 135.977  0.00  0.00    +0.000 C 
ENDBRANCH  13  23
TORSDOF 3
ENDMDL
MODEL 8
REMARK VINA RESULT:      -7.7     12.952     14.026
REMARK  Name = 477645
REMARK  3 active torsions:
REMARK  status: ('A' for Active; 'I' for Inactive)
REMARK    1  A    between atoms: O_4  and  C_9
REMARK    2  A    between atoms: O_5  and  C_15
REMARK    3  A    between atoms: C_14  and  C_17
REMARK                            x       y       z     vdW  Elec       q    Type
REMARK                         _______ _______ _______ _____ _____    ______ ____
ROOT
ATOM      1  O   UNL     1     112.281 126.972 136.171  0.00  0.00    +0.000 OA
ATOM      2  O   UNL     1     113.967 124.271 137.093  0.00  0.00    +0.000 OA
ATOM      3  O   UNL     1     114.569 125.445 137.245  0.00  0.00    +0.000 OA
ATOM      4  O   UNL     1     111.141 124.729 135.885  0.00  0.00    +0.000 OA
ATOM      5  C   UNL     1     112.301 125.512 136.300  0.00  0.00    +0.000 A 
ATOM      6  C   UNL     1     112.675 126.241 136.395  0.00  0.00    +0.000 A 
ATOM      7  C   UNL     1     112.689 124.819 136.519  0.00  0.00    +0.000 A 
ATOM      8  C   UNL     1     113.452 124.853 136.832  0.00  0.00    +0.000 A 
ATOM      9  C   UNL     1     113.826 125.582 136.926  0.00  0.00    +0.000 A 
ATOM     10  C   UNL     1     113.437 126.277 136.707  0.00  0.00    +0.000 A 
ATOM     11  C   UNL     1     111.507 125.463 135.975  0.00  0.00    +0.000 A 
ATOM     12  C   UNL     1     111.487 126.941 135.844  0.00  0.00    +0.000 A 
ATOM     13  C   UNL     1     111.097 126.182 135.746  0.00  0.00    +0.000 A 
ATOM     14  C   UNL     1     114.656 124.636 137.348  0.00  0.00    +0.000 C 
ENDROOT
BRANCH  12  15
ATOM     15  C   UNL     1     111.101 127.638 135.627  0.00  0.00    +0.000 A 
ATOM     16  C   UNL     1     111.213 127.954 134.873  0.00  0.00    +0.000 A 
ATOM     17  C   UNL     1     110.603 128.018 136.164  0.00  0.00    +0.000 A 
ATOM     18  C   UNL     1     110.827 128.651 134.656  0.00  0.00    +0.000 A 
ATOM     19  C   UNL     1     110.217 128.714 135.947  0.00  0.00    +0.000 A 
ATOM     20  C   UNL     1     110.329 129.031 135.193  0.00  0.00    +0.000 A 
ENDBRANCH  12  15
BRANCH   7  21
ATOM     21  O   UNL     1     112.315 124.089 136.424  0.00  0.00    +0.000 OA
ATOM     22  C   UNL     1     111.906 123.750 137.056  0.00  0.00    +0.000 C 
ENDBRANCH   7  21
BRANCH  13  23
ATOM     23  O   UNL     1     110.335 126.144 135.433  0.00  0.00    +0.000 OA
ATOM     24  C   UNL     1     110.125 125.524 134.931  0.00  0.00    +0.000 C 
ENDBRANCH  13  23
TORSDOF 3
ENDMDL
MODEL 9
REMARK VINA RESULT:      -7.7     13.015     14.492
REMARK  Name = 477645
REMARK  3 active torsions:
REMARK  status: ('A' for Active; 'I' for Inactive)
REMARK    1  A    between atoms: O_4  and  C_9
REMARK    2  A    between atoms: O_5  and  C_15
REMARK    3  A    between atoms: C_14  and  C_17
REMARK                            x       y       z     vdW  Elec       q    Type
REMARK                         _______ _______ _______ _____ _____    ______ ____
ROOT
ATOM      1  O   UNL     1     113.966 127.070 136.228  0.00  0.00    +0.000 OA
ATOM      2  O   UNL     1     113.904 130.373 135.960  0.00  0.00    +0.000 OA
ATOM      3  O   UNL     1     114.600 129.702 135.049  0.00  0.00    +0.000 OA
ATOM      4  O   UNL     1     112.643 128.358 137.961  0.00  0.00    +0.000 OA
ATOM      5  C   UNL     1     113.487 128.345 136.769  0.00  0.00    +0.000 A 
ATOM      6  C   UNL     1     113.919 127.928 136.203  0.00  0.00    +0.000 A 
ATOM      7  C   UNL     1     113.448 129.168 136.734  0.00  0.00    +0.000 A 
ATOM      8  C   UNL     1     113.842 129.575 136.134  0.00  0.00    +0.000 A 
ATOM      9  C   UNL     1     114.274 129.158 135.568  0.00  0.00    +0.000 A 
ATOM     10  C   UNL     1     114.313 128.334 135.603  0.00  0.00    +0.000 A 
ATOM     11  C   UNL     1     113.072 127.932 137.399  0.00  0.00    +0.000 A 
ATOM     12  C   UNL     1     113.559 126.641 136.851  0.00  0.00    +0.000 A 
ATOM     13  C   UNL     1     113.109 127.075 137.440  0.00  0.00    +0.000 A 
ATOM     14  C   UNL     1     114.372 130.453 135.291  0.00  0.00    +0.000 C 
ENDROOT
BRANCH  12  15
ATOM     15  C   UNL     1     113.600 125.817 136.882  0.00  0.00    +0.000 A 
ATOM     16  C   UNL     1     113.002 125.361 136.543  0.00  0.00    +0.000 A 
ATOM     17  C   UNL     1     114.238 125.450 137.254  0.00  0.00    +0.000 A 
ATOM     18  C   UNL     1     113.044 124.538 136.574  0.00  0.00    +0.000 A 
ATOM     19  C   UNL     1     114.280 124.627 137.285  0.00  0.00    +0.000 A 
ATOM     20  C   UNL     1     113.683 124.171 136.946  0.00  0.00    +0.000 A 
ENDBRANCH  12  15
BRANCH   7  21
ATOM     21  O   UNL     1     113.016 129.584 137.300  0.00  0.00    +0.000 OA
ATOM     22  C   UNL     1     112.232 129.795 137.149  0.00  0.00    +0.000 C 
ENDBRANCH   7  21
BRANCH  13  23
ATOM     23  O   UNL     1     112.714 126.671 138.041  0.00  0.00    +0.000 OA
ATOM     24  C   UNL     1     112.676 126.994 138.799  0.00  0.00    +0.000 C 
ENDBRANCH  13  23
TORSDOF 3
ENDMDL
