MODEL 1
REMARK VINA RESULT:     -10.5      0.000      0.000
REMARK  Name = 74977784
REMARK  5 active torsions:
REMARK  status: ('A' for Active; 'I' for Inactive)
REMARK    1  A    between atoms: O_1  and  C_14
REMARK    2  A    between atoms: O_1  and  C_17
REMARK    3  A    between atoms: O_10  and  C_27
REMARK    4  A    between atoms: C_15  and  C_24
REMARK    5  A    between atoms: C_32  and  C_35
REMARK                            x       y       z     vdW  Elec       q    Type
REMARK                         _______ _______ _______ _____ _____    ______ ____
ROOT
ATOM      1  O   UNL     1     111.607 126.238 136.447  0.00  0.00    +0.000 OA
ATOM      2  O   UNL     1     112.674 123.548 136.450  0.00  0.00    +0.000 OA
ATOM      3  O   UNL     1     111.334 123.769 135.960  0.00  0.00    +0.000 OA
ATOM      4  C   UNL     1     112.948 125.961 136.929  0.00  0.00    +0.000 A 
ATOM      5  C   UNL     1     112.241 125.682 136.609  0.00  0.00    +0.000 A 
ATOM      6  C   UNL     1     113.563 125.436 137.089  0.00  0.00    +0.000 A 
ATOM      7  C   UNL     1     112.149 124.877 136.449  0.00  0.00    +0.000 A 
ATOM      8  C   UNL     1     113.473 124.632 136.929  0.00  0.00    +0.000 A 
ATOM      9  C   UNL     1     112.764 124.352 136.609  0.00  0.00    +0.000 A 
ATOM     10  C   UNL     1     111.417 124.575 136.117  0.00  0.00    +0.000 A 
ATOM     11  C   UNL     1     110.867 125.954 136.114  0.00  0.00    +0.000 A 
ATOM     12  C   UNL     1     110.772 125.116 135.948  0.00  0.00    +0.000 A 
ENDROOT
BRANCH   4  17
ATOM     13  O   UNL     1     113.409 127.255 136.537  0.00  0.00    +0.000 OA
ATOM     14  O   UNL     1     112.578 128.198 138.668  0.00  0.00    +0.000 OA
ATOM     15  O   UNL     1     113.318 129.178 137.565  0.00  0.00    +0.000 OA
ATOM     16  C   UNL     1     112.763 127.080 137.798  0.00  0.00    +0.000 C 
ATOM     17  C   UNL     1     113.040 126.765 137.088  0.00  0.00    +0.000 C 
ATOM     18  C   UNL     1     112.855 127.884 137.958  0.00  0.00    +0.000 C 
ATOM     19  C   UNL     1     113.225 128.374 137.407  0.00  0.00    +0.000 C 
ATOM     20  C   UNL     1     113.502 128.059 136.695  0.00  0.00    +0.000 C 
BRANCH  16  21
ATOM     21  O   UNL     1     112.393 126.590 138.350  0.00  0.00    +0.000 OA
BRANCH  21  26
ATOM     22  O   UNL     1     113.349 126.837 139.383  0.00  0.00    +0.000 OA
ATOM     23  O   UNL     1     111.220 126.368 139.488  0.00  0.00    +0.000 OA
ATOM     24  O   UNL     1     111.589 126.504 141.091  0.00  0.00    +0.000 OA
ATOM     25  O   UNL     1     113.131 126.862 141.555  0.00  0.00    +0.000 OA
ATOM     26  C   UNL     1     112.578 126.658 139.152  0.00  0.00    +0.000 C 
ATOM     27  C   UNL     1     111.991 126.547 139.721  0.00  0.00    +0.000 C 
ATOM     28  C   UNL     1     112.176 126.615 140.522  0.00  0.00    +0.000 C 
ATOM     29  C   UNL     1     112.946 126.794 140.754  0.00  0.00    +0.000 C 
ATOM     30  C   UNL     1     113.533 126.905 140.184  0.00  0.00    +0.000 C 
ATOM     31  C   UNL     1     114.305 127.084 140.416  0.00  0.00    +0.000 C 
ENDBRANCH  21  26
ENDBRANCH  16  21
ENDBRANCH   4  17
BRANCH  11  33
ATOM     32  O   UNL     1     108.410 128.063 135.478  0.00  0.00    +0.000 OA
ATOM     33  C   UNL     1     110.253 126.481 135.955  0.00  0.00    +0.000 A 
ATOM     34  C   UNL     1     110.246 126.905 135.247  0.00  0.00    +0.000 A 
ATOM     35  C   UNL     1     109.646 126.584 136.503  0.00  0.00    +0.000 A 
ATOM     36  C   UNL     1     109.632 127.432 135.089  0.00  0.00    +0.000 A 
ATOM     37  C   UNL     1     109.030 127.111 136.345  0.00  0.00    +0.000 A 
ATOM     38  C   UNL     1     109.024 127.536 135.637  0.00  0.00    +0.000 A 
ENDBRANCH  11  33
BRANCH   6  39
ATOM     39  O   UNL     1     114.272 125.715 137.409  0.00  0.00    +0.000 OA
ATOM     40  C   UNL     1     114.949 125.245 137.386  0.00  0.00    +0.000 C 
ENDBRANCH   6  39
TORSDOF 5
ENDMDL
MODEL 2
REMARK VINA RESULT:     -10.3      1.845      3.873
REMARK  Name = 74977784
REMARK  5 active torsions:
REMARK  status: ('A' for Active; 'I' for Inactive)
REMARK    1  A    between atoms: O_1  and  C_14
REMARK    2  A    between atoms: O_1  and  C_17
REMARK    3  A    between atoms: O_10  and  C_27
REMARK    4  A    between atoms: C_15  and  C_24
REMARK    5  A    between atoms: C_32  and  C_35
REMARK                            x       y       z     vdW  Elec       q    Type
REMARK                         _______ _______ _______ _____ _____    ______ ____
ROOT
ATOM      1  O   UNL     1     112.521 126.864 136.165  0.00  0.00    +0.000 OA
ATOM      2  O   UNL     1     109.769 126.696 135.287  0.00  0.00    +0.000 OA
ATOM      3  O   UNL     1     110.411 125.513 135.807  0.00  0.00    +0.000 OA
ATOM      4  C   UNL     1     111.829 128.024 135.634  0.00  0.00    +0.000 A 
ATOM      5  C   UNL     1     111.815 127.225 135.836  0.00  0.00    +0.000 A 
ATOM      6  C   UNL     1     111.156 128.381 135.317  0.00  0.00    +0.000 A 
ATOM      7  C   UNL     1     111.129 126.781 135.720  0.00  0.00    +0.000 A 
ATOM      8  C   UNL     1     110.470 127.939 135.201  0.00  0.00    +0.000 A 
ATOM      9  C   UNL     1     110.456 127.138 135.403  0.00  0.00    +0.000 A 
ATOM     10  C   UNL     1     111.102 125.948 135.926  0.00  0.00    +0.000 A 
ATOM     11  C   UNL     1     112.514 126.031 136.378  0.00  0.00    +0.000 A 
ATOM     12  C   UNL     1     111.799 125.570 136.257  0.00  0.00    +0.000 A 
ENDROOT
BRANCH   4  17
ATOM     13  O   UNL     1     113.045 128.577 135.127  0.00  0.00    +0.000 OA
ATOM     14  O   UNL     1     113.514 129.579 137.340  0.00  0.00    +0.000 OA
ATOM     15  O   UNL     1     114.574 129.797 136.094  0.00  0.00    +0.000 OA
ATOM     16  C   UNL     1     112.672 128.802 136.487  0.00  0.00    +0.000 C 
ATOM     17  C   UNL     1     112.515 128.468 135.750  0.00  0.00    +0.000 C 
ATOM     18  C   UNL     1     113.358 129.245 136.603  0.00  0.00    +0.000 C 
ATOM     19  C   UNL     1     113.887 129.354 135.980  0.00  0.00    +0.000 C 
ATOM     20  C   UNL     1     113.731 129.020 135.241  0.00  0.00    +0.000 C 
BRANCH  16  21
ATOM     21  O   UNL     1     112.142 128.692 137.110  0.00  0.00    +0.000 OA
BRANCH  21  26
ATOM     22  O   UNL     1     111.838 130.079 137.277  0.00  0.00    +0.000 OA
ATOM     23  O   UNL     1     111.957 128.457 138.733  0.00  0.00    +0.000 OA
ATOM     24  O   UNL     1     111.560 129.725 139.711  0.00  0.00    +0.000 OA
ATOM     25  O   UNL     1     111.349 131.230 139.066  0.00  0.00    +0.000 OA
ATOM     26  C   UNL     1     111.944 129.327 137.600  0.00  0.00    +0.000 C 
ATOM     27  C   UNL     1     111.851 129.209 138.411  0.00  0.00    +0.000 C 
ATOM     28  C   UNL     1     111.653 129.843 138.899  0.00  0.00    +0.000 C 
ATOM     29  C   UNL     1     111.547 130.595 138.577  0.00  0.00    +0.000 C 
ATOM     30  C   UNL     1     111.640 130.713 137.766  0.00  0.00    +0.000 C 
ATOM     31  C   UNL     1     111.534 131.465 137.443  0.00  0.00    +0.000 C 
ENDBRANCH  21  26
ENDBRANCH  16  21
ENDBRANCH   4  17
BRANCH  11  33
ATOM     32  O   UNL     1     115.211 124.613 137.645  0.00  0.00    +0.000 OA
ATOM     33  C   UNL     1     113.188 125.677 136.695  0.00  0.00    +0.000 A 
ATOM     34  C   UNL     1     113.281 125.626 137.513  0.00  0.00    +0.000 A 
ATOM     35  C   UNL     1     113.768 125.374 136.193  0.00  0.00    +0.000 A 
ATOM     36  C   UNL     1     113.955 125.271 137.829  0.00  0.00    +0.000 A 
ATOM     37  C   UNL     1     114.444 125.019 136.510  0.00  0.00    +0.000 A 
ATOM     38  C   UNL     1     114.537 124.968 137.328  0.00  0.00    +0.000 A 
ENDBRANCH  11  33
BRANCH   6  39
ATOM     39  O   UNL     1     111.170 129.182 135.115  0.00  0.00    +0.000 OA
ATOM     40  C   UNL     1     110.593 129.490 134.612  0.00  0.00    +0.000 C 
ENDBRANCH   6  39
TORSDOF 5
ENDMDL
MODEL 3
REMARK VINA RESULT:     -10.3      2.164      4.057
REMARK  Name = 74977784
REMARK  5 active torsions:
REMARK  status: ('A' for Active; 'I' for Inactive)
REMARK    1  A    between atoms: O_1  and  C_14
REMARK    2  A    between atoms: O_1  and  C_17
REMARK    3  A    between atoms: O_10  and  C_27
REMARK    4  A    between atoms: C_15  and  C_24
REMARK    5  A    between atoms: C_32  and  C_35
REMARK                            x       y       z     vdW  Elec       q    Type
REMARK                         _______ _______ _______ _____ _____    ______ ____
ROOT
ATOM      1  O   UNL     1     110.522 127.270 135.857  0.00  0.00    +0.000 OA
ATOM      2  O   UNL     1     107.926 128.545 135.796  0.00  0.00    +0.000 OA
ATOM      3  O   UNL     1     108.008 127.142 136.119  0.00  0.00    +0.000 OA
ATOM      4  C   UNL     1     110.383 128.679 135.537  0.00  0.00    +0.000 A 
ATOM      5  C   UNL     1     110.028 127.963 135.739  0.00  0.00    +0.000 A 
ATOM      6  C   UNL     1     109.919 129.351 135.422  0.00  0.00    +0.000 A 
ATOM      7  C   UNL     1     109.209 127.917 135.826  0.00  0.00    +0.000 A 
ATOM      8  C   UNL     1     109.100 129.307 135.508  0.00  0.00    +0.000 A 
ATOM      9  C   UNL     1     108.745 128.590 135.710  0.00  0.00    +0.000 A 
ATOM     10  C   UNL     1     108.828 127.177 136.035  0.00  0.00    +0.000 A 
ATOM     11  C   UNL     1     110.159 126.520 136.067  0.00  0.00    +0.000 A 
ATOM     12  C   UNL     1     109.306 126.474 136.157  0.00  0.00    +0.000 A 
ENDROOT
BRANCH   4  17
ATOM     13  O   UNL     1     111.541 128.677 134.700  0.00  0.00    +0.000 OA
ATOM     14  O   UNL     1     112.984 128.956 136.691  0.00  0.00    +0.000 OA
ATOM     15  O   UNL     1     113.660 128.860 135.189  0.00  0.00    +0.000 OA
ATOM     16  C   UNL     1     111.683 128.818 136.114  0.00  0.00    +0.000 C 
ATOM     17  C   UNL     1     111.203 128.724 135.451  0.00  0.00    +0.000 C 
ATOM     18  C   UNL     1     112.503 128.863 136.027  0.00  0.00    +0.000 C 
ATOM     19  C   UNL     1     112.841 128.815 135.276  0.00  0.00    +0.000 C 
ATOM     20  C   UNL     1     112.360 128.722 134.612  0.00  0.00    +0.000 C 
BRANCH  16  21
ATOM     21  O   UNL     1     111.345 128.865 136.865  0.00  0.00    +0.000 OA
BRANCH  21  26
ATOM     22  O   UNL     1     111.791 130.198 137.125  0.00  0.00    +0.000 OA
ATOM     23  O   UNL     1     111.475 128.508 138.471  0.00  0.00    +0.000 OA
ATOM     24  O   UNL     1     111.986 129.663 139.534  0.00  0.00    +0.000 OA
ATOM     25  O   UNL     1     112.367 131.174 138.991  0.00  0.00    +0.000 OA
ATOM     26  C   UNL     1     111.601 129.443 137.397  0.00  0.00    +0.000 C 
ATOM     27  C   UNL     1     111.666 129.264 138.200  0.00  0.00    +0.000 C 
ATOM     28  C   UNL     1     111.921 129.841 138.731  0.00  0.00    +0.000 C 
ATOM     29  C   UNL     1     112.111 130.596 138.460  0.00  0.00    +0.000 C 
ATOM     30  C   UNL     1     112.046 130.774 137.657  0.00  0.00    +0.000 C 
ATOM     31  C   UNL     1     112.237 131.531 137.385  0.00  0.00    +0.000 C 
ENDBRANCH  21  26
ENDBRANCH  16  21
ENDBRANCH   4  17
BRANCH  11  33
ATOM     32  O   UNL     1     112.026 123.838 136.527  0.00  0.00    +0.000 OA
ATOM     33  C   UNL     1     110.626 125.849 136.182  0.00  0.00    +0.000 A 
ATOM     34  C   UNL     1     110.858 125.393 135.535  0.00  0.00    +0.000 A 
ATOM     35  C   UNL     1     110.859 125.636 136.943  0.00  0.00    +0.000 A 
ATOM     36  C   UNL     1     111.325 124.723 135.651  0.00  0.00    +0.000 A 
ATOM     37  C   UNL     1     111.326 124.965 137.059  0.00  0.00    +0.000 A 
ATOM     38  C   UNL     1     111.559 124.508 136.412  0.00  0.00    +0.000 A 
ENDBRANCH  11  33
BRANCH   6  39
ATOM     39  O   UNL     1     110.274 130.069 135.220  0.00  0.00    +0.000 OA
ATOM     40  C   UNL     1     109.827 130.666 134.868  0.00  0.00    +0.000 C 
ENDBRANCH   6  39
TORSDOF 5
ENDMDL
MODEL 4
REMARK VINA RESULT:     -10.2      1.304      3.159
REMARK  Name = 74977784
REMARK  5 active torsions:
REMARK  status: ('A' for Active; 'I' for Inactive)
REMARK    1  A    between atoms: O_1  and  C_14
REMARK    2  A    between atoms: O_1  and  C_17
REMARK    3  A    between atoms: O_10  and  C_27
REMARK    4  A    between atoms: C_15  and  C_24
REMARK    5  A    between atoms: C_32  and  C_35
REMARK                            x       y       z     vdW  Elec       q    Type
REMARK                         _______ _______ _______ _____ _____    ______ ____
ROOT
ATOM      1  O   UNL     1     112.788 127.532 136.074  0.00  0.00    +0.000 OA
ATOM      2  O   UNL     1     110.170 126.821 135.066  0.00  0.00    +0.000 OA
ATOM      3  O   UNL     1     110.657 128.163 134.860  0.00  0.00    +0.000 OA
ATOM      4  C   UNL     1     112.250 126.196 136.253  0.00  0.00    +0.000 A 
ATOM      5  C   UNL     1     112.156 126.961 135.960  0.00  0.00    +0.000 A 
ATOM      6  C   UNL     1     111.650 125.639 136.150  0.00  0.00    +0.000 A 
ATOM      7  C   UNL     1     111.463 127.170 135.564  0.00  0.00    +0.000 A 
ATOM      8  C   UNL     1     110.957 125.846 135.754  0.00  0.00    +0.000 A 
ATOM      9  C   UNL     1     110.863 126.613 135.461  0.00  0.00    +0.000 A 
ATOM     10  C   UNL     1     111.354 127.963 135.255  0.00  0.00    +0.000 A 
ATOM     11  C   UNL     1     112.697 128.331 135.771  0.00  0.00    +0.000 A 
ATOM     12  C   UNL     1     111.975 128.548 135.359  0.00  0.00    +0.000 A 
ENDROOT
BRANCH   4  17
ATOM     13  O   UNL     1     113.635 125.847 136.222  0.00  0.00    +0.000 OA
ATOM     14  O   UNL     1     113.639 125.637 138.687  0.00  0.00    +0.000 OA
ATOM     15  O   UNL     1     115.023 125.359 137.834  0.00  0.00    +0.000 OA
ATOM     16  C   UNL     1     112.944 125.916 137.470  0.00  0.00    +0.000 C 
ATOM     17  C   UNL     1     112.943 125.986 136.649  0.00  0.00    +0.000 C 
ATOM     18  C   UNL     1     113.638 125.707 137.866  0.00  0.00    +0.000 C 
ATOM     19  C   UNL     1     114.330 125.568 137.439  0.00  0.00    +0.000 C 
ATOM     20  C   UNL     1     114.329 125.638 136.616  0.00  0.00    +0.000 C 
BRANCH  16  21
ATOM     21  O   UNL     1     112.252 126.056 137.897  0.00  0.00    +0.000 OA
BRANCH  21  26
ATOM     22  O   UNL     1     112.768 127.132 138.683  0.00  0.00    +0.000 OA
ATOM     23  O   UNL     1     111.348 125.550 139.181  0.00  0.00    +0.000 OA
ATOM     24  O   UNL     1     111.411 126.374 140.610  0.00  0.00    +0.000 OA
ATOM     25  O   UNL     1     112.379 127.702 140.754  0.00  0.00    +0.000 OA
ATOM     26  C   UNL     1     112.284 126.468 138.612  0.00  0.00    +0.000 C 
ATOM     27  C   UNL     1     111.832 126.215 139.254  0.00  0.00    +0.000 C 
ATOM     28  C   UNL     1     111.863 126.626 139.968  0.00  0.00    +0.000 C 
ATOM     29  C   UNL     1     112.347 127.290 140.040  0.00  0.00    +0.000 C 
ATOM     30  C   UNL     1     112.799 127.543 139.398  0.00  0.00    +0.000 C 
ATOM     31  C   UNL     1     113.283 128.208 139.470  0.00  0.00    +0.000 C 
ENDBRANCH  21  26
ENDBRANCH  16  21
ENDBRANCH   4  17
BRANCH  11  33
ATOM     32  O   UNL     1     115.102 130.552 136.189  0.00  0.00    +0.000 OA
ATOM     33  C   UNL     1     113.298 128.886 135.875  0.00  0.00    +0.000 A 
ATOM     34  C   UNL     1     113.978 128.851 135.408  0.00  0.00    +0.000 A 
ATOM     35  C   UNL     1     113.220 129.476 136.446  0.00  0.00    +0.000 A 
ATOM     36  C   UNL     1     114.579 129.407 135.513  0.00  0.00    +0.000 A 
ATOM     37  C   UNL     1     113.822 130.032 136.552  0.00  0.00    +0.000 A 
ATOM     38  C   UNL     1     114.501 129.997 136.085  0.00  0.00    +0.000 A 
ENDBRANCH  11  33
BRANCH   6  39
ATOM     39  O   UNL     1     111.744 124.872 136.443  0.00  0.00    +0.000 OA
ATOM     40  C   UNL     1     111.310 124.250 136.117  0.00  0.00    +0.000 C 
ENDBRANCH   6  39
TORSDOF 5
ENDMDL
MODEL 5
REMARK VINA RESULT:     -10.1      1.479      4.303
REMARK  Name = 74977784
REMARK  5 active torsions:
REMARK  status: ('A' for Active; 'I' for Inactive)
REMARK    1  A    between atoms: O_1  and  C_14
REMARK    2  A    between atoms: O_1  and  C_17
REMARK    3  A    between atoms: O_10  and  C_27
REMARK    4  A    between atoms: C_15  and  C_24
REMARK    5  A    between atoms: C_32  and  C_35
REMARK                            x       y       z     vdW  Elec       q    Type
REMARK                         _______ _______ _______ _____ _____    ______ ____
ROOT
ATOM      1  O   UNL     1     112.711 126.185 138.674  0.00  0.00    +0.000 OA
ATOM      2  O   UNL     1     114.371 124.512 136.996  0.00  0.00    +0.000 OA
ATOM      3  O   UNL     1     115.000 125.352 137.986  0.00  0.00    +0.000 OA
ATOM      4  C   UNL     1     112.130 125.321 137.663  0.00  0.00    +0.000 A 
ATOM      5  C   UNL     1     112.802 125.607 138.045  0.00  0.00    +0.000 A 
ATOM      6  C   UNL     1     112.205 124.766 137.057  0.00  0.00    +0.000 A 
ATOM      7  C   UNL     1     113.550 125.337 137.824  0.00  0.00    +0.000 A 
ATOM      8  C   UNL     1     112.952 124.496 136.835  0.00  0.00    +0.000 A 
ATOM      9  C   UNL     1     113.624 124.782 137.218  0.00  0.00    +0.000 A 
ATOM     10  C   UNL     1     114.257 125.627 138.215  0.00  0.00    +0.000 A 
ATOM     11  C   UNL     1     113.407 126.487 139.077  0.00  0.00    +0.000 A 
ATOM     12  C   UNL     1     114.186 126.206 138.846  0.00  0.00    +0.000 A 
ENDROOT
BRANCH   4  17
ATOM     13  O   UNL     1     111.041 125.328 138.588  0.00  0.00    +0.000 OA
ATOM     14  O   UNL     1     109.821 126.924 137.144  0.00  0.00    +0.000 OA
ATOM     15  O   UNL     1     109.139 126.397 138.551  0.00  0.00    +0.000 OA
ATOM     16  C   UNL     1     110.975 126.122 137.403  0.00  0.00    +0.000 C 
ATOM     17  C   UNL     1     111.382 125.591 137.884  0.00  0.00    +0.000 C 
ATOM     18  C   UNL     1     110.227 126.392 137.625  0.00  0.00    +0.000 C 
ATOM     19  C   UNL     1     109.887 126.129 138.329  0.00  0.00    +0.000 C 
ATOM     20  C   UNL     1     110.294 125.596 138.811  0.00  0.00    +0.000 C 
BRANCH  16  21
ATOM     21  O   UNL     1     111.316 126.386 136.699  0.00  0.00    +0.000 OA
BRANCH  21  26
ATOM     22  O   UNL     1     111.341 127.763 137.078  0.00  0.00    +0.000 OA
ATOM     23  O   UNL     1     111.104 126.823 135.123  0.00  0.00    +0.000 OA
ATOM     24  O   UNL     1     111.023 128.419 134.713  0.00  0.00    +0.000 OA
ATOM     25  O   UNL     1     111.153 129.578 135.880  0.00  0.00    +0.000 OA
ATOM     26  C   UNL     1     111.275 127.184 136.494  0.00  0.00    +0.000 C 
ATOM     27  C   UNL     1     111.169 127.403 135.706  0.00  0.00    +0.000 C 
ATOM     28  C   UNL     1     111.129 128.201 135.501  0.00  0.00    +0.000 C 
ATOM     29  C   UNL     1     111.194 128.780 136.084  0.00  0.00    +0.000 C 
ATOM     30  C   UNL     1     111.300 128.561 136.873  0.00  0.00    +0.000 C 
ATOM     31  C   UNL     1     111.365 129.141 137.457  0.00  0.00    +0.000 C 
ENDBRANCH  21  26
ENDBRANCH  16  21
ENDBRANCH   4  17
BRANCH  11  33
ATOM     32  O   UNL     1     113.096 128.710 141.496  0.00  0.00    +0.000 OA
ATOM     33  C   UNL     1     113.330 127.043 139.682  0.00  0.00    +0.000 A 
ATOM     34  C   UNL     1     113.067 126.806 140.428  0.00  0.00    +0.000 A 
ATOM     35  C   UNL     1     113.514 127.834 139.541  0.00  0.00    +0.000 A 
ATOM     36  C   UNL     1     112.990 127.363 141.032  0.00  0.00    +0.000 A 
ATOM     37  C   UNL     1     113.436 128.391 140.146  0.00  0.00    +0.000 A 
ATOM     38  C   UNL     1     113.174 128.155 140.891  0.00  0.00    +0.000 A 
ENDBRANCH  11  33
BRANCH   6  39
ATOM     39  O   UNL     1     111.532 124.480 136.674  0.00  0.00    +0.000 OA
ATOM     40  C   UNL     1     111.568 123.775 136.247  0.00  0.00    +0.000 C 
ENDBRANCH   6  39
TORSDOF 5
ENDMDL
MODEL 6
REMARK VINA RESULT:      -9.9      1.509      4.671
REMARK  Name = 74977784
REMARK  5 active torsions:
REMARK  status: ('A' for Active; 'I' for Inactive)
REMARK    1  A    between atoms: O_1  and  C_14
REMARK    2  A    between atoms: O_1  and  C_17
REMARK    3  A    between atoms: O_10  and  C_27
REMARK    4  A    between atoms: C_15  and  C_24
REMARK    5  A    between atoms: C_32  and  C_35
REMARK                            x       y       z     vdW  Elec       q    Type
REMARK                         _______ _______ _______ _____ _____    ______ ____
ROOT
ATOM      1  O   UNL     1     112.760 127.640 137.170  0.00  0.00    +0.000 OA
ATOM      2  O   UNL     1     113.656 130.038 135.821  0.00  0.00    +0.000 OA
ATOM      3  O   UNL     1     114.241 128.771 135.457  0.00  0.00    +0.000 OA
ATOM      4  C   UNL     1     112.204 128.941 137.498  0.00  0.00    +0.000 A 
ATOM      5  C   UNL     1     112.727 128.490 137.048  0.00  0.00    +0.000 A 
ATOM      6  C   UNL     1     112.164 129.757 137.389  0.00  0.00    +0.000 A 
ATOM      7  C   UNL     1     113.212 128.855 136.488  0.00  0.00    +0.000 A 
ATOM      8  C   UNL     1     112.648 130.124 136.830  0.00  0.00    +0.000 A 
ATOM      9  C   UNL     1     113.172 129.672 136.380  0.00  0.00    +0.000 A 
ATOM     10  C   UNL     1     113.761 128.397 136.014  0.00  0.00    +0.000 A 
ATOM     11  C   UNL     1     113.303 127.164 136.704  0.00  0.00    +0.000 A 
ATOM     12  C   UNL     1     113.807 127.546 136.122  0.00  0.00    +0.000 A 
ENDROOT
BRANCH   4  17
ATOM     13  O   UNL     1     112.043 128.300 138.765  0.00  0.00    +0.000 OA
ATOM     14  O   UNL     1     109.623 128.030 138.321  0.00  0.00    +0.000 OA
ATOM     15  O   UNL     1     110.269 127.480 139.737  0.00  0.00    +0.000 OA
ATOM     16  C   UNL     1     110.914 128.485 137.910  0.00  0.00    +0.000 C 
ATOM     17  C   UNL     1     111.720 128.575 138.057  0.00  0.00    +0.000 C 
ATOM     18  C   UNL     1     110.429 128.120 138.469  0.00  0.00    +0.000 C 
ATOM     19  C   UNL     1     110.752 127.845 139.177  0.00  0.00    +0.000 C 
ATOM     20  C   UNL     1     111.559 127.935 139.325  0.00  0.00    +0.000 C 
BRANCH  16  21
ATOM     21  O   UNL     1     110.591 128.760 137.202  0.00  0.00    +0.000 OA
BRANCH  21  26
ATOM     22  O   UNL     1     110.163 127.491 136.704  0.00  0.00    +0.000 OA
ATOM     23  O   UNL     1     109.240 129.465 136.568  0.00  0.00    +0.000 OA
ATOM     24  O   UNL     1     108.137 128.547 135.753  0.00  0.00    +0.000 OA
ATOM     25  O   UNL     1     108.384 126.926 135.572  0.00  0.00    +0.000 OA
ATOM     26  C   UNL     1     110.039 128.302 136.794  0.00  0.00    +0.000 C 
ATOM     27  C   UNL     1     109.363 128.654 136.477  0.00  0.00    +0.000 C 
ATOM     28  C   UNL     1     108.812 128.195 136.070  0.00  0.00    +0.000 C 
ATOM     29  C   UNL     1     108.936 127.385 135.979  0.00  0.00    +0.000 C 
ATOM     30  C   UNL     1     109.611 127.033 136.296  0.00  0.00    +0.000 C 
ATOM     31  C   UNL     1     109.735 126.222 136.206  0.00  0.00    +0.000 C 
ENDBRANCH  21  26
ENDBRANCH  16  21
ENDBRANCH   4  17
BRANCH  11  33
ATOM     32  O   UNL     1     113.454 123.898 137.148  0.00  0.00    +0.000 OA
ATOM     33  C   UNL     1     113.341 126.348 136.815  0.00  0.00    +0.000 A 
ATOM     34  C   UNL     1     112.931 125.843 136.307  0.00  0.00    +0.000 A 
ATOM     35  C   UNL     1     113.788 126.036 137.434  0.00  0.00    +0.000 A 
ATOM     36  C   UNL     1     112.969 125.027 136.418  0.00  0.00    +0.000 A 
ATOM     37  C   UNL     1     113.826 125.219 137.545  0.00  0.00    +0.000 A 
ATOM     38  C   UNL     1     113.416 124.714 137.037  0.00  0.00    +0.000 A 
ENDBRANCH  11  33
BRANCH   6  39
ATOM     39  O   UNL     1     111.640 130.209 137.840  0.00  0.00    +0.000 OA
ATOM     40  C   UNL     1     111.766 131.019 137.930  0.00  0.00    +0.000 C 
ENDBRANCH   6  39
TORSDOF 5
ENDMDL
MODEL 7
REMARK VINA RESULT:      -9.9      1.594      3.169
REMARK  Name = 74977784
REMARK  5 active torsions:
REMARK  status: ('A' for Active; 'I' for Inactive)
REMARK    1  A    between atoms: O_1  and  C_14
REMARK    2  A    between atoms: O_1  and  C_17
REMARK    3  A    between atoms: O_10  and  C_27
REMARK    4  A    between atoms: C_15  and  C_24
REMARK    5  A    between atoms: C_32  and  C_35
REMARK                            x       y       z     vdW  Elec       q    Type
REMARK                         _______ _______ _______ _____ _____    ______ ____
ROOT
ATOM      1  O   UNL     1     112.771 126.577 136.404  0.00  0.00    +0.000 OA
ATOM      2  O   UNL     1     114.391 124.273 137.067  0.00  0.00    +0.000 OA
ATOM      3  O   UNL     1     115.025 125.564 136.951  0.00  0.00    +0.000 OA
ATOM      4  C   UNL     1     112.184 125.256 136.533  0.00  0.00    +0.000 A 
ATOM      5  C   UNL     1     112.853 125.737 136.561  0.00  0.00    +0.000 A 
ATOM      6  C   UNL     1     112.250 124.447 136.682  0.00  0.00    +0.000 A 
ATOM      7  C   UNL     1     113.589 125.410 136.739  0.00  0.00    +0.000 A 
ATOM      8  C   UNL     1     112.986 124.119 136.860  0.00  0.00    +0.000 A 
ATOM      9  C   UNL     1     113.656 124.601 136.889  0.00  0.00    +0.000 A 
ATOM     10  C   UNL     1     114.293 125.900 136.772  0.00  0.00    +0.000 A 
ATOM     11  C   UNL     1     113.464 127.084 136.432  0.00  0.00    +0.000 A 
ATOM     12  C   UNL     1     114.231 126.743 136.617  0.00  0.00    +0.000 A 
ENDROOT
BRANCH   4  17
ATOM     13  O   UNL     1     111.261 125.779 135.575  0.00  0.00    +0.000 OA
ATOM     14  O   UNL     1     109.611 126.172 137.377  0.00  0.00    +0.000 OA
ATOM     15  O   UNL     1     109.239 126.563 135.818  0.00  0.00    +0.000 OA
ATOM     16  C   UNL     1     110.897 125.714 136.955  0.00  0.00    +0.000 C 
ATOM     17  C   UNL     1     111.447 125.583 136.355  0.00  0.00    +0.000 C 
ATOM     18  C   UNL     1     110.161 126.041 136.777  0.00  0.00    +0.000 C 
ATOM     19  C   UNL     1     109.975 126.237 135.997  0.00  0.00    +0.000 C 
ATOM     20  C   UNL     1     110.525 126.105 135.396  0.00  0.00    +0.000 C 
BRANCH  16  21
ATOM     21  O   UNL     1     111.084 125.518 137.734  0.00  0.00    +0.000 OA
BRANCH  21  26
ATOM     22  O   UNL     1     110.910 126.847 138.229  0.00  0.00    +0.000 OA
ATOM     23  O   UNL     1     110.626 124.913 139.200  0.00  0.00    +0.000 OA
ATOM     24  O   UNL     1     110.224 125.940 140.427  0.00  0.00    +0.000 OA
ATOM     25  O   UNL     1     110.278 127.572 140.189  0.00  0.00    +0.000 OA
ATOM     26  C   UNL     1     110.882 126.032 138.349  0.00  0.00    +0.000 C 
ATOM     27  C   UNL     1     110.654 125.729 139.081  0.00  0.00    +0.000 C 
ATOM     28  C   UNL     1     110.452 126.242 139.694  0.00  0.00    +0.000 C 
ATOM     29  C   UNL     1     110.480 127.058 139.576  0.00  0.00    +0.000 C 
ATOM     30  C   UNL     1     110.708 127.360 138.843  0.00  0.00    +0.000 C 
ATOM     31  C   UNL     1     110.736 128.177 138.724  0.00  0.00    +0.000 C 
ENDBRANCH  21  26
ENDBRANCH  16  21
ENDBRANCH   4  17
BRANCH  11  33
ATOM     32  O   UNL     1     113.187 130.317 135.832  0.00  0.00    +0.000 OA
ATOM     33  C   UNL     1     113.395 127.892 136.282  0.00  0.00    +0.000 A 
ATOM     34  C   UNL     1     113.457 128.434 136.902  0.00  0.00    +0.000 A 
ATOM     35  C   UNL     1     113.264 128.159 135.513  0.00  0.00    +0.000 A 
ATOM     36  C   UNL     1     113.388 129.242 136.751  0.00  0.00    +0.000 A 
ATOM     37  C   UNL     1     113.194 128.968 135.362  0.00  0.00    +0.000 A 
ATOM     38  C   UNL     1     113.256 129.509 135.981  0.00  0.00    +0.000 A 
ENDBRANCH  11  33
BRANCH   6  39
ATOM     39  O   UNL     1     111.580 123.966 136.653  0.00  0.00    +0.000 OA
ATOM     40  C   UNL     1     111.663 123.147 136.594  0.00  0.00    +0.000 C 
ENDBRANCH   6  39
TORSDOF 5
ENDMDL
MODEL 8
REMARK VINA RESULT:      -9.9      1.495      4.563
REMARK  Name = 74977784
REMARK  5 active torsions:
REMARK  status: ('A' for Active; 'I' for Inactive)
REMARK    1  A    between atoms: O_1  and  C_14
REMARK    2  A    between atoms: O_1  and  C_17
REMARK    3  A    between atoms: O_10  and  C_27
REMARK    4  A    between atoms: C_15  and  C_24
REMARK    5  A    between atoms: C_32  and  C_35
REMARK                            x       y       z     vdW  Elec       q    Type
REMARK                         _______ _______ _______ _____ _____    ______ ____
ROOT
ATOM      1  O   UNL     1     112.745 127.181 137.717  0.00  0.00    +0.000 OA
ATOM      2  O   UNL     1     112.095 128.247 140.328  0.00  0.00    +0.000 OA
ATOM      3  O   UNL     1     112.554 126.883 140.224  0.00  0.00    +0.000 OA
ATOM      4  C   UNL     1     112.279 128.546 137.878  0.00  0.00    +0.000 A 
ATOM      5  C   UNL     1     112.477 127.823 138.221  0.00  0.00    +0.000 A 
ATOM      6  C   UNL     1     112.020 129.170 138.352  0.00  0.00    +0.000 A 
ATOM      7  C   UNL     1     112.416 127.723 139.038  0.00  0.00    +0.000 A 
ATOM      8  C   UNL     1     111.959 129.071 139.168  0.00  0.00    +0.000 A 
ATOM      9  C   UNL     1     112.157 128.346 139.511  0.00  0.00    +0.000 A 
ATOM     10  C   UNL     1     112.618 126.974 139.406  0.00  0.00    +0.000 A 
ATOM     11  C   UNL     1     112.953 126.424 138.068  0.00  0.00    +0.000 A 
ATOM     12  C   UNL     1     112.889 126.321 138.919  0.00  0.00    +0.000 A 
ENDROOT
BRANCH   4  17
ATOM     13  O   UNL     1     113.012 129.001 136.739  0.00  0.00    +0.000 OA
ATOM     14  O   UNL     1     111.182 128.242 135.257  0.00  0.00    +0.000 OA
ATOM     15  O   UNL     1     112.526 128.950 134.612  0.00  0.00    +0.000 OA
ATOM     16  C   UNL     1     111.731 128.394 136.567  0.00  0.00    +0.000 C 
ATOM     17  C   UNL     1     112.340 128.647 137.061  0.00  0.00    +0.000 C 
ATOM     18  C   UNL     1     111.792 128.495 135.751  0.00  0.00    +0.000 C 
ATOM     19  C   UNL     1     112.464 128.849 135.428  0.00  0.00    +0.000 C 
ATOM     20  C   UNL     1     113.074 129.103 135.923  0.00  0.00    +0.000 C 
BRANCH  16  21
ATOM     21  O   UNL     1     111.059 128.040 136.890  0.00  0.00    +0.000 OA
BRANCH  21  26
ATOM     22  O   UNL     1     110.144 129.033 136.421  0.00  0.00    +0.000 OA
ATOM     23  O   UNL     1     109.893 126.885 136.720  0.00  0.00    +0.000 OA
ATOM     24  O   UNL     1     108.395 127.301 136.166  0.00  0.00    +0.000 OA
ATOM     25  O   UNL     1     108.063 128.871 135.782  0.00  0.00    +0.000 OA
ATOM     26  C   UNL     1     110.309 128.248 136.613  0.00  0.00    +0.000 C 
ATOM     27  C   UNL     1     109.726 127.670 136.528  0.00  0.00    +0.000 C 
ATOM     28  C   UNL     1     108.978 127.878 136.251  0.00  0.00    +0.000 C 
ATOM     29  C   UNL     1     108.812 128.663 136.059  0.00  0.00    +0.000 C 
ATOM     30  C   UNL     1     109.395 129.240 136.144  0.00  0.00    +0.000 C 
ATOM     31  C   UNL     1     109.230 130.026 135.952  0.00  0.00    +0.000 C 
ENDBRANCH  21  26
ENDBRANCH  16  21
ENDBRANCH   4  17
BRANCH  11  33
ATOM     32  O   UNL     1     113.987 123.936 136.164  0.00  0.00    +0.000 OA
ATOM     33  C   UNL     1     113.212 125.802 137.592  0.00  0.00    +0.000 A 
ATOM     34  C   UNL     1     114.004 125.756 137.368  0.00  0.00    +0.000 A 
ATOM     35  C   UNL     1     112.677 125.227 137.340  0.00  0.00    +0.000 A 
ATOM     36  C   UNL     1     114.262 125.134 136.892  0.00  0.00    +0.000 A 
ATOM     37  C   UNL     1     112.935 124.604 136.864  0.00  0.00    +0.000 A 
ATOM     38  C   UNL     1     113.728 124.558 136.640  0.00  0.00    +0.000 A 
ENDBRANCH  11  33
BRANCH   6  39
ATOM     39  O   UNL     1     111.822 129.895 138.009  0.00  0.00    +0.000 OA
ATOM     40  C   UNL     1     111.793 130.577 138.472  0.00  0.00    +0.000 C 
ENDBRANCH   6  39
TORSDOF 5
ENDMDL
MODEL 9
REMARK VINA RESULT:      -9.9      1.727      4.707
REMARK  Name = 74977784
REMARK  5 active torsions:
REMARK  status: ('A' for Active; 'I' for Inactive)
REMARK    1  A    between atoms: O_1  and  C_14
REMARK    2  A    between atoms: O_1  and  C_17
REMARK    3  A    between atoms: O_10  and  C_27
REMARK    4  A    between atoms: C_15  and  C_24
REMARK    5  A    between atoms: C_32  and  C_35
REMARK                            x       y       z     vdW  Elec       q    Type
REMARK                         _______ _______ _______ _____ _____    ______ ____
ROOT
ATOM      1  O   UNL     1     112.941 127.177 138.442  0.00  0.00    +0.000 OA
ATOM      2  O   UNL     1     113.807 128.235 140.993  0.00  0.00    +0.000 OA
ATOM      3  O   UNL     1     114.325 126.963 140.552  0.00  0.00    +0.000 OA
ATOM      4  C   UNL     1     112.451 128.452 138.933  0.00  0.00    +0.000 A 
ATOM      5  C   UNL     1     112.926 127.787 139.046  0.00  0.00    +0.000 A 
ATOM      6  C   UNL     1     112.428 129.045 139.507  0.00  0.00    +0.000 A 
ATOM      7  C   UNL     1     113.378 127.714 139.733  0.00  0.00    +0.000 A 
ATOM      8  C   UNL     1     112.880 128.973 140.193  0.00  0.00    +0.000 A 
ATOM      9  C   UNL     1     113.355 128.307 140.306  0.00  0.00    +0.000 A 
ATOM     10  C   UNL     1     113.876 127.027 139.862  0.00  0.00    +0.000 A 
ATOM     11  C   UNL     1     113.434 126.481 138.554  0.00  0.00    +0.000 A 
ATOM     12  C   UNL     1     113.904 126.406 139.269  0.00  0.00    +0.000 A 
ENDROOT
BRANCH   4  17
ATOM     13  O   UNL     1     111.308 128.082 138.160  0.00  0.00    +0.000 OA
ATOM     14  O   UNL     1     112.021 129.628 136.364  0.00  0.00    +0.000 OA
ATOM     15  O   UNL     1     110.640 128.742 136.190  0.00  0.00    +0.000 OA
ATOM     16  C   UNL     1     112.236 129.040 137.649  0.00  0.00    +0.000 C 
ATOM     17  C   UNL     1     111.999 128.525 138.247  0.00  0.00    +0.000 C 
ATOM     18  C   UNL     1     111.784 129.113 136.963  0.00  0.00    +0.000 C 
ATOM     19  C   UNL     1     111.093 128.670 136.875  0.00  0.00    +0.000 C 
ATOM     20  C   UNL     1     110.855 128.154 137.474  0.00  0.00    +0.000 C 
BRANCH  16  21
ATOM     21  O   UNL     1     112.926 129.483 137.736  0.00  0.00    +0.000 OA
BRANCH  21  26
ATOM     22  O   UNL     1     113.593 128.936 136.597  0.00  0.00    +0.000 OA
ATOM     23  O   UNL     1     113.656 130.938 137.465  0.00  0.00    +0.000 OA
ATOM     24  O   UNL     1     114.687 131.119 136.190  0.00  0.00    +0.000 OA
ATOM     25  O   UNL     1     114.990 129.844 135.186  0.00  0.00    +0.000 OA
ATOM     26  C   UNL     1     113.443 129.574 137.098  0.00  0.00    +0.000 C 
ATOM     27  C   UNL     1     113.807 130.301 136.962  0.00  0.00    +0.000 C 
ATOM     28  C   UNL     1     114.323 130.391 136.325  0.00  0.00    +0.000 C 
ATOM     29  C   UNL     1     114.474 129.755 135.824  0.00  0.00    +0.000 C 
ATOM     30  C   UNL     1     114.109 129.027 135.960  0.00  0.00    +0.000 C 
ATOM     31  C   UNL     1     114.260 128.389 135.458  0.00  0.00    +0.000 C 
ENDBRANCH  21  26
ENDBRANCH  16  21
ENDBRANCH   4  17
BRANCH  11  33
ATOM     32  O   UNL     1     113.519 124.117 136.253  0.00  0.00    +0.000 OA
ATOM     33  C   UNL     1     113.455 125.890 137.979  0.00  0.00    +0.000 A 
ATOM     34  C   UNL     1     112.788 125.424 137.841  0.00  0.00    +0.000 A 
ATOM     35  C   UNL     1     114.143 125.765 137.542  0.00  0.00    +0.000 A 
ATOM     36  C   UNL     1     112.810 124.833 137.266  0.00  0.00    +0.000 A 
ATOM     37  C   UNL     1     114.165 125.173 136.966  0.00  0.00    +0.000 A 
ATOM     38  C   UNL     1     113.498 124.708 136.828  0.00  0.00    +0.000 A 
ENDBRANCH  11  33
BRANCH   6  39
ATOM     39  O   UNL     1     111.953 129.710 139.394  0.00  0.00    +0.000 OA
ATOM     40  C   UNL     1     111.731 130.173 140.039  0.00  0.00    +0.000 C 
ENDBRANCH   6  39
TORSDOF 5
ENDMDL
