MODEL 1
REMARK VINA RESULT:     -10.0      0.000      0.000
REMARK  Name = 44259598
REMARK  8 active torsions:
REMARK  status: ('A' for Active; 'I' for Inactive)
REMARK    1  A    between atoms: O_1  and  C_18
REMARK    2  A    between atoms: O_1  and  C_21
REMARK    3  A    between atoms: O_6  and  C_26
REMARK    4  A    between atoms: O_6  and  C_30
REMARK    5  A    between atoms: O_15  and  C_41
REMARK    6  A    between atoms: C_22  and  C_28
REMARK    7  A    between atoms: C_27  and  C_29
REMARK    8  A    between atoms: C_31  and  C_34
REMARK                            x       y       z     vdW  Elec       q    Type
REMARK                         _______ _______ _______ _____ _____    ______ ____
ROOT
ATOM      1  O   UNL     1     111.856 128.437 136.027  0.00  0.00    +0.000 OA
ENDROOT
BRANCH   1   5
ATOM      2  O   UNL     1     113.717 127.380 136.454  0.00  0.00    +0.000 OA
ATOM      3  O   UNL     1     111.320 126.877 136.092  0.00  0.00    +0.000 OA
ATOM      4  O   UNL     1     111.558 125.466 136.275  0.00  0.00    +0.000 OA
ATOM      5  C   UNL     1     112.387 127.824 136.180  0.00  0.00    +0.000 A 
ATOM      6  C   UNL     1     113.186 127.992 136.301  0.00  0.00    +0.000 A 
ATOM      7  C   UNL     1     112.119 127.045 136.213  0.00  0.00    +0.000 A 
ATOM      8  C   UNL     1     112.650 126.433 136.366  0.00  0.00    +0.000 A 
ATOM      9  C   UNL     1     113.449 126.599 136.487  0.00  0.00    +0.000 A 
ATOM     10  C   UNL     1     112.359 125.624 136.397  0.00  0.00    +0.000 A 
ATOM     11  C   UNL     1     114.011 125.970 136.647  0.00  0.00    +0.000 A 
ATOM     12  C   UNL     1     112.907 124.982 136.556  0.00  0.00    +0.000 A 
ATOM     13  C   UNL     1     113.740 125.156 136.682  0.00  0.00    +0.000 A 
BRANCH   6  16
ATOM     14  O   UNL     1     114.070 130.362 137.631  0.00  0.00    +0.000 OA
ATOM     15  O   UNL     1     114.258 131.111 136.172  0.00  0.00    +0.000 OA
ATOM     16  C   UNL     1     113.453 128.771 136.269  0.00  0.00    +0.000 A 
ATOM     17  C   UNL     1     113.628 129.177 136.966  0.00  0.00    +0.000 A 
ATOM     18  C   UNL     1     113.547 129.146 135.540  0.00  0.00    +0.000 A 
ATOM     19  C   UNL     1     113.896 129.957 136.934  0.00  0.00    +0.000 A 
ATOM     20  C   UNL     1     113.815 129.925 135.507  0.00  0.00    +0.000 A 
ATOM     21  C   UNL     1     113.989 130.330 136.204  0.00  0.00    +0.000 A 
ENDBRANCH   6  16
BRANCH  13  22
ATOM     22  O   UNL     1     114.273 124.546 136.836  0.00  0.00    +0.000 OA
ATOM     23  C   UNL     1     114.753 124.576 137.506  0.00  0.00    +0.000 C 
ENDBRANCH  13  22
ENDBRANCH   1   5
BRANCH   1  31
ATOM     24  O   UNL     1     111.277 128.406 137.333  0.00  0.00    +0.000 OA
ATOM     25  O   UNL     1     109.269 128.916 138.019  0.00  0.00    +0.000 OA
ATOM     26  O   UNL     1     110.425 128.977 135.406  0.00  0.00    +0.000 OA
ATOM     27  C   UNL     1     109.847 128.946 136.713  0.00  0.00    +0.000 C 
ATOM     28  C   UNL     1     109.915 128.796 137.520  0.00  0.00    +0.000 C 
ATOM     29  C   UNL     1     110.494 128.827 136.214  0.00  0.00    +0.000 C 
ATOM     30  C   UNL     1     110.631 128.526 137.831  0.00  0.00    +0.000 C 
ATOM     31  C   UNL     1     111.209 128.557 136.524  0.00  0.00    +0.000 C 
BRANCH  30  33
ATOM     32  O   UNL     1     111.215 128.825 139.101  0.00  0.00    +0.000 OA
ATOM     33  C   UNL     1     110.699 128.376 138.640  0.00  0.00    +0.000 C 
ENDBRANCH  30  33
BRANCH  27  34
ATOM     34  O   UNL     1     109.132 129.217 136.402  0.00  0.00    +0.000 OA
BRANCH  34  39
ATOM     35  O   UNL     1     109.582 130.566 136.539  0.00  0.00    +0.000 OA
ATOM     36  O   UNL     1     107.701 129.757 135.785  0.00  0.00    +0.000 OA
ATOM     37  O   UNL     1     107.435 131.376 135.613  0.00  0.00    +0.000 OA
ATOM     38  O   UNL     1     108.601 132.454 136.058  0.00  0.00    +0.000 OA
ATOM     39  C   UNL     1     108.999 130.026 136.316  0.00  0.00    +0.000 C 
ATOM     40  C   UNL     1     108.283 130.296 136.007  0.00  0.00    +0.000 C 
ATOM     41  C   UNL     1     108.151 131.106 135.921  0.00  0.00    +0.000 C 
ATOM     42  C   UNL     1     108.733 131.645 136.144  0.00  0.00    +0.000 C 
ATOM     43  C   UNL     1     109.449 131.375 136.453  0.00  0.00    +0.000 C 
BRANCH  43  45
ATOM     44  O   UNL     1     110.192 132.041 137.476  0.00  0.00    +0.000 OA
ATOM     45  C   UNL     1     110.032 131.914 136.676  0.00  0.00    +0.000 C 
ENDBRANCH  43  45
ENDBRANCH  34  39
ENDBRANCH  27  34
ENDBRANCH   1  31
TORSDOF 8
ENDMDL
MODEL 2
REMARK VINA RESULT:      -9.7      2.689      4.883
REMARK  Name = 44259598
REMARK  8 active torsions:
REMARK  status: ('A' for Active; 'I' for Inactive)
REMARK    1  A    between atoms: O_1  and  C_18
REMARK    2  A    between atoms: O_1  and  C_21
REMARK    3  A    between atoms: O_6  and  C_26
REMARK    4  A    between atoms: O_6  and  C_30
REMARK    5  A    between atoms: O_15  and  C_41
REMARK    6  A    between atoms: C_22  and  C_28
REMARK    7  A    between atoms: C_27  and  C_29
REMARK    8  A    between atoms: C_31  and  C_34
REMARK                            x       y       z     vdW  Elec       q    Type
REMARK                         _______ _______ _______ _____ _____    ______ ____
ROOT
ATOM      1  O   UNL     1     112.311 126.671 138.151  0.00  0.00    +0.000 OA
ENDROOT
BRANCH   1   5
ATOM      2  O   UNL     1     113.607 127.401 136.554  0.00  0.00    +0.000 OA
ATOM      3  O   UNL     1     112.077 128.299 138.280  0.00  0.00    +0.000 OA
ATOM      4  O   UNL     1     112.338 129.651 137.849  0.00  0.00    +0.000 OA
ATOM      5  C   UNL     1     112.704 127.186 137.640  0.00  0.00    +0.000 A 
ATOM      6  C   UNL     1     113.214 126.886 137.065  0.00  0.00    +0.000 A 
ATOM      7  C   UNL     1     112.587 127.999 137.705  0.00  0.00    +0.000 A 
ATOM      8  C   UNL     1     112.980 128.514 137.194  0.00  0.00    +0.000 A 
ATOM      9  C   UNL     1     113.490 128.216 136.618  0.00  0.00    +0.000 A 
ATOM     10  C   UNL     1     112.850 129.361 137.271  0.00  0.00    +0.000 A 
ATOM     11  C   UNL     1     113.905 128.742 136.081  0.00  0.00    +0.000 A 
ATOM     12  C   UNL     1     113.256 129.903 136.742  0.00  0.00    +0.000 A 
ATOM     13  C   UNL     1     113.788 129.591 136.142  0.00  0.00    +0.000 A 
BRANCH   6  16
ATOM     14  O   UNL     1     114.863 124.585 137.454  0.00  0.00    +0.000 OA
ATOM     15  O   UNL     1     113.684 123.630 136.806  0.00  0.00    +0.000 OA
ATOM     16  C   UNL     1     113.331 126.073 137.000  0.00  0.00    +0.000 A 
ATOM     17  C   UNL     1     114.038 125.736 137.259  0.00  0.00    +0.000 A 
ATOM     18  C   UNL     1     112.742 125.595 136.676  0.00  0.00    +0.000 A 
ATOM     19  C   UNL     1     114.156 124.921 137.195  0.00  0.00    +0.000 A 
ATOM     20  C   UNL     1     112.859 124.781 136.612  0.00  0.00    +0.000 A 
ATOM     21  C   UNL     1     113.566 124.444 136.871  0.00  0.00    +0.000 A 
ENDBRANCH   6  16
BRANCH  13  22
ATOM     22  O   UNL     1     114.182 130.103 135.630  0.00  0.00    +0.000 OA
ATOM     23  C   UNL     1     114.894 130.451 135.862  0.00  0.00    +0.000 C 
ENDBRANCH  13  22
ENDBRANCH   1   5
BRANCH   1  31
ATOM     24  O   UNL     1     113.153 127.015 139.253  0.00  0.00    +0.000 OA
ATOM     25  O   UNL     1     112.823 126.864 141.405  0.00  0.00    +0.000 OA
ATOM     26  O   UNL     1     111.139 126.176 139.201  0.00  0.00    +0.000 OA
ATOM     27  C   UNL     1     111.981 126.520 140.303  0.00  0.00    +0.000 C 
ATOM     28  C   UNL     1     112.694 126.816 140.591  0.00  0.00    +0.000 C 
ATOM     29  C   UNL     1     111.852 126.472 139.489  0.00  0.00    +0.000 C 
ATOM     30  C   UNL     1     113.280 127.063 140.066  0.00  0.00    +0.000 C 
ATOM     31  C   UNL     1     112.438 126.719 138.964  0.00  0.00    +0.000 C 
BRANCH  30  33
ATOM     32  O   UNL     1     114.680 126.900 140.311  0.00  0.00    +0.000 OA
ATOM     33  C   UNL     1     113.995 127.359 140.355  0.00  0.00    +0.000 C 
ENDBRANCH  30  33
BRANCH  27  34
ATOM     34  O   UNL     1     111.394 126.273 140.828  0.00  0.00    +0.000 OA
BRANCH  34  39
ATOM     35  O   UNL     1     110.861 127.597 140.899  0.00  0.00    +0.000 OA
ATOM     36  O   UNL     1     110.019 125.682 141.523  0.00  0.00    +0.000 OA
ATOM     37  O   UNL     1     108.799 126.711 141.941  0.00  0.00    +0.000 OA
ATOM     38  O   UNL     1     108.953 128.329 141.664  0.00  0.00    +0.000 OA
ATOM     39  C   UNL     1     110.784 126.787 141.037  0.00  0.00    +0.000 C 
ATOM     40  C   UNL     1     110.096 126.491 141.385  0.00  0.00    +0.000 C 
ATOM     41  C   UNL     1     109.486 127.006 141.593  0.00  0.00    +0.000 C 
ATOM     42  C   UNL     1     109.563 127.815 141.455  0.00  0.00    +0.000 C 
ATOM     43  C   UNL     1     110.251 128.111 141.108  0.00  0.00    +0.000 C 
BRANCH  43  45
ATOM     44  O   UNL     1     110.886 129.359 141.392  0.00  0.00    +0.000 OA
ATOM     45  C   UNL     1     110.329 128.920 140.969  0.00  0.00    +0.000 C 
ENDBRANCH  43  45
ENDBRANCH  34  39
ENDBRANCH  27  34
ENDBRANCH   1  31
TORSDOF 8
ENDMDL
MODEL 3
REMARK VINA RESULT:      -9.6      1.131      1.869
REMARK  Name = 44259598
REMARK  8 active torsions:
REMARK  status: ('A' for Active; 'I' for Inactive)
REMARK    1  A    between atoms: O_1  and  C_18
REMARK    2  A    between atoms: O_1  and  C_21
REMARK    3  A    between atoms: O_6  and  C_26
REMARK    4  A    between atoms: O_6  and  C_30
REMARK    5  A    between atoms: O_15  and  C_41
REMARK    6  A    between atoms: C_22  and  C_28
REMARK    7  A    between atoms: C_27  and  C_29
REMARK    8  A    between atoms: C_31  and  C_34
REMARK                            x       y       z     vdW  Elec       q    Type
REMARK                         _______ _______ _______ _____ _____    ______ ____
ROOT
ATOM      1  O   UNL     1     111.464 128.302 137.603  0.00  0.00    +0.000 OA
ENDROOT
BRANCH   1   5
ATOM      2  O   UNL     1     113.325 127.330 138.201  0.00  0.00    +0.000 OA
ATOM      3  O   UNL     1     111.301 126.836 136.864  0.00  0.00    +0.000 OA
ATOM      4  O   UNL     1     111.794 125.516 136.552  0.00  0.00    +0.000 OA
ATOM      5  C   UNL     1     112.057 127.734 137.679  0.00  0.00    +0.000 A 
ATOM      6  C   UNL     1     112.732 127.899 138.125  0.00  0.00    +0.000 A 
ATOM      7  C   UNL     1     111.976 127.001 137.310  0.00  0.00    +0.000 A 
ATOM      8  C   UNL     1     112.569 126.433 137.386  0.00  0.00    +0.000 A 
ATOM      9  C   UNL     1     113.243 126.596 137.831  0.00  0.00    +0.000 A 
ATOM     10  C   UNL     1     112.472 125.672 136.996  0.00  0.00    +0.000 A 
ATOM     11  C   UNL     1     113.867 126.013 137.918  0.00  0.00    +0.000 A 
ATOM     12  C   UNL     1     113.086 125.076 137.071  0.00  0.00    +0.000 A 
ATOM     13  C   UNL     1     113.789 125.247 137.536  0.00  0.00    +0.000 A 
BRANCH   6  16
ATOM     14  O   UNL     1     113.937 130.487 138.248  0.00  0.00    +0.000 OA
ATOM     15  O   UNL     1     113.059 130.831 139.602  0.00  0.00    +0.000 OA
ATOM     16  C   UNL     1     112.813 128.631 138.494  0.00  0.00    +0.000 A 
ATOM     17  C   UNL     1     113.334 129.192 138.186  0.00  0.00    +0.000 A 
ATOM     18  C   UNL     1     112.375 128.804 139.171  0.00  0.00    +0.000 A 
ATOM     19  C   UNL     1     113.416 129.926 138.556  0.00  0.00    +0.000 A 
ATOM     20  C   UNL     1     112.456 129.536 139.540  0.00  0.00    +0.000 A 
ATOM     21  C   UNL     1     112.977 130.098 139.233  0.00  0.00    +0.000 A 
ENDBRANCH   6  16
BRANCH  13  22
ATOM     22  O   UNL     1     114.384 124.681 137.614  0.00  0.00    +0.000 OA
ATOM     23  C   UNL     1     115.010 124.663 137.077  0.00  0.00    +0.000 C 
ENDBRANCH  13  22
ENDBRANCH   1   5
BRANCH   1  31
ATOM     24  O   UNL     1     111.818 128.640 136.260  0.00  0.00    +0.000 OA
ATOM     25  O   UNL     1     110.607 129.403 134.612  0.00  0.00    +0.000 OA
ATOM     26  O   UNL     1     109.900 128.728 137.297  0.00  0.00    +0.000 OA
ATOM     27  C   UNL     1     110.253 129.065 135.955  0.00  0.00    +0.000 C 
ATOM     28  C   UNL     1     110.821 129.128 135.360  0.00  0.00    +0.000 C 
ATOM     29  C   UNL     1     110.467 128.790 136.703  0.00  0.00    +0.000 C 
ATOM     30  C   UNL     1     111.603 128.915 135.513  0.00  0.00    +0.000 C 
ATOM     31  C   UNL     1     111.249 128.577 136.855  0.00  0.00    +0.000 C 
BRANCH  30  33
ATOM     32  O   UNL     1     112.795 129.512 134.996  0.00  0.00    +0.000 OA
ATOM     33  C   UNL     1     112.172 128.977 134.917  0.00  0.00    +0.000 C 
ENDBRANCH  30  33
BRANCH  27  34
ATOM     34  O   UNL     1     109.471 129.278 135.802  0.00  0.00    +0.000 OA
BRANCH  34  39
ATOM     35  O   UNL     1     109.760 130.631 136.161  0.00  0.00    +0.000 OA
ATOM     36  O   UNL     1     107.863 129.640 135.730  0.00  0.00    +0.000 OA
ATOM     37  O   UNL     1     107.347 131.174 136.052  0.00  0.00    +0.000 OA
ATOM     38  O   UNL     1     108.440 132.345 136.447  0.00  0.00    +0.000 OA
ATOM     39  C   UNL     1     109.213 130.045 135.963  0.00  0.00    +0.000 C 
ATOM     40  C   UNL     1     108.409 130.226 135.927  0.00  0.00    +0.000 C 
ATOM     41  C   UNL     1     108.151 130.993 136.089  0.00  0.00    +0.000 C 
ATOM     42  C   UNL     1     108.697 131.578 136.286  0.00  0.00    +0.000 C 
ATOM     43  C   UNL     1     109.501 131.397 136.322  0.00  0.00    +0.000 C 
BRANCH  43  45
ATOM     44  O   UNL     1     110.420 131.967 137.256  0.00  0.00    +0.000 OA
ATOM     45  C   UNL     1     110.048 131.983 136.520  0.00  0.00    +0.000 C 
ENDBRANCH  43  45
ENDBRANCH  34  39
ENDBRANCH  27  34
ENDBRANCH   1  31
TORSDOF 8
ENDMDL
MODEL 4
REMARK VINA RESULT:      -9.6      1.153      5.285
REMARK  Name = 44259598
REMARK  8 active torsions:
REMARK  status: ('A' for Active; 'I' for Inactive)
REMARK    1  A    between atoms: O_1  and  C_18
REMARK    2  A    between atoms: O_1  and  C_21
REMARK    3  A    between atoms: O_6  and  C_26
REMARK    4  A    between atoms: O_6  and  C_30
REMARK    5  A    between atoms: O_15  and  C_41
REMARK    6  A    between atoms: C_22  and  C_28
REMARK    7  A    between atoms: C_27  and  C_29
REMARK    8  A    between atoms: C_31  and  C_34
REMARK                            x       y       z     vdW  Elec       q    Type
REMARK                         _______ _______ _______ _____ _____    ______ ____
ROOT
ATOM      1  O   UNL     1     111.152 128.015 135.633  0.00  0.00    +0.000 OA
ENDROOT
BRANCH   1   5
ATOM      2  O   UNL     1     110.740 130.153 135.478  0.00  0.00    +0.000 OA
ATOM      3  O   UNL     1     109.512 128.031 135.816  0.00  0.00    +0.000 OA
ATOM      4  O   UNL     1     108.256 128.736 135.891  0.00  0.00    +0.000 OA
ATOM      5  C   UNL     1     110.741 128.730 135.612  0.00  0.00    +0.000 A 
ATOM      6  C   UNL     1     111.151 129.438 135.499  0.00  0.00    +0.000 A 
ATOM      7  C   UNL     1     109.922 128.738 135.703  0.00  0.00    +0.000 A 
ATOM      8  C   UNL     1     109.511 129.453 135.682  0.00  0.00    +0.000 A 
ATOM      9  C   UNL     1     109.920 130.161 135.569  0.00  0.00    +0.000 A 
ATOM     10  C   UNL     1     108.657 129.449 135.779  0.00  0.00    +0.000 A 
ATOM     11  C   UNL     1     109.503 130.912 135.545  0.00  0.00    +0.000 A 
ATOM     12  C   UNL     1     108.223 130.190 135.758  0.00  0.00    +0.000 A 
ATOM     13  C   UNL     1     108.650 130.928 135.640  0.00  0.00    +0.000 A 
BRANCH   6  16
ATOM     14  O   UNL     1     113.762 129.958 136.537  0.00  0.00    +0.000 OA
ATOM     15  O   UNL     1     114.431 129.407 135.133  0.00  0.00    +0.000 OA
ATOM     16  C   UNL     1     111.970 129.430 135.407  0.00  0.00    +0.000 A 
ATOM     17  C   UNL     1     112.456 129.698 136.018  0.00  0.00    +0.000 A 
ATOM     18  C   UNL     1     112.305 129.155 134.705  0.00  0.00    +0.000 A 
ATOM     19  C   UNL     1     113.276 129.690 135.926  0.00  0.00    +0.000 A 
ATOM     20  C   UNL     1     113.124 129.147 134.613  0.00  0.00    +0.000 A 
ATOM     21  C   UNL     1     113.610 129.415 135.224  0.00  0.00    +0.000 A 
ENDBRANCH   6  16
BRANCH  13  22
ATOM     22  O   UNL     1     108.242 131.644 135.619  0.00  0.00    +0.000 OA
ATOM     23  C   UNL     1     108.264 132.111 134.939  0.00  0.00    +0.000 C 
ENDBRANCH  13  22
ENDBRANCH   1   5
BRANCH   1  31
ATOM     24  O   UNL     1     111.008 127.901 137.050  0.00  0.00    +0.000 OA
ATOM     25  O   UNL     1     111.088 126.156 138.359  0.00  0.00    +0.000 OA
ATOM     26  O   UNL     1     111.375 126.384 135.524  0.00  0.00    +0.000 OA
ATOM     27  C   UNL     1     111.232 126.270 136.941  0.00  0.00    +0.000 C 
ATOM     28  C   UNL     1     111.104 126.620 137.677  0.00  0.00    +0.000 C 
ATOM     29  C   UNL     1     111.248 126.734 136.259  0.00  0.00    +0.000 C 
ATOM     30  C   UNL     1     110.993 127.436 137.731  0.00  0.00    +0.000 C 
ATOM     31  C   UNL     1     111.136 127.550 136.314  0.00  0.00    +0.000 C 
BRANCH  30  33
ATOM     32  O   UNL     1     111.438 128.283 138.793  0.00  0.00    +0.000 OA
ATOM     33  C   UNL     1     110.865 127.787 138.467  0.00  0.00    +0.000 C 
ENDBRANCH  30  33
BRANCH  27  34
ATOM     34  O   UNL     1     111.343 125.454 136.887  0.00  0.00    +0.000 OA
BRANCH  34  39
ATOM     35  O   UNL     1     112.757 125.632 136.995  0.00  0.00    +0.000 OA
ATOM     36  O   UNL     1     111.539 123.821 137.017  0.00  0.00    +0.000 OA
ATOM     37  O   UNL     1     113.050 123.182 137.190  0.00  0.00    +0.000 OA
ATOM     38  O   UNL     1     114.365 124.176 137.233  0.00  0.00    +0.000 OA
ATOM     39  C   UNL     1     112.099 125.134 136.974  0.00  0.00    +0.000 C 
ATOM     40  C   UNL     1     112.196 124.318 137.039  0.00  0.00    +0.000 C 
ATOM     41  C   UNL     1     112.952 123.999 137.125  0.00  0.00    +0.000 C 
ATOM     42  C   UNL     1     113.610 124.495 137.147  0.00  0.00    +0.000 C 
ATOM     43  C   UNL     1     113.513 125.312 137.082  0.00  0.00    +0.000 C 
BRANCH  43  45
ATOM     44  O   UNL     1     114.412 126.203 136.419  0.00  0.00    +0.000 OA
ATOM     45  C   UNL     1     114.170 125.809 137.103  0.00  0.00    +0.000 C 
ENDBRANCH  43  45
ENDBRANCH  34  39
ENDBRANCH  27  34
ENDBRANCH   1  31
TORSDOF 8
ENDMDL
MODEL 5
REMARK VINA RESULT:      -9.5      2.268      4.914
REMARK  Name = 44259598
REMARK  8 active torsions:
REMARK  status: ('A' for Active; 'I' for Inactive)
REMARK    1  A    between atoms: O_1  and  C_18
REMARK    2  A    between atoms: O_1  and  C_21
REMARK    3  A    between atoms: O_6  and  C_26
REMARK    4  A    between atoms: O_6  and  C_30
REMARK    5  A    between atoms: O_15  and  C_41
REMARK    6  A    between atoms: C_22  and  C_28
REMARK    7  A    between atoms: C_27  and  C_29
REMARK    8  A    between atoms: C_31  and  C_34
REMARK                            x       y       z     vdW  Elec       q    Type
REMARK                         _______ _______ _______ _____ _____    ______ ____
ROOT
ATOM      1  O   UNL     1     112.600 126.829 138.072  0.00  0.00    +0.000 OA
ENDROOT
BRANCH   1   5
ATOM      2  O   UNL     1     113.060 127.314 135.994  0.00  0.00    +0.000 OA
ATOM      3  O   UNL     1     113.097 128.395 138.221  0.00  0.00    +0.000 OA
ATOM      4  O   UNL     1     113.587 129.625 137.647  0.00  0.00    +0.000 OA
ATOM      5  C   UNL     1     112.836 127.252 137.404  0.00  0.00    +0.000 A 
ATOM      6  C   UNL     1     112.823 126.891 136.662  0.00  0.00    +0.000 A 
ATOM      7  C   UNL     1     113.084 128.035 137.479  0.00  0.00    +0.000 A 
ATOM      8  C   UNL     1     113.321 128.458 136.811  0.00  0.00    +0.000 A 
ATOM      9  C   UNL     1     113.308 128.098 136.069  0.00  0.00    +0.000 A 
ATOM     10  C   UNL     1     113.578 129.273 136.901  0.00  0.00    +0.000 A 
ATOM     11  C   UNL     1     113.552 128.528 135.366  0.00  0.00    +0.000 A 
ATOM     12  C   UNL     1     113.825 129.719 136.210  0.00  0.00    +0.000 A 
ATOM     13  C   UNL     1     113.812 129.344 135.436  0.00  0.00    +0.000 A 
BRANCH   6  16
ATOM     14  O   UNL     1     110.851 124.987 135.855  0.00  0.00    +0.000 OA
ATOM     15  O   UNL     1     111.828 123.759 136.363  0.00  0.00    +0.000 OA
ATOM     16  C   UNL     1     112.575 126.109 136.587  0.00  0.00    +0.000 A 
ATOM     17  C   UNL     1     111.837 125.940 136.259  0.00  0.00    +0.000 A 
ATOM     18  C   UNL     1     113.063 125.494 136.841  0.00  0.00    +0.000 A 
ATOM     19  C   UNL     1     111.588 125.156 136.184  0.00  0.00    +0.000 A 
ATOM     20  C   UNL     1     112.815 124.712 136.767  0.00  0.00    +0.000 A 
ATOM     21  C   UNL     1     112.077 124.543 136.438  0.00  0.00    +0.000 A 
ENDBRANCH   6  16
BRANCH  13  22
ATOM     22  O   UNL     1     114.048 129.764 134.766  0.00  0.00    +0.000 OA
ATOM     23  C   UNL     1     114.850 129.878 134.612  0.00  0.00    +0.000 C 
ENDBRANCH  13  22
ENDBRANCH   1   5
BRANCH   1  31
ATOM     24  O   UNL     1     111.358 127.529 138.177  0.00  0.00    +0.000 OA
ATOM     25  O   UNL     1     110.073 127.908 139.900  0.00  0.00    +0.000 OA
ATOM     26  O   UNL     1     112.556 126.508 139.690  0.00  0.00    +0.000 OA
ATOM     27  C   UNL     1     111.315 127.208 139.795  0.00  0.00    +0.000 C 
ATOM     28  C   UNL     1     110.705 127.638 139.444  0.00  0.00    +0.000 C 
ATOM     29  C   UNL     1     111.947 126.938 139.338  0.00  0.00    +0.000 C 
ATOM     30  C   UNL     1     110.727 127.799 138.635  0.00  0.00    +0.000 C 
ATOM     31  C   UNL     1     111.969 127.099 138.529  0.00  0.00    +0.000 C 
BRANCH  30  33
ATOM     32  O   UNL     1     109.587 127.853 137.775  0.00  0.00    +0.000 OA
ATOM     33  C   UNL     1     110.117 128.229 138.282  0.00  0.00    +0.000 C 
ENDBRANCH  30  33
BRANCH  27  34
ATOM     34  O   UNL     1     111.293 127.048 140.604  0.00  0.00    +0.000 OA
BRANCH  34  39
ATOM     35  O   UNL     1     112.077 128.197 140.928  0.00  0.00    +0.000 OA
ATOM     36  O   UNL     1     110.648 127.059 142.123  0.00  0.00    +0.000 OA
ATOM     37  O   UNL     1     111.109 128.215 143.206  0.00  0.00    +0.000 OA
ATOM     38  O   UNL     1     112.215 129.358 142.770  0.00  0.00    +0.000 OA
ATOM     39  C   UNL     1     111.523 127.625 141.146  0.00  0.00    +0.000 C 
ATOM     40  C   UNL     1     111.201 127.631 141.905  0.00  0.00    +0.000 C 
ATOM     41  C   UNL     1     111.432 128.209 142.447  0.00  0.00    +0.000 C 
ATOM     42  C   UNL     1     111.985 128.781 142.229  0.00  0.00    +0.000 C 
ATOM     43  C   UNL     1     112.307 128.775 141.470  0.00  0.00    +0.000 C 
BRANCH  43  45
ATOM     44  O   UNL     1     113.658 129.144 141.186  0.00  0.00    +0.000 OA
ATOM     45  C   UNL     1     112.860 129.347 141.252  0.00  0.00    +0.000 C 
ENDBRANCH  43  45
ENDBRANCH  34  39
ENDBRANCH  27  34
ENDBRANCH   1  31
TORSDOF 8
ENDMDL
MODEL 6
REMARK VINA RESULT:      -9.5      1.782      3.335
REMARK  Name = 44259598
REMARK  8 active torsions:
REMARK  status: ('A' for Active; 'I' for Inactive)
REMARK    1  A    between atoms: O_1  and  C_18
REMARK    2  A    between atoms: O_1  and  C_21
REMARK    3  A    between atoms: O_6  and  C_26
REMARK    4  A    between atoms: O_6  and  C_30
REMARK    5  A    between atoms: O_15  and  C_41
REMARK    6  A    between atoms: C_22  and  C_28
REMARK    7  A    between atoms: C_27  and  C_29
REMARK    8  A    between atoms: C_31  and  C_34
REMARK                            x       y       z     vdW  Elec       q    Type
REMARK                         _______ _______ _______ _____ _____    ______ ____
ROOT
ATOM      1  O   UNL     1     110.215 127.372 138.570  0.00  0.00    +0.000 OA
ENDROOT
BRANCH   1   5
ATOM      2  O   UNL     1     111.246 125.449 138.629  0.00  0.00    +0.000 OA
ATOM      3  O   UNL     1     110.250 126.989 136.966  0.00  0.00    +0.000 OA
ATOM      4  O   UNL     1     110.608 126.101 135.887  0.00  0.00    +0.000 OA
ATOM      5  C   UNL     1     110.565 126.667 138.322  0.00  0.00    +0.000 A 
ATOM      6  C   UNL     1     110.896 126.154 138.877  0.00  0.00    +0.000 A 
ATOM      7  C   UNL     1     110.582 126.476 137.521  0.00  0.00    +0.000 A 
ATOM      8  C   UNL     1     110.931 125.771 137.273  0.00  0.00    +0.000 A 
ATOM      9  C   UNL     1     111.263 125.257 137.826  0.00  0.00    +0.000 A 
ATOM     10  C   UNL     1     110.943 125.581 136.434  0.00  0.00    +0.000 A 
ATOM     11  C   UNL     1     111.630 124.520 137.580  0.00  0.00    +0.000 A 
ATOM     12  C   UNL     1     111.305 124.849 136.169  0.00  0.00    +0.000 A 
ATOM     13  C   UNL     1     111.651 124.314 136.747  0.00  0.00    +0.000 A 
BRANCH   6  16
ATOM     14  O   UNL     1     112.245 127.013 141.246  0.00  0.00    +0.000 OA
ATOM     15  O   UNL     1     110.828 126.921 142.086  0.00  0.00    +0.000 OA
ATOM     16  C   UNL     1     110.879 126.346 139.679  0.00  0.00    +0.000 A 
ATOM     17  C   UNL     1     111.571 126.584 140.061  0.00  0.00    +0.000 A 
ATOM     18  C   UNL     1     110.171 126.300 140.100  0.00  0.00    +0.000 A 
ATOM     19  C   UNL     1     111.554 126.776 140.864  0.00  0.00    +0.000 A 
ATOM     20  C   UNL     1     110.154 126.491 140.901  0.00  0.00    +0.000 A 
ATOM     21  C   UNL     1     110.845 126.729 141.283  0.00  0.00    +0.000 A 
ENDBRANCH   6  16
BRANCH  13  22
ATOM     22  O   UNL     1     112.001 123.608 136.501  0.00  0.00    +0.000 OA
ATOM     23  C   UNL     1     112.071 122.977 137.029  0.00  0.00    +0.000 C 
ENDBRANCH  13  22
ENDBRANCH   1   5
BRANCH   1  31
ATOM     24  O   UNL     1     111.315 128.159 138.109  0.00  0.00    +0.000 OA
ATOM     25  O   UNL     1     111.428 130.265 137.545  0.00  0.00    +0.000 OA
ATOM     26  O   UNL     1     109.228 128.691 138.467  0.00  0.00    +0.000 OA
ATOM     27  C   UNL     1     110.328 129.478 138.006  0.00  0.00    +0.000 C 
ATOM     28  C   UNL     1     111.124 129.542 137.801  0.00  0.00    +0.000 C 
ATOM     29  C   UNL     1     110.024 128.755 138.263  0.00  0.00    +0.000 C 
ATOM     30  C   UNL     1     111.618 128.883 137.853  0.00  0.00    +0.000 C 
ATOM     31  C   UNL     1     110.518 128.096 138.314  0.00  0.00    +0.000 C 
BRANCH  30  33
ATOM     32  O   UNL     1     112.998 128.837 138.221  0.00  0.00    +0.000 OA
ATOM     33  C   UNL     1     112.415 128.947 137.648  0.00  0.00    +0.000 C 
ENDBRANCH  30  33
BRANCH  27  34
ATOM     34  O   UNL     1     109.835 130.137 137.954  0.00  0.00    +0.000 OA
BRANCH  34  39
ATOM     35  O   UNL     1     109.574 129.864 136.576  0.00  0.00    +0.000 OA
ATOM     36  O   UNL     1     108.575 131.202 137.981  0.00  0.00    +0.000 OA
ATOM     37  O   UNL     1     107.684 131.461 136.617  0.00  0.00    +0.000 OA
ATOM     38  O   UNL     1     108.054 130.656 135.226  0.00  0.00    +0.000 OA
ATOM     39  C   UNL     1     109.389 130.267 137.273  0.00  0.00    +0.000 C 
ATOM     40  C   UNL     1     108.759 130.799 137.286  0.00  0.00    +0.000 C 
ATOM     41  C   UNL     1     108.314 130.929 136.603  0.00  0.00    +0.000 C 
ATOM     42  C   UNL     1     108.499 130.526 135.908  0.00  0.00    +0.000 C 
ATOM     43  C   UNL     1     109.129 129.994 135.894  0.00  0.00    +0.000 C 
BRANCH  43  45
ATOM     44  O   UNL     1     110.014 129.763 134.796  0.00  0.00    +0.000 OA
ATOM     45  C   UNL     1     109.314 129.591 135.199  0.00  0.00    +0.000 C 
ENDBRANCH  43  45
ENDBRANCH  34  39
ENDBRANCH  27  34
ENDBRANCH   1  31
TORSDOF 8
ENDMDL
MODEL 7
REMARK VINA RESULT:      -9.5      2.436      4.624
REMARK  Name = 44259598
REMARK  8 active torsions:
REMARK  status: ('A' for Active; 'I' for Inactive)
REMARK    1  A    between atoms: O_1  and  C_18
REMARK    2  A    between atoms: O_1  and  C_21
REMARK    3  A    between atoms: O_6  and  C_26
REMARK    4  A    between atoms: O_6  and  C_30
REMARK    5  A    between atoms: O_15  and  C_41
REMARK    6  A    between atoms: C_22  and  C_28
REMARK    7  A    between atoms: C_27  and  C_29
REMARK    8  A    between atoms: C_31  and  C_34
REMARK                            x       y       z     vdW  Elec       q    Type
REMARK                         _______ _______ _______ _____ _____    ______ ____
ROOT
ATOM      1  O   UNL     1     112.413 126.621 138.190  0.00  0.00    +0.000 OA
ENDROOT
BRANCH   1   5
ATOM      2  O   UNL     1     113.638 127.305 136.518  0.00  0.00    +0.000 OA
ATOM      3  O   UNL     1     111.977 128.210 138.115  0.00  0.00    +0.000 OA
ATOM      4  O   UNL     1     112.076 129.521 137.521  0.00  0.00    +0.000 OA
ATOM      5  C   UNL     1     112.749 127.114 137.620  0.00  0.00    +0.000 A 
ATOM      6  C   UNL     1     113.302 126.812 137.088  0.00  0.00    +0.000 A 
ATOM      7  C   UNL     1     112.531 127.908 137.583  0.00  0.00    +0.000 A 
ATOM      8  C   UNL     1     112.866 128.402 137.013  0.00  0.00    +0.000 A 
ATOM      9  C   UNL     1     113.419 128.101 136.481  0.00  0.00    +0.000 A 
ATOM     10  C   UNL     1     112.631 129.228 136.984  0.00  0.00    +0.000 A 
ATOM     11  C   UNL     1     113.776 128.605 135.883  0.00  0.00    +0.000 A 
ATOM     12  C   UNL     1     112.976 129.747 136.393  0.00  0.00    +0.000 A 
ATOM     13  C   UNL     1     113.553 129.433 135.838  0.00  0.00    +0.000 A 
BRANCH   6  16
ATOM     14  O   UNL     1     113.113 124.144 136.082  0.00  0.00    +0.000 OA
ATOM     15  O   UNL     1     114.175 123.633 137.237  0.00  0.00    +0.000 OA
ATOM     16  C   UNL     1     113.520 126.018 137.125  0.00  0.00    +0.000 A 
ATOM     17  C   UNL     1     113.208 125.479 136.585  0.00  0.00    +0.000 A 
ATOM     18  C   UNL     1     114.051 125.762 137.703  0.00  0.00    +0.000 A 
ATOM     19  C   UNL     1     113.426 124.683 136.622  0.00  0.00    +0.000 A 
ATOM     20  C   UNL     1     114.269 124.968 137.740  0.00  0.00    +0.000 A 
ATOM     21  C   UNL     1     113.957 124.428 137.200  0.00  0.00    +0.000 A 
ENDBRANCH   6  16
BRANCH  13  22
ATOM     22  O   UNL     1     113.890 129.924 135.267  0.00  0.00    +0.000 OA
ATOM     23  C   UNL     1     114.632 130.260 135.398  0.00  0.00    +0.000 C 
ENDBRANCH  13  22
ENDBRANCH   1   5
BRANCH   1  31
ATOM     24  O   UNL     1     111.157 126.609 137.509  0.00  0.00    +0.000 OA
ATOM     25  O   UNL     1     109.154 126.104 138.214  0.00  0.00    +0.000 OA
ATOM     26  O   UNL     1     111.666 126.128 139.577  0.00  0.00    +0.000 OA
ATOM     27  C   UNL     1     110.410 126.116 138.895  0.00  0.00    +0.000 C 
ATOM     28  C   UNL     1     109.969 126.233 138.209  0.00  0.00    +0.000 C 
ATOM     29  C   UNL     1     111.225 126.245 138.890  0.00  0.00    +0.000 C 
ATOM     30  C   UNL     1     110.343 126.479 137.516  0.00  0.00    +0.000 C 
ATOM     31  C   UNL     1     111.599 126.491 138.197  0.00  0.00    +0.000 C 
BRANCH  30  33
ATOM     32  O   UNL     1     110.027 126.115 136.170  0.00  0.00    +0.000 OA
ATOM     33  C   UNL     1     109.901 126.597 136.828  0.00  0.00    +0.000 C 
ENDBRANCH  30  33
BRANCH  27  34
ATOM     34  O   UNL     1     110.037 125.870 139.588  0.00  0.00    +0.000 OA
BRANCH  34  39
ATOM     35  O   UNL     1     109.780 127.232 139.936  0.00  0.00    +0.000 OA
ATOM     36  O   UNL     1     109.382 125.381 141.022  0.00  0.00    +0.000 OA
ATOM     37  O   UNL     1     108.798 126.498 142.086  0.00  0.00    +0.000 OA
ATOM     38  O   UNL     1     108.869 128.104 141.717  0.00  0.00    +0.000 OA
ATOM     39  C   UNL     1     109.745 126.428 140.121  0.00  0.00    +0.000 C 
ATOM     40  C   UNL     1     109.417 126.183 140.837  0.00  0.00    +0.000 C 
ATOM     41  C   UNL     1     109.125 126.743 141.369  0.00  0.00    +0.000 C 
ATOM     42  C   UNL     1     109.161 127.545 141.185  0.00  0.00    +0.000 C 
ATOM     43  C   UNL     1     109.488 127.790 140.469  0.00  0.00    +0.000 C 
BRANCH  43  45
ATOM     44  O   UNL     1     109.014 128.909 139.717  0.00  0.00    +0.000 OA
ATOM     45  C   UNL     1     109.524 128.593 140.284  0.00  0.00    +0.000 C 
ENDBRANCH  43  45
ENDBRANCH  34  39
ENDBRANCH  27  34
ENDBRANCH   1  31
TORSDOF 8
ENDMDL
MODEL 8
REMARK VINA RESULT:      -9.5      2.034      3.324
REMARK  Name = 44259598
REMARK  8 active torsions:
REMARK  status: ('A' for Active; 'I' for Inactive)
REMARK    1  A    between atoms: O_1  and  C_18
REMARK    2  A    between atoms: O_1  and  C_21
REMARK    3  A    between atoms: O_6  and  C_26
REMARK    4  A    between atoms: O_6  and  C_30
REMARK    5  A    between atoms: O_15  and  C_41
REMARK    6  A    between atoms: C_22  and  C_28
REMARK    7  A    between atoms: C_27  and  C_29
REMARK    8  A    between atoms: C_31  and  C_34
REMARK                            x       y       z     vdW  Elec       q    Type
REMARK                         _______ _______ _______ _____ _____    ______ ____
ROOT
ATOM      1  O   UNL     1     111.946 128.144 138.839  0.00  0.00    +0.000 OA
ENDROOT
BRANCH   1   5
ATOM      2  O   UNL     1     113.178 126.360 139.095  0.00  0.00    +0.000 OA
ATOM      3  O   UNL     1     112.542 127.955 137.311  0.00  0.00    +0.000 OA
ATOM      4  O   UNL     1     113.350 127.246 136.349  0.00  0.00    +0.000 OA
ATOM      5  C   UNL     1     112.456 127.518 138.669  0.00  0.00    +0.000 A 
ATOM      6  C   UNL     1     112.668 126.986 139.264  0.00  0.00    +0.000 A 
ATOM      7  C   UNL     1     112.753 127.424 137.906  0.00  0.00    +0.000 A 
ATOM      8  C   UNL     1     113.263 126.798 137.737  0.00  0.00    +0.000 A 
ATOM      9  C   UNL     1     113.476 126.266 138.330  0.00  0.00    +0.000 A 
ATOM     10  C   UNL     1     113.567 126.710 136.937  0.00  0.00    +0.000 A 
ATOM     11  C   UNL     1     114.006 125.610 138.166  0.00  0.00    +0.000 A 
ATOM     12  C   UNL     1     114.099 126.060 136.754  0.00  0.00    +0.000 A 
ATOM     13  C   UNL     1     114.320 125.506 137.374  0.00  0.00    +0.000 A 
BRANCH   6  16
ATOM     14  O   UNL     1     110.921 126.139 141.361  0.00  0.00    +0.000 OA
ATOM     15  O   UNL     1     111.476 127.363 142.318  0.00  0.00    +0.000 OA
ATOM     16  C   UNL     1     112.370 127.081 140.027  0.00  0.00    +0.000 A 
ATOM     17  C   UNL     1     111.795 126.563 140.312  0.00  0.00    +0.000 A 
ATOM     18  C   UNL     1     112.648 127.692 140.506  0.00  0.00    +0.000 A 
ATOM     19  C   UNL     1     111.496 126.657 141.076  0.00  0.00    +0.000 A 
ATOM     20  C   UNL     1     112.350 127.786 141.269  0.00  0.00    +0.000 A 
ATOM     21  C   UNL     1     111.775 127.269 141.554  0.00  0.00    +0.000 A 
ENDBRANCH   6  16
BRANCH  13  22
ATOM     22  O   UNL     1     114.830 124.879 137.207  0.00  0.00    +0.000 OA
ATOM     23  C   UNL     1     114.535 124.110 137.157  0.00  0.00    +0.000 C 
ENDBRANCH  13  22
ENDBRANCH   1   5
BRANCH   1  31
ATOM     24  O   UNL     1     110.813 127.546 138.205  0.00  0.00    +0.000 OA
ATOM     25  O   UNL     1     109.101 128.447 137.193  0.00  0.00    +0.000 OA
ATOM     26  O   UNL     1     111.367 129.642 138.461  0.00  0.00    +0.000 OA
ATOM     27  C   UNL     1     110.234 129.044 137.827  0.00  0.00    +0.000 C 
ATOM     28  C   UNL     1     109.813 128.372 137.605  0.00  0.00    +0.000 C 
ATOM     29  C   UNL     1     110.945 128.969 138.239  0.00  0.00    +0.000 C 
ATOM     30  C   UNL     1     110.102 127.623 137.793  0.00  0.00    +0.000 C 
ATOM     31  C   UNL     1     111.235 128.220 138.427  0.00  0.00    +0.000 C 
BRANCH  30  33
ATOM     32  O   UNL     1     109.281 126.505 138.140  0.00  0.00    +0.000 OA
ATOM     33  C   UNL     1     109.681 126.949 137.570  0.00  0.00    +0.000 C 
ENDBRANCH  30  33
BRANCH  27  34
ATOM     34  O   UNL     1     109.945 129.794 137.638  0.00  0.00    +0.000 OA
BRANCH  34  39
ATOM     35  O   UNL     1     109.334 129.888 138.927  0.00  0.00    +0.000 OA
ATOM     36  O   UNL     1     109.214 131.203 137.189  0.00  0.00    +0.000 OA
ATOM     37  O   UNL     1     108.239 132.003 138.253  0.00  0.00    +0.000 OA
ATOM     38  O   UNL     1     107.995 131.393 139.766  0.00  0.00    +0.000 OA
ATOM     39  C   UNL     1     109.457 130.194 138.170  0.00  0.00    +0.000 C 
ATOM     40  C   UNL     1     109.092 130.899 137.945  0.00  0.00    +0.000 C 
ATOM     41  C   UNL     1     108.604 131.298 138.478  0.00  0.00    +0.000 C 
ATOM     42  C   UNL     1     108.482 130.993 139.234  0.00  0.00    +0.000 C 
ATOM     43  C   UNL     1     108.847 130.289 139.459  0.00  0.00    +0.000 C 
BRANCH  43  45
ATOM     44  O   UNL     1     108.218 129.340 140.323  0.00  0.00    +0.000 OA
ATOM     45  C   UNL     1     108.725 129.983 140.215  0.00  0.00    +0.000 C 
ENDBRANCH  43  45
ENDBRANCH  34  39
ENDBRANCH  27  34
ENDBRANCH   1  31
TORSDOF 8
ENDMDL
MODEL 9
REMARK VINA RESULT:      -9.5      2.734      5.202
REMARK  Name = 44259598
REMARK  8 active torsions:
REMARK  status: ('A' for Active; 'I' for Inactive)
REMARK    1  A    between atoms: O_1  and  C_18
REMARK    2  A    between atoms: O_1  and  C_21
REMARK    3  A    between atoms: O_6  and  C_26
REMARK    4  A    between atoms: O_6  and  C_30
REMARK    5  A    between atoms: O_15  and  C_41
REMARK    6  A    between atoms: C_22  and  C_28
REMARK    7  A    between atoms: C_27  and  C_29
REMARK    8  A    between atoms: C_31  and  C_34
REMARK                            x       y       z     vdW  Elec       q    Type
REMARK                         _______ _______ _______ _____ _____    ______ ____
ROOT
ATOM      1  O   UNL     1     112.520 127.166 139.741  0.00  0.00    +0.000 OA
ENDROOT
BRANCH   1   5
ATOM      2  O   UNL     1     111.299 125.631 138.784  0.00  0.00    +0.000 OA
ATOM      3  O   UNL     1     113.564 126.609 138.591  0.00  0.00    +0.000 OA
ATOM      4  O   UNL     1     113.882 125.729 137.493  0.00  0.00    +0.000 OA
ATOM      5  C   UNL     1     112.287 126.562 139.230  0.00  0.00    +0.000 A 
ATOM      6  C   UNL     1     111.532 126.236 139.295  0.00  0.00    +0.000 A 
ATOM      7  C   UNL     1     112.809 126.284 138.656  0.00  0.00    +0.000 A 
ATOM      8  C   UNL     1     112.576 125.679 138.145  0.00  0.00    +0.000 A 
ATOM      9  C   UNL     1     111.821 125.352 138.209  0.00  0.00    +0.000 A 
ATOM     10  C   UNL     1     113.129 125.397 137.550  0.00  0.00    +0.000 A 
ATOM     11  C   UNL     1     111.567 124.722 137.683  0.00  0.00    +0.000 A 
ATOM     12  C   UNL     1     112.893 124.768 137.015  0.00  0.00    +0.000 A 
ATOM     13  C   UNL     1     112.105 124.428 137.082  0.00  0.00    +0.000 A 
BRANCH   6  16
ATOM     14  O   UNL     1     109.168 127.679 140.000  0.00  0.00    +0.000 OA
ATOM     15  O   UNL     1     109.442 127.349 141.594  0.00  0.00    +0.000 OA
ATOM     16  C   UNL     1     111.010 126.514 139.869  0.00  0.00    +0.000 A 
ATOM     17  C   UNL     1     110.350 126.957 139.647  0.00  0.00    +0.000 A 
ATOM     18  C   UNL     1     111.147 126.350 140.666  0.00  0.00    +0.000 A 
ATOM     19  C   UNL     1     109.827 127.236 140.222  0.00  0.00    +0.000 A 
ATOM     20  C   UNL     1     110.625 126.628 141.241  0.00  0.00    +0.000 A 
ATOM     21  C   UNL     1     109.965 127.071 141.019  0.00  0.00    +0.000 A 
ENDBRANCH   6  16
BRANCH  13  22
ATOM     22  O   UNL     1     111.870 123.823 136.573  0.00  0.00    +0.000 OA
ATOM     23  C   UNL     1     111.885 123.039 136.829  0.00  0.00    +0.000 C 
ENDBRANCH  13  22
ENDBRANCH   1   5
BRANCH   1  31
ATOM     24  O   UNL     1     112.377 128.207 138.772  0.00  0.00    +0.000 OA
ATOM     25  O   UNL     1     113.460 130.086 138.522  0.00  0.00    +0.000 OA
ATOM     26  O   UNL     1     113.747 128.004 140.460  0.00  0.00    +0.000 OA
ATOM     27  C   UNL     1     113.603 129.045 139.491  0.00  0.00    +0.000 C 
ATOM     28  C   UNL     1     113.225 129.356 138.827  0.00  0.00    +0.000 C 
ATOM     29  C   UNL     1     113.369 128.315 139.796  0.00  0.00    +0.000 C 
ATOM     30  C   UNL     1     112.612 128.937 138.468  0.00  0.00    +0.000 C 
ATOM     31  C   UNL     1     112.755 127.896 139.437  0.00  0.00    +0.000 C 
BRANCH  30  33
ATOM     32  O   UNL     1     111.436 129.457 137.843  0.00  0.00    +0.000 OA
ATOM     33  C   UNL     1     112.233 129.248 137.804  0.00  0.00    +0.000 C 
ENDBRANCH  30  33
BRANCH  27  34
ATOM     34  O   UNL     1     114.216 129.464 139.850  0.00  0.00    +0.000 OA
BRANCH  34  39
ATOM     35  O   UNL     1     113.302 130.018 140.798  0.00  0.00    +0.000 OA
ATOM     36  O   UNL     1     115.380 130.519 140.356  0.00  0.00    +0.000 OA
ATOM     37  O   UNL     1     115.047 131.601 141.557  0.00  0.00    +0.000 OA
ATOM     38  O   UNL     1     113.552 131.627 142.251  0.00  0.00    +0.000 OA
ATOM     39  C   UNL     1     114.051 130.005 140.450  0.00  0.00    +0.000 C 
ATOM     40  C   UNL     1     114.633 130.532 140.703  0.00  0.00    +0.000 C 
ATOM     41  C   UNL     1     114.466 131.073 141.304  0.00  0.00    +0.000 C 
ATOM     42  C   UNL     1     113.718 131.087 141.651  0.00  0.00    +0.000 C 
ATOM     43  C   UNL     1     113.136 130.559 141.398  0.00  0.00    +0.000 C 
BRANCH  43  45
ATOM     44  O   UNL     1     111.751 130.905 141.339  0.00  0.00    +0.000 OA
ATOM     45  C   UNL     1     112.388 130.572 141.745  0.00  0.00    +0.000 C 
ENDBRANCH  43  45
ENDBRANCH  34  39
ENDBRANCH  27  34
ENDBRANCH   1  31
TORSDOF 8
ENDMDL
MODEL 10
REMARK VINA RESULT:      -9.5      1.364      2.205
REMARK  Name = 44259598
REMARK  8 active torsions:
REMARK  status: ('A' for Active; 'I' for Inactive)
REMARK    1  A    between atoms: O_1  and  C_18
REMARK    2  A    between atoms: O_1  and  C_21
REMARK    3  A    between atoms: O_6  and  C_26
REMARK    4  A    between atoms: O_6  and  C_30
REMARK    5  A    between atoms: O_15  and  C_41
REMARK    6  A    between atoms: C_22  and  C_28
REMARK    7  A    between atoms: C_27  and  C_29
REMARK    8  A    between atoms: C_31  and  C_34
REMARK                            x       y       z     vdW  Elec       q    Type
REMARK                         _______ _______ _______ _____ _____    ______ ____
ROOT
ATOM      1  O   UNL     1     111.581 128.582 137.052  0.00  0.00    +0.000 OA
ENDROOT
BRANCH   1   5
ATOM      2  O   UNL     1     112.315 126.807 136.016  0.00  0.00    +0.000 OA
ATOM      3  O   UNL     1     110.770 127.393 137.859  0.00  0.00    +0.000 OA
ATOM      4  O   UNL     1     110.454 126.002 138.075  0.00  0.00    +0.000 OA
ATOM      5  C   UNL     1     111.690 127.792 136.841  0.00  0.00    +0.000 A 
ATOM      6  C   UNL     1     112.206 127.597 136.227  0.00  0.00    +0.000 A 
ATOM      7  C   UNL     1     111.286 127.198 137.245  0.00  0.00    +0.000 A 
ATOM      8  C   UNL     1     111.395 126.408 137.034  0.00  0.00    +0.000 A 
ATOM      9  C   UNL     1     111.910 126.212 136.420  0.00  0.00    +0.000 A 
ATOM     10  C   UNL     1     110.967 125.797 137.462  0.00  0.00    +0.000 A 
ATOM     11  C   UNL     1     112.032 125.393 136.191  0.00  0.00    +0.000 A 
ATOM     12  C   UNL     1     111.077 124.972 137.248  0.00  0.00    +0.000 A 
ATOM     13  C   UNL     1     111.614 124.768 136.607  0.00  0.00    +0.000 A 
BRANCH   6  16
ATOM     14  O   UNL     1     114.376 129.450 136.077  0.00  0.00    +0.000 OA
ATOM     15  O   UNL     1     113.827 129.975 134.612  0.00  0.00    +0.000 OA
ATOM     16  C   UNL     1     112.611 128.191 135.823  0.00  0.00    +0.000 A 
ATOM     17  C   UNL     1     113.291 128.523 136.152  0.00  0.00    +0.000 A 
ATOM     18  C   UNL     1     112.336 128.454 135.091  0.00  0.00    +0.000 A 
ATOM     19  C   UNL     1     113.696 129.118 135.748  0.00  0.00    +0.000 A 
ATOM     20  C   UNL     1     112.741 129.048 134.687  0.00  0.00    +0.000 A 
ATOM     21  C   UNL     1     113.421 129.380 135.016  0.00  0.00    +0.000 A 
ENDBRANCH   6  16
BRANCH  13  22
ATOM     22  O   UNL     1     111.725 123.979 136.395  0.00  0.00    +0.000 OA
ATOM     23  C   UNL     1     112.153 123.476 136.888  0.00  0.00    +0.000 C 
ENDBRANCH  13  22
ENDBRANCH   1   5
BRANCH   1  31
ATOM     24  O   UNL     1     110.256 128.637 136.519  0.00  0.00    +0.000 OA
ATOM     25  O   UNL     1     108.547 129.881 137.064  0.00  0.00    +0.000 OA
ATOM     26  O   UNL     1     111.197 129.770 138.130  0.00  0.00    +0.000 OA
ATOM     27  C   UNL     1     109.872 129.826 137.597  0.00  0.00    +0.000 C 
ATOM     28  C   UNL     1     109.306 129.557 137.062  0.00  0.00    +0.000 C 
ATOM     29  C   UNL     1     110.631 129.501 137.595  0.00  0.00    +0.000 C 
ATOM     30  C   UNL     1     109.498 128.963 136.522  0.00  0.00    +0.000 C 
ATOM     31  C   UNL     1     110.823 128.907 137.055  0.00  0.00    +0.000 C 
BRANCH  30  33
ATOM     32  O   UNL     1     109.015 128.856 135.181  0.00  0.00    +0.000 OA
ATOM     33  C   UNL     1     108.932 128.693 135.986  0.00  0.00    +0.000 C 
ENDBRANCH  30  33
BRANCH  27  34
ATOM     34  O   UNL     1     109.680 130.420 138.137  0.00  0.00    +0.000 OA
BRANCH  34  39
ATOM     35  O   UNL     1     109.936 131.451 137.182  0.00  0.00    +0.000 OA
ATOM     36  O   UNL     1     109.892 131.502 139.363  0.00  0.00    +0.000 OA
ATOM     37  O   UNL     1     110.255 133.076 139.022  0.00  0.00    +0.000 OA
ATOM     38  O   UNL     1     110.405 133.565 137.454  0.00  0.00    +0.000 OA
ATOM     39  C   UNL     1     109.861 131.206 137.967  0.00  0.00    +0.000 C 
ATOM     40  C   UNL     1     109.967 131.748 138.580  0.00  0.00    +0.000 C 
ATOM     41  C   UNL     1     110.149 132.534 138.408  0.00  0.00    +0.000 C 
ATOM     42  C   UNL     1     110.224 132.779 137.625  0.00  0.00    +0.000 C 
ATOM     43  C   UNL     1     110.118 132.238 137.012  0.00  0.00    +0.000 C 
BRANCH  43  45
ATOM     44  O   UNL     1     109.519 132.576 135.759  0.00  0.00    +0.000 OA
ATOM     45  C   UNL     1     110.192 132.482 136.227  0.00  0.00    +0.000 C 
ENDBRANCH  43  45
ENDBRANCH  34  39
ENDBRANCH  27  34
ENDBRANCH   1  31
TORSDOF 8
ENDMDL
