MODEL 1
REMARK VINA RESULT:      -9.6      0.000      0.000
REMARK  Name = hidrosmin
REMARK  10 active torsions:
REMARK  status: ('A' for Active; 'I' for Inactive)
REMARK    1  A    between atoms: O_1  and  C_2
REMARK    2  A    between atoms: O_1  and  C_3
REMARK    3  A    between atoms: C_2  and  C_4
REMARK    4  A    between atoms: C_10  and  O_15
REMARK    5  A    between atoms: O_15  and  C_17
REMARK    6  A    between atoms: C_16  and  C_18
REMARK    7  A    between atoms: C_23  and  C_28
REMARK    8  A    between atoms: C_28  and  O_33
REMARK    9  A    between atoms: C_32  and  O_35
REMARK   10  A    between atoms: O_33  and  C_36
REMARK                            x       y       z     vdW  Elec       q    Type
REMARK                         _______ _______ _______ _____ _____    ______ ____
ROOT
ATOM      1  C   UNL     1     113.894 129.711 139.532  0.00  0.00    +0.000 A 
ATOM      2  C   UNL     1     113.443 129.708 138.841  0.00  0.00    +0.000 A 
ATOM      3  C   UNL     1     113.846 129.070 140.050  0.00  0.00    +0.000 A 
ATOM      4  C   UNL     1     112.945 129.066 138.668  0.00  0.00    +0.000 A 
ATOM      5  C   UNL     1     113.491 130.349 138.323  0.00  0.00    +0.000 A 
ATOM      6  C   UNL     1     113.348 128.428 139.877  0.00  0.00    +0.000 A 
ATOM      7  O   UNL     1     112.494 129.064 137.977  0.00  0.00    +0.000 OA
ATOM      8  C   UNL     1     112.897 128.426 139.186  0.00  0.00    +0.000 A 
ATOM      9  O   UNL     1     113.986 130.987 138.494  0.00  0.00    +0.000 OA
ATOM     10  C   UNL     1     113.040 130.346 137.632  0.00  0.00    +0.000 A 
ATOM     11  C   UNL     1     112.542 129.704 137.459  0.00  0.00    +0.000 A 
ENDROOT
BRANCH  11  12
ATOM     12  C   UNL     1     112.093 129.704 136.768  0.00  0.00    +0.000 A 
ATOM     13  C   UNL     1     112.393 129.363 136.080  0.00  0.00    +0.000 A 
ATOM     14  C   UNL     1     111.340 130.047 136.764  0.00  0.00    +0.000 A 
ATOM     15  C   UNL     1     111.941 129.365 135.387  0.00  0.00    +0.000 A 
ATOM     16  C   UNL     1     110.892 130.047 136.073  0.00  0.00    +0.000 A 
ATOM     17  O   UNL     1     112.242 129.023 134.699  0.00  0.00    +0.000 OA
ATOM     18  C   UNL     1     111.192 129.706 135.385  0.00  0.00    +0.000 A 
BRANCH  18  19
ATOM     19  O   UNL     1     110.742 129.707 134.694  0.00  0.00    +0.000 OA
ATOM     20  C   UNL     1     109.965 129.988 134.706  0.00  0.00    +0.000 C 
ENDBRANCH  18  19
ENDBRANCH  11  12
BRANCH   1  21
ATOM     21  O   UNL     1     114.389 130.349 139.703  0.00  0.00    +0.000 OA
BRANCH  21  22
ATOM     22  C   UNL     1     114.666 130.459 140.472  0.00  0.00    +0.000 C 
BRANCH  22  23
ATOM     23  C   UNL     1     115.118 131.121 140.659  0.00  0.00    +0.000 C 
ATOM     24  O   UNL     1     115.015 131.504 141.382  0.00  0.00    +0.000 OA
ENDBRANCH  22  23
ENDBRANCH  21  22
ENDBRANCH   1  21
BRANCH   6  25
ATOM     25  O   UNL     1     113.302 127.789 140.397  0.00  0.00    +0.000 OA
BRANCH  25  26
ATOM     26  C   UNL     1     112.656 127.718 140.906  0.00  0.00    +0.000 C 
ATOM     27  O   UNL     1     112.456 128.341 141.409  0.00  0.00    +0.000 OA
ATOM     28  C   UNL     1     112.212 127.023 140.912  0.00  0.00    +0.000 C 
ATOM     29  C   UNL     1     111.811 128.269 141.917  0.00  0.00    +0.000 C 
ATOM     30  O   UNL     1     112.412 126.400 140.410  0.00  0.00    +0.000 OA
ATOM     31  C   UNL     1     111.564 126.950 141.422  0.00  0.00    +0.000 C 
ATOM     32  C   UNL     1     111.364 127.573 141.924  0.00  0.00    +0.000 C 
ATOM     33  O   UNL     1     111.120 126.255 141.428  0.00  0.00    +0.000 OA
ATOM     34  O   UNL     1     110.719 127.501 142.432  0.00  0.00    +0.000 OA
BRANCH  29  35
ATOM     35  C   UNL     1     111.610 128.892 142.419  0.00  0.00    +0.000 C 
BRANCH  35  36
ATOM     36  O   UNL     1     111.611 129.667 142.137  0.00  0.00    +0.000 OA
BRANCH  36  37
ATOM     37  C   UNL     1     111.603 130.299 142.666  0.00  0.00    +0.000 C 
ATOM     38  C   UNL     1     111.551 131.073 142.381  0.00  0.00    +0.000 C 
ATOM     39  O   UNL     1     111.646 130.159 143.475  0.00  0.00    +0.000 OA
ATOM     40  O   UNL     1     111.507 131.215 141.570  0.00  0.00    +0.000 OA
ATOM     41  C   UNL     1     111.543 131.706 142.910  0.00  0.00    +0.000 C 
ATOM     42  C   UNL     1     111.638 130.792 144.004  0.00  0.00    +0.000 C 
ATOM     43  O   UNL     1     111.492 132.480 142.629  0.00  0.00    +0.000 OA
ATOM     44  C   UNL     1     111.587 131.565 143.725  0.00  0.00    +0.000 C 
ATOM     45  C   UNL     1     111.682 130.651 144.818  0.00  0.00    +0.000 C 
ATOM     46  O   UNL     1     111.579 132.197 144.254  0.00  0.00    +0.000 OA
ENDBRANCH  36  37
ENDBRANCH  35  36
ENDBRANCH  29  35
ENDBRANCH  25  26
ENDBRANCH   6  25
TORSDOF 10
ENDMDL
MODEL 2
REMARK VINA RESULT:      -9.6      3.404      5.764
REMARK  Name = hidrosmin
REMARK  10 active torsions:
REMARK  status: ('A' for Active; 'I' for Inactive)
REMARK    1  A    between atoms: O_1  and  C_2
REMARK    2  A    between atoms: O_1  and  C_3
REMARK    3  A    between atoms: C_2  and  C_4
REMARK    4  A    between atoms: C_10  and  O_15
REMARK    5  A    between atoms: O_15  and  C_17
REMARK    6  A    between atoms: C_16  and  C_18
REMARK    7  A    between atoms: C_23  and  C_28
REMARK    8  A    between atoms: C_28  and  O_33
REMARK    9  A    between atoms: C_32  and  O_35
REMARK   10  A    between atoms: O_33  and  C_36
REMARK                            x       y       z     vdW  Elec       q    Type
REMARK                         _______ _______ _______ _____ _____    ______ ____
ROOT
ATOM      1  C   UNL     1     110.958 128.669 135.078  0.00  0.00    +0.000 A 
ATOM      2  C   UNL     1     111.065 127.937 135.442  0.00  0.00    +0.000 A 
ATOM      3  C   UNL     1     111.612 129.156 134.948  0.00  0.00    +0.000 A 
ATOM      4  C   UNL     1     111.824 127.691 135.675  0.00  0.00    +0.000 A 
ATOM      5  C   UNL     1     110.412 127.449 135.573  0.00  0.00    +0.000 A 
ATOM      6  C   UNL     1     112.370 128.911 135.181  0.00  0.00    +0.000 A 
ATOM      7  O   UNL     1     111.931 126.958 136.039  0.00  0.00    +0.000 OA
ATOM      8  C   UNL     1     112.477 128.178 135.545  0.00  0.00    +0.000 A 
ATOM      9  O   UNL     1     109.658 127.693 135.341  0.00  0.00    +0.000 OA
ATOM     10  C   UNL     1     110.519 126.717 135.936  0.00  0.00    +0.000 A 
ATOM     11  C   UNL     1     111.278 126.471 136.170  0.00  0.00    +0.000 A 
ENDROOT
BRANCH  11  12
ATOM     12  C   UNL     1     111.381 125.738 136.533  0.00  0.00    +0.000 A 
ATOM     13  C   UNL     1     111.246 125.656 137.343  0.00  0.00    +0.000 A 
ATOM     14  C   UNL     1     111.621 125.085 136.086  0.00  0.00    +0.000 A 
ATOM     15  C   UNL     1     111.350 124.920 137.705  0.00  0.00    +0.000 A 
ATOM     16  C   UNL     1     111.724 124.354 136.450  0.00  0.00    +0.000 A 
ATOM     17  O   UNL     1     111.215 124.838 138.515  0.00  0.00    +0.000 OA
ATOM     18  C   UNL     1     111.589 124.271 137.259  0.00  0.00    +0.000 A 
BRANCH  18  19
ATOM     19  O   UNL     1     111.692 123.537 137.622  0.00  0.00    +0.000 OA
ATOM     20  C   UNL     1     111.965 122.893 137.183  0.00  0.00    +0.000 C 
ENDBRANCH  18  19
ENDBRANCH  11  12
BRANCH   1  21
ATOM     21  O   UNL     1     110.205 128.913 134.847  0.00  0.00    +0.000 OA
BRANCH  21  22
ATOM     22  C   UNL     1     110.061 129.709 134.690  0.00  0.00    +0.000 C 
BRANCH  22  23
ATOM     23  C   UNL     1     109.297 130.011 134.748  0.00  0.00    +0.000 C 
ATOM     24  O   UNL     1     109.156 130.813 134.612  0.00  0.00    +0.000 OA
ENDBRANCH  22  23
ENDBRANCH  21  22
ENDBRANCH   1  21
BRANCH   6  25
ATOM     25  O   UNL     1     113.021 129.400 135.049  0.00  0.00    +0.000 OA
BRANCH  25  26
ATOM     26  C   UNL     1     113.323 129.859 135.665  0.00  0.00    +0.000 C 
ATOM     27  O   UNL     1     112.812 130.198 136.216  0.00  0.00    +0.000 OA
ATOM     28  C   UNL     1     114.137 129.978 135.729  0.00  0.00    +0.000 C 
ATOM     29  C   UNL     1     113.114 130.657 136.831  0.00  0.00    +0.000 C 
ATOM     30  O   UNL     1     114.649 129.639 135.178  0.00  0.00    +0.000 OA
ATOM     31  C   UNL     1     114.441 130.438 136.346  0.00  0.00    +0.000 C 
ATOM     32  C   UNL     1     113.929 130.777 136.897  0.00  0.00    +0.000 C 
ATOM     33  O   UNL     1     115.254 130.557 136.410  0.00  0.00    +0.000 OA
ATOM     34  O   UNL     1     114.231 131.236 137.512  0.00  0.00    +0.000 OA
BRANCH  29  35
ATOM     35  C   UNL     1     112.602 130.996 137.382  0.00  0.00    +0.000 C 
BRANCH  35  36
ATOM     36  O   UNL     1     111.949 131.431 137.126  0.00  0.00    +0.000 OA
BRANCH  36  37
ATOM     37  C   UNL     1     111.289 131.511 137.615  0.00  0.00    +0.000 C 
ATOM     38  C   UNL     1     110.833 132.199 137.580  0.00  0.00    +0.000 C 
ATOM     39  O   UNL     1     111.088 130.908 138.136  0.00  0.00    +0.000 OA
ATOM     40  O   UNL     1     111.034 132.804 137.058  0.00  0.00    +0.000 OA
ATOM     41  C   UNL     1     110.173 132.280 138.068  0.00  0.00    +0.000 C 
ATOM     42  C   UNL     1     110.428 130.989 138.625  0.00  0.00    +0.000 C 
ATOM     43  O   UNL     1     109.715 132.965 138.036  0.00  0.00    +0.000 OA
ATOM     44  C   UNL     1     109.970 131.672 138.593  0.00  0.00    +0.000 C 
ATOM     45  C   UNL     1     110.225 130.382 139.150  0.00  0.00    +0.000 C 
ATOM     46  O   UNL     1     109.311 131.753 139.082  0.00  0.00    +0.000 OA
ENDBRANCH  36  37
ENDBRANCH  35  36
ENDBRANCH  29  35
ENDBRANCH  25  26
ENDBRANCH   6  25
TORSDOF 10
ENDMDL
MODEL 3
REMARK VINA RESULT:      -9.5      2.536      4.647
REMARK  Name = hidrosmin
REMARK  10 active torsions:
REMARK  status: ('A' for Active; 'I' for Inactive)
REMARK    1  A    between atoms: O_1  and  C_2
REMARK    2  A    between atoms: O_1  and  C_3
REMARK    3  A    between atoms: C_2  and  C_4
REMARK    4  A    between atoms: C_10  and  O_15
REMARK    5  A    between atoms: O_15  and  C_17
REMARK    6  A    between atoms: C_16  and  C_18
REMARK    7  A    between atoms: C_23  and  C_28
REMARK    8  A    between atoms: C_28  and  O_33
REMARK    9  A    between atoms: C_32  and  O_35
REMARK   10  A    between atoms: O_33  and  C_36
REMARK                            x       y       z     vdW  Elec       q    Type
REMARK                         _______ _______ _______ _____ _____    ______ ____
ROOT
ATOM      1  C   UNL     1     113.385 129.405 135.964  0.00  0.00    +0.000 A 
ATOM      2  C   UNL     1     113.122 128.630 136.067  0.00  0.00    +0.000 A 
ATOM      3  C   UNL     1     112.851 130.029 136.049  0.00  0.00    +0.000 A 
ATOM      4  C   UNL     1     112.327 128.478 136.254  0.00  0.00    +0.000 A 
ATOM      5  C   UNL     1     113.656 128.006 135.982  0.00  0.00    +0.000 A 
ATOM      6  C   UNL     1     112.056 129.877 136.236  0.00  0.00    +0.000 A 
ATOM      7  O   UNL     1     112.065 127.702 136.356  0.00  0.00    +0.000 OA
ATOM      8  C   UNL     1     111.793 129.101 136.338  0.00  0.00    +0.000 A 
ATOM      9  O   UNL     1     114.446 128.157 135.796  0.00  0.00    +0.000 OA
ATOM     10  C   UNL     1     113.394 127.231 136.084  0.00  0.00    +0.000 A 
ATOM     11  C   UNL     1     112.599 127.079 136.271  0.00  0.00    +0.000 A 
ENDROOT
BRANCH  11  12
ATOM     12  C   UNL     1     112.339 126.303 136.373  0.00  0.00    +0.000 A 
ATOM     13  C   UNL     1     111.717 126.012 135.916  0.00  0.00    +0.000 A 
ATOM     14  C   UNL     1     112.703 125.815 136.934  0.00  0.00    +0.000 A 
ATOM     15  C   UNL     1     111.459 125.233 136.019  0.00  0.00    +0.000 A 
ATOM     16  C   UNL     1     112.443 125.041 137.035  0.00  0.00    +0.000 A 
ATOM     17  O   UNL     1     110.837 124.942 135.562  0.00  0.00    +0.000 OA
ATOM     18  C   UNL     1     111.821 124.750 136.577  0.00  0.00    +0.000 A 
BRANCH  18  19
ATOM     19  O   UNL     1     111.563 123.973 136.680  0.00  0.00    +0.000 OA
ATOM     20  C   UNL     1     112.012 123.442 137.126  0.00  0.00    +0.000 C 
ENDBRANCH  18  19
ENDBRANCH  11  12
BRANCH   1  21
ATOM     21  O   UNL     1     114.175 129.556 135.779  0.00  0.00    +0.000 OA
BRANCH  21  22
ATOM     22  C   UNL     1     114.424 130.330 135.643  0.00  0.00    +0.000 C 
BRANCH  22  23
ATOM     23  C   UNL     1     115.224 130.495 135.537  0.00  0.00    +0.000 C 
ATOM     24  O   UNL     1     115.458 131.167 135.121  0.00  0.00    +0.000 OA
ENDBRANCH  22  23
ENDBRANCH  21  22
ENDBRANCH   1  21
BRANCH   6  25
ATOM     25  O   UNL     1     111.525 130.502 136.320  0.00  0.00    +0.000 OA
BRANCH  25  26
ATOM     26  C   UNL     1     111.336 130.784 137.073  0.00  0.00    +0.000 C 
ATOM     27  O   UNL     1     111.730 130.489 137.735  0.00  0.00    +0.000 OA
ATOM     28  C   UNL     1     110.753 131.361 137.162  0.00  0.00    +0.000 C 
ATOM     29  C   UNL     1     111.541 130.771 138.486  0.00  0.00    +0.000 C 
ATOM     30  O   UNL     1     110.358 131.656 136.500  0.00  0.00    +0.000 OA
ATOM     31  C   UNL     1     110.563 131.644 137.916  0.00  0.00    +0.000 C 
ATOM     32  C   UNL     1     110.957 131.349 138.578  0.00  0.00    +0.000 C 
ATOM     33  O   UNL     1     109.980 132.221 138.006  0.00  0.00    +0.000 OA
ATOM     34  O   UNL     1     110.768 131.630 139.330  0.00  0.00    +0.000 OA
BRANCH  29  35
ATOM     35  C   UNL     1     111.935 130.476 139.148  0.00  0.00    +0.000 C 
BRANCH  35  36
ATOM     36  O   UNL     1     112.749 130.583 139.226  0.00  0.00    +0.000 OA
BRANCH  36  37
ATOM     37  C   UNL     1     113.202 130.026 139.633  0.00  0.00    +0.000 C 
ATOM     38  C   UNL     1     113.887 130.264 140.029  0.00  0.00    +0.000 C 
ATOM     39  O   UNL     1     112.972 129.237 139.643  0.00  0.00    +0.000 OA
ATOM     40  O   UNL     1     114.119 131.055 140.019  0.00  0.00    +0.000 OA
ATOM     41  C   UNL     1     114.340 129.707 140.436  0.00  0.00    +0.000 C 
ATOM     42  C   UNL     1     113.425 128.680 140.050  0.00  0.00    +0.000 C 
ATOM     43  O   UNL     1     115.025 129.941 140.833  0.00  0.00    +0.000 OA
ATOM     44  C   UNL     1     114.108 128.913 140.446  0.00  0.00    +0.000 C 
ATOM     45  C   UNL     1     113.193 127.886 140.060  0.00  0.00    +0.000 C 
ATOM     46  O   UNL     1     114.561 128.356 140.853  0.00  0.00    +0.000 OA
ENDBRANCH  36  37
ENDBRANCH  35  36
ENDBRANCH  29  35
ENDBRANCH  25  26
ENDBRANCH   6  25
TORSDOF 10
ENDMDL
MODEL 4
REMARK VINA RESULT:      -9.4      5.814      9.546
REMARK  Name = hidrosmin
REMARK  10 active torsions:
REMARK  status: ('A' for Active; 'I' for Inactive)
REMARK    1  A    between atoms: O_1  and  C_2
REMARK    2  A    between atoms: O_1  and  C_3
REMARK    3  A    between atoms: C_2  and  C_4
REMARK    4  A    between atoms: C_10  and  O_15
REMARK    5  A    between atoms: O_15  and  C_17
REMARK    6  A    between atoms: C_16  and  C_18
REMARK    7  A    between atoms: C_23  and  C_28
REMARK    8  A    between atoms: C_28  and  O_33
REMARK    9  A    between atoms: C_32  and  O_35
REMARK   10  A    between atoms: O_33  and  C_36
REMARK                            x       y       z     vdW  Elec       q    Type
REMARK                         _______ _______ _______ _____ _____    ______ ____
ROOT
ATOM      1  C   UNL     1     105.965 127.751 142.801  0.00  0.00    +0.000 A 
ATOM      2  C   UNL     1     106.073 127.361 143.519  0.00  0.00    +0.000 A 
ATOM      3  C   UNL     1     106.585 127.777 142.256  0.00  0.00    +0.000 A 
ATOM      4  C   UNL     1     106.800 126.997 143.693  0.00  0.00    +0.000 A 
ATOM      5  C   UNL     1     105.454 127.335 144.064  0.00  0.00    +0.000 A 
ATOM      6  C   UNL     1     107.311 127.413 142.430  0.00  0.00    +0.000 A 
ATOM      7  O   UNL     1     106.908 126.606 144.412  0.00  0.00    +0.000 OA
ATOM      8  C   UNL     1     107.419 127.022 143.149  0.00  0.00    +0.000 A 
ATOM      9  O   UNL     1     104.733 127.697 143.891  0.00  0.00    +0.000 OA
ATOM     10  C   UNL     1     105.562 126.945 144.782  0.00  0.00    +0.000 A 
ATOM     11  C   UNL     1     106.289 126.581 144.956  0.00  0.00    +0.000 A 
ENDROOT
BRANCH  11  12
ATOM     12  C   UNL     1     106.393 126.191 145.676  0.00  0.00    +0.000 A 
ATOM     13  C   UNL     1     106.113 125.422 145.774  0.00  0.00    +0.000 A 
ATOM     14  C   UNL     1     106.780 126.572 146.300  0.00  0.00    +0.000 A 
ATOM     15  C   UNL     1     106.219 125.033 146.496  0.00  0.00    +0.000 A 
ATOM     16  C   UNL     1     106.884 126.183 147.018  0.00  0.00    +0.000 A 
ATOM     17  O   UNL     1     105.939 124.263 146.594  0.00  0.00    +0.000 OA
ATOM     18  C   UNL     1     106.604 125.413 147.116  0.00  0.00    +0.000 A 
BRANCH  18  19
ATOM     19  O   UNL     1     106.709 125.025 147.836  0.00  0.00    +0.000 OA
ATOM     20  C   UNL     1     107.175 125.366 148.427  0.00  0.00    +0.000 C 
ENDBRANCH  18  19
ENDBRANCH  11  12
BRANCH   1  21
ATOM     21  O   UNL     1     105.244 128.113 142.628  0.00  0.00    +0.000 OA
BRANCH  21  22
ATOM     22  C   UNL     1     105.043 128.274 141.845  0.00  0.00    +0.000 C 
BRANCH  22  23
ATOM     23  C   UNL     1     104.294 128.566 141.661  0.00  0.00    +0.000 C 
ATOM     24  O   UNL     1     104.094 128.733 140.879  0.00  0.00    +0.000 OA
ENDBRANCH  22  23
ENDBRANCH  21  22
ENDBRANCH   1  21
BRANCH   6  25
ATOM     25  O   UNL     1     107.928 127.440 141.883  0.00  0.00    +0.000 OA
BRANCH  25  26
ATOM     26  C   UNL     1     108.189 126.745 141.521  0.00  0.00    +0.000 C 
ATOM     27  O   UNL     1     107.642 126.193 141.246  0.00  0.00    +0.000 OA
ATOM     28  C   UNL     1     108.997 126.604 141.435  0.00  0.00    +0.000 C 
ATOM     29  C   UNL     1     107.903 125.499 140.884  0.00  0.00    +0.000 C 
ATOM     30  O   UNL     1     109.545 127.157 141.710  0.00  0.00    +0.000 OA
ATOM     31  C   UNL     1     109.260 125.909 141.072  0.00  0.00    +0.000 C 
ATOM     32  C   UNL     1     108.713 125.356 140.797  0.00  0.00    +0.000 C 
ATOM     33  O   UNL     1     110.068 125.768 140.986  0.00  0.00    +0.000 OA
ATOM     34  O   UNL     1     108.974 124.662 140.436  0.00  0.00    +0.000 OA
BRANCH  29  35
ATOM     35  C   UNL     1     107.356 124.946 140.609  0.00  0.00    +0.000 C 
BRANCH  35  36
ATOM     36  O   UNL     1     106.667 125.199 140.233  0.00  0.00    +0.000 OA
BRANCH  36  37
ATOM     37  C   UNL     1     106.034 124.679 140.137  0.00  0.00    +0.000 C 
ATOM     38  C   UNL     1     105.597 124.689 139.435  0.00  0.00    +0.000 C 
ATOM     39  O   UNL     1     105.840 124.152 140.737  0.00  0.00    +0.000 OA
ATOM     40  O   UNL     1     105.791 125.217 138.833  0.00  0.00    +0.000 OA
ATOM     41  C   UNL     1     104.964 124.169 139.339  0.00  0.00    +0.000 C 
ATOM     42  C   UNL     1     105.207 123.632 140.641  0.00  0.00    +0.000 C 
ATOM     43  O   UNL     1     104.525 124.176 138.640  0.00  0.00    +0.000 OA
ATOM     44  C   UNL     1     104.768 123.638 139.944  0.00  0.00    +0.000 C 
ATOM     45  C   UNL     1     105.011 123.101 141.244  0.00  0.00    +0.000 C 
ATOM     46  O   UNL     1     104.136 123.118 139.847  0.00  0.00    +0.000 OA
ENDBRANCH  36  37
ENDBRANCH  35  36
ENDBRANCH  29  35
ENDBRANCH  25  26
ENDBRANCH   6  25
TORSDOF 10
ENDMDL
MODEL 5
REMARK VINA RESULT:      -9.4      2.369      5.273
REMARK  Name = hidrosmin
REMARK  10 active torsions:
REMARK  status: ('A' for Active; 'I' for Inactive)
REMARK    1  A    between atoms: O_1  and  C_2
REMARK    2  A    between atoms: O_1  and  C_3
REMARK    3  A    between atoms: C_2  and  C_4
REMARK    4  A    between atoms: C_10  and  O_15
REMARK    5  A    between atoms: O_15  and  C_17
REMARK    6  A    between atoms: C_16  and  C_18
REMARK    7  A    between atoms: C_23  and  C_28
REMARK    8  A    between atoms: C_28  and  O_33
REMARK    9  A    between atoms: C_32  and  O_35
REMARK   10  A    between atoms: O_33  and  C_36
REMARK                            x       y       z     vdW  Elec       q    Type
REMARK                         _______ _______ _______ _____ _____    ______ ____
ROOT
ATOM      1  C   UNL     1     113.025 129.447 136.140  0.00  0.00    +0.000 A 
ATOM      2  C   UNL     1     112.225 129.645 136.117  0.00  0.00    +0.000 A 
ATOM      3  C   UNL     1     113.423 129.448 136.864  0.00  0.00    +0.000 A 
ATOM      4  C   UNL     1     111.822 129.844 136.816  0.00  0.00    +0.000 A 
ATOM      5  C   UNL     1     111.828 129.645 135.394  0.00  0.00    +0.000 A 
ATOM      6  C   UNL     1     113.020 129.647 137.563  0.00  0.00    +0.000 A 
ATOM      7  O   UNL     1     111.021 130.043 136.793  0.00  0.00    +0.000 OA
ATOM      8  C   UNL     1     112.219 129.845 137.539  0.00  0.00    +0.000 A 
ATOM      9  O   UNL     1     112.227 129.447 134.700  0.00  0.00    +0.000 OA
ATOM     10  C   UNL     1     111.027 129.843 135.371  0.00  0.00    +0.000 A 
ATOM     11  C   UNL     1     110.625 130.042 136.070  0.00  0.00    +0.000 A 
ENDROOT
BRANCH  11  12
ATOM     12  C   UNL     1     109.824 130.240 136.043  0.00  0.00    +0.000 A 
ATOM     13  C   UNL     1     109.252 129.646 136.022  0.00  0.00    +0.000 A 
ATOM     14  C   UNL     1     109.595 131.035 136.038  0.00  0.00    +0.000 A 
ATOM     15  C   UNL     1     108.451 129.847 135.995  0.00  0.00    +0.000 A 
ATOM     16  C   UNL     1     108.796 131.231 136.012  0.00  0.00    +0.000 A 
ATOM     17  O   UNL     1     107.879 129.252 135.974  0.00  0.00    +0.000 OA
ATOM     18  C   UNL     1     108.224 130.637 135.990  0.00  0.00    +0.000 A 
BRANCH  18  19
ATOM     19  O   UNL     1     107.423 130.837 135.964  0.00  0.00    +0.000 OA
ATOM     20  C   UNL     1     107.195 131.612 135.794  0.00  0.00    +0.000 C 
ENDBRANCH  18  19
ENDBRANCH  11  12
BRANCH   1  21
ATOM     21  O   UNL     1     113.425 129.249 135.446  0.00  0.00    +0.000 OA
BRANCH  21  22
ATOM     22  C   UNL     1     114.248 129.289 135.421  0.00  0.00    +0.000 C 
BRANCH  22  23
ATOM     23  C   UNL     1     114.651 129.100 134.727  0.00  0.00    +0.000 C 
ATOM     24  O   UNL     1     115.426 129.359 134.614  0.00  0.00    +0.000 OA
ENDBRANCH  22  23
ENDBRANCH  21  22
ENDBRANCH   1  21
BRANCH   6  25
ATOM     25  O   UNL     1     113.420 129.647 138.284  0.00  0.00    +0.000 OA
BRANCH  25  26
ATOM     26  C   UNL     1     113.290 129.039 138.828  0.00  0.00    +0.000 C 
ATOM     27  O   UNL     1     113.214 128.260 138.566  0.00  0.00    +0.000 OA
ATOM     28  C   UNL     1     113.235 129.211 139.632  0.00  0.00    +0.000 C 
ATOM     29  C   UNL     1     113.084 127.654 139.108  0.00  0.00    +0.000 C 
ATOM     30  O   UNL     1     113.310 129.990 139.894  0.00  0.00    +0.000 OA
ATOM     31  C   UNL     1     113.104 128.602 140.178  0.00  0.00    +0.000 C 
ATOM     32  C   UNL     1     113.029 127.824 139.916  0.00  0.00    +0.000 C 
ATOM     33  O   UNL     1     113.049 128.774 140.982  0.00  0.00    +0.000 OA
ATOM     34  O   UNL     1     112.898 127.217 140.458  0.00  0.00    +0.000 OA
BRANCH  29  35
ATOM     35  C   UNL     1     113.009 126.875 138.846  0.00  0.00    +0.000 C 
BRANCH  35  36
ATOM     36  O   UNL     1     113.548 126.568 138.302  0.00  0.00    +0.000 OA
BRANCH  36  37
ATOM     37  C   UNL     1     113.379 125.865 137.905  0.00  0.00    +0.000 C 
ATOM     38  C   UNL     1     113.981 125.316 137.769  0.00  0.00    +0.000 C 
ATOM     39  O   UNL     1     112.614 125.713 137.646  0.00  0.00    +0.000 OA
ATOM     40  O   UNL     1     114.748 125.467 138.028  0.00  0.00    +0.000 OA
ATOM     41  C   UNL     1     113.812 124.612 137.372  0.00  0.00    +0.000 C 
ATOM     42  C   UNL     1     112.445 125.010 137.249  0.00  0.00    +0.000 C 
ATOM     43  O   UNL     1     114.411 124.061 137.234  0.00  0.00    +0.000 OA
ATOM     44  C   UNL     1     113.042 124.459 137.111  0.00  0.00    +0.000 C 
ATOM     45  C   UNL     1     111.675 124.856 136.988  0.00  0.00    +0.000 C 
ATOM     46  O   UNL     1     112.873 123.756 136.714  0.00  0.00    +0.000 OA
ENDBRANCH  36  37
ENDBRANCH  35  36
ENDBRANCH  29  35
ENDBRANCH  25  26
ENDBRANCH   6  25
TORSDOF 10
ENDMDL
MODEL 6
REMARK VINA RESULT:      -9.3      2.439      4.948
REMARK  Name = hidrosmin
REMARK  10 active torsions:
REMARK  status: ('A' for Active; 'I' for Inactive)
REMARK    1  A    between atoms: O_1  and  C_2
REMARK    2  A    between atoms: O_1  and  C_3
REMARK    3  A    between atoms: C_2  and  C_4
REMARK    4  A    between atoms: C_10  and  O_15
REMARK    5  A    between atoms: O_15  and  C_17
REMARK    6  A    between atoms: C_16  and  C_18
REMARK    7  A    between atoms: C_23  and  C_28
REMARK    8  A    between atoms: C_28  and  O_33
REMARK    9  A    between atoms: C_32  and  O_35
REMARK   10  A    between atoms: O_33  and  C_36
REMARK                            x       y       z     vdW  Elec       q    Type
REMARK                         _______ _______ _______ _____ _____    ______ ____
ROOT
ATOM      1  C   UNL     1     111.785 129.981 139.381  0.00  0.00    +0.000 A 
ATOM      2  C   UNL     1     112.269 130.006 138.714  0.00  0.00    +0.000 A 
ATOM      3  C   UNL     1     111.867 129.359 139.918  0.00  0.00    +0.000 A 
ATOM      4  C   UNL     1     112.834 129.411 138.582  0.00  0.00    +0.000 A 
ATOM      5  C   UNL     1     112.187 130.628 138.177  0.00  0.00    +0.000 A 
ATOM      6  C   UNL     1     112.432 128.764 139.787  0.00  0.00    +0.000 A 
ATOM      7  O   UNL     1     113.318 129.437 137.914  0.00  0.00    +0.000 OA
ATOM      8  C   UNL     1     112.916 128.790 139.118  0.00  0.00    +0.000 A 
ATOM      9  O   UNL     1     111.626 131.219 138.307  0.00  0.00    +0.000 OA
ATOM     10  C   UNL     1     112.671 130.653 137.509  0.00  0.00    +0.000 A 
ATOM     11  C   UNL     1     113.236 130.058 137.378  0.00  0.00    +0.000 A 
ENDROOT
BRANCH  11  12
ATOM     12  C   UNL     1     113.718 130.087 136.709  0.00  0.00    +0.000 A 
ATOM     13  C   UNL     1     113.541 129.619 136.053  0.00  0.00    +0.000 A 
ATOM     14  C   UNL     1     114.379 130.584 136.697  0.00  0.00    +0.000 A 
ATOM     15  C   UNL     1     114.026 129.649 135.384  0.00  0.00    +0.000 A 
ATOM     16  C   UNL     1     114.860 130.612 136.029  0.00  0.00    +0.000 A 
ATOM     17  O   UNL     1     113.850 129.182 134.727  0.00  0.00    +0.000 OA
ATOM     18  C   UNL     1     114.683 130.144 135.373  0.00  0.00    +0.000 A 
BRANCH  18  19
ATOM     19  O   UNL     1     115.166 130.174 134.704  0.00  0.00    +0.000 OA
ATOM     20  C   UNL     1     115.710 130.789 134.612  0.00  0.00    +0.000 C 
ENDBRANCH  18  19
ENDBRANCH  11  12
BRANCH   1  21
ATOM     21  O   UNL     1     111.224 130.572 139.511  0.00  0.00    +0.000 OA
BRANCH  21  22
ATOM     22  C   UNL     1     110.779 130.570 140.206  0.00  0.00    +0.000 C 
BRANCH  22  23
ATOM     23  C   UNL     1     110.185 131.129 140.318  0.00  0.00    +0.000 C 
ATOM     24  O   UNL     1     109.759 131.147 141.024  0.00  0.00    +0.000 OA
ENDBRANCH  22  23
ENDBRANCH  21  22
ENDBRANCH   1  21
BRANCH   6  25
ATOM     25  O   UNL     1     112.511 128.144 140.325  0.00  0.00    +0.000 OA
BRANCH  25  26
ATOM     26  C   UNL     1     111.961 127.529 140.329  0.00  0.00    +0.000 C 
ATOM     27  O   UNL     1     111.735 127.172 139.620  0.00  0.00    +0.000 OA
ATOM     28  C   UNL     1     111.636 127.271 141.042  0.00  0.00    +0.000 C 
ATOM     29  C   UNL     1     111.186 126.558 139.624  0.00  0.00    +0.000 C 
ATOM     30  O   UNL     1     111.862 127.627 141.751  0.00  0.00    +0.000 OA
ATOM     31  C   UNL     1     111.085 126.654 141.047  0.00  0.00    +0.000 C 
ATOM     32  C   UNL     1     110.859 126.298 140.338  0.00  0.00    +0.000 C 
ATOM     33  O   UNL     1     110.760 126.396 141.760  0.00  0.00    +0.000 OA
ATOM     34  O   UNL     1     110.310 125.683 140.342  0.00  0.00    +0.000 OA
BRANCH  29  35
ATOM     35  C   UNL     1     110.960 126.201 138.915  0.00  0.00    +0.000 C 
BRANCH  35  36
ATOM     36  O   UNL     1     111.505 125.754 138.486  0.00  0.00    +0.000 OA
BRANCH  36  37
ATOM     37  C   UNL     1     111.343 125.544 137.705  0.00  0.00    +0.000 C 
ATOM     38  C   UNL     1     111.669 124.853 137.389  0.00  0.00    +0.000 C 
ATOM     39  O   UNL     1     110.859 126.022 137.243  0.00  0.00    +0.000 OA
ATOM     40  O   UNL     1     112.154 124.374 137.851  0.00  0.00    +0.000 OA
ATOM     41  C   UNL     1     111.507 124.644 136.608  0.00  0.00    +0.000 C 
ATOM     42  C   UNL     1     110.697 125.812 136.461  0.00  0.00    +0.000 C 
ATOM     43  O   UNL     1     111.831 123.955 136.289  0.00  0.00    +0.000 OA
ATOM     44  C   UNL     1     111.020 125.124 136.142  0.00  0.00    +0.000 C 
ATOM     45  C   UNL     1     110.210 126.292 135.996  0.00  0.00    +0.000 C 
ATOM     46  O   UNL     1     110.858 124.914 135.361  0.00  0.00    +0.000 OA
ENDBRANCH  36  37
ENDBRANCH  35  36
ENDBRANCH  29  35
ENDBRANCH  25  26
ENDBRANCH   6  25
TORSDOF 10
ENDMDL
MODEL 7
REMARK VINA RESULT:      -9.3      2.271      6.149
REMARK  Name = hidrosmin
REMARK  10 active torsions:
REMARK  status: ('A' for Active; 'I' for Inactive)
REMARK    1  A    between atoms: O_1  and  C_2
REMARK    2  A    between atoms: O_1  and  C_3
REMARK    3  A    between atoms: C_2  and  C_4
REMARK    4  A    between atoms: C_10  and  O_15
REMARK    5  A    between atoms: O_15  and  C_17
REMARK    6  A    between atoms: C_16  and  C_18
REMARK    7  A    between atoms: C_23  and  C_28
REMARK    8  A    between atoms: C_28  and  O_33
REMARK    9  A    between atoms: C_32  and  O_35
REMARK   10  A    between atoms: O_33  and  C_36
REMARK                            x       y       z     vdW  Elec       q    Type
REMARK                         _______ _______ _______ _____ _____    ______ ____
ROOT
ATOM      1  C   UNL     1     113.400 129.709 139.705  0.00  0.00    +0.000 A 
ATOM      2  C   UNL     1     112.788 129.235 139.989  0.00  0.00    +0.000 A 
ATOM      3  C   UNL     1     113.370 129.988 138.928  0.00  0.00    +0.000 A 
ATOM      4  C   UNL     1     112.147 129.038 139.498  0.00  0.00    +0.000 A 
ATOM      5  C   UNL     1     112.819 128.956 140.766  0.00  0.00    +0.000 A 
ATOM      6  C   UNL     1     112.728 129.791 138.437  0.00  0.00    +0.000 A 
ATOM      7  O   UNL     1     111.536 128.562 139.784  0.00  0.00    +0.000 OA
ATOM      8  C   UNL     1     112.117 129.315 138.723  0.00  0.00    +0.000 A 
ATOM      9  O   UNL     1     113.455 129.152 141.253  0.00  0.00    +0.000 OA
ATOM     10  C   UNL     1     112.207 128.482 141.050  0.00  0.00    +0.000 A 
ATOM     11  C   UNL     1     111.566 128.285 140.560  0.00  0.00    +0.000 A 
ENDROOT
BRANCH  11  12
ATOM     12  C   UNL     1     110.957 127.810 140.847  0.00  0.00    +0.000 A 
ATOM     13  C   UNL     1     111.062 126.994 140.908  0.00  0.00    +0.000 A 
ATOM     14  C   UNL     1     110.238 128.151 141.075  0.00  0.00    +0.000 A 
ATOM     15  C   UNL     1     110.450 126.519 141.197  0.00  0.00    +0.000 A 
ATOM     16  C   UNL     1     109.630 127.676 141.362  0.00  0.00    +0.000 A 
ATOM     17  O   UNL     1     110.555 125.703 141.258  0.00  0.00    +0.000 OA
ATOM     18  C   UNL     1     109.736 126.860 141.423  0.00  0.00    +0.000 A 
BRANCH  18  19
ATOM     19  O   UNL     1     109.125 126.386 141.711  0.00  0.00    +0.000 OA
ATOM     20  C   UNL     1     108.350 126.672 141.726  0.00  0.00    +0.000 C 
ENDBRANCH  18  19
ENDBRANCH  11  12
BRANCH   1  21
ATOM     21  O   UNL     1     114.036 129.905 140.192  0.00  0.00    +0.000 OA
BRANCH  21  22
ATOM     22  C   UNL     1     114.428 130.623 140.088  0.00  0.00    +0.000 C 
BRANCH  22  23
ATOM     23  C   UNL     1     115.053 130.830 140.584  0.00  0.00    +0.000 C 
ATOM     24  O   UNL     1     115.234 131.624 140.712  0.00  0.00    +0.000 OA
ENDBRANCH  22  23
ENDBRANCH  21  22
ENDBRANCH   1  21
BRANCH   6  25
ATOM     25  O   UNL     1     112.701 130.070 137.662  0.00  0.00    +0.000 OA
BRANCH  25  26
ATOM     26  C   UNL     1     113.157 129.708 137.077  0.00  0.00    +0.000 C 
ATOM     27  O   UNL     1     113.203 128.885 137.040  0.00  0.00    +0.000 OA
ATOM     28  C   UNL     1     113.566 130.169 136.529  0.00  0.00    +0.000 C 
ATOM     29  C   UNL     1     113.658 128.523 136.456  0.00  0.00    +0.000 C 
ATOM     30  O   UNL     1     113.520 130.992 136.566  0.00  0.00    +0.000 OA
ATOM     31  C   UNL     1     114.024 129.806 135.942  0.00  0.00    +0.000 C 
ATOM     32  C   UNL     1     114.069 128.983 135.906  0.00  0.00    +0.000 C 
ATOM     33  O   UNL     1     114.433 130.268 135.394  0.00  0.00    +0.000 OA
ATOM     34  O   UNL     1     114.525 128.622 135.321  0.00  0.00    +0.000 OA
BRANCH  29  35
ATOM     35  C   UNL     1     113.704 127.700 136.419  0.00  0.00    +0.000 C 
BRANCH  35  36
ATOM     36  O   UNL     1     113.027 127.243 136.534  0.00  0.00    +0.000 OA
BRANCH  36  37
ATOM     37  C   UNL     1     113.087 126.422 136.589  0.00  0.00    +0.000 C 
ATOM     38  C   UNL     1     112.449 125.947 136.365  0.00  0.00    +0.000 C 
ATOM     39  O   UNL     1     113.781 126.079 136.866  0.00  0.00    +0.000 OA
ATOM     40  O   UNL     1     111.753 126.291 136.088  0.00  0.00    +0.000 OA
ATOM     41  C   UNL     1     112.509 125.126 136.421  0.00  0.00    +0.000 C 
ATOM     42  C   UNL     1     113.841 125.258 136.922  0.00  0.00    +0.000 C 
ATOM     43  O   UNL     1     111.874 124.649 136.198  0.00  0.00    +0.000 OA
ATOM     44  C   UNL     1     113.207 124.780 136.700  0.00  0.00    +0.000 C 
ATOM     45  C   UNL     1     114.538 124.912 137.200  0.00  0.00    +0.000 C 
ATOM     46  O   UNL     1     113.267 123.959 136.755  0.00  0.00    +0.000 OA
ENDBRANCH  36  37
ENDBRANCH  35  36
ENDBRANCH  29  35
ENDBRANCH  25  26
ENDBRANCH   6  25
TORSDOF 10
ENDMDL
MODEL 8
REMARK VINA RESULT:      -9.3      2.636      5.081
REMARK  Name = hidrosmin
REMARK  10 active torsions:
REMARK  status: ('A' for Active; 'I' for Inactive)
REMARK    1  A    between atoms: O_1  and  C_2
REMARK    2  A    between atoms: O_1  and  C_3
REMARK    3  A    between atoms: C_2  and  C_4
REMARK    4  A    between atoms: C_10  and  O_15
REMARK    5  A    between atoms: O_15  and  C_17
REMARK    6  A    between atoms: C_16  and  C_18
REMARK    7  A    between atoms: C_23  and  C_28
REMARK    8  A    between atoms: C_28  and  O_33
REMARK    9  A    between atoms: C_32  and  O_35
REMARK   10  A    between atoms: O_33  and  C_36
REMARK                            x       y       z     vdW  Elec       q    Type
REMARK                         _______ _______ _______ _____ _____    ______ ____
ROOT
ATOM      1  C   UNL     1     113.622 129.473 136.788  0.00  0.00    +0.000 A 
ATOM      2  C   UNL     1     113.521 128.655 136.816  0.00  0.00    +0.000 A 
ATOM      3  C   UNL     1     113.484 129.922 137.467  0.00  0.00    +0.000 A 
ATOM      4  C   UNL     1     113.283 128.286 137.521  0.00  0.00    +0.000 A 
ATOM      5  C   UNL     1     113.659 128.206 136.137  0.00  0.00    +0.000 A 
ATOM      6  C   UNL     1     113.245 129.553 138.172  0.00  0.00    +0.000 A 
ATOM      7  O   UNL     1     113.182 127.467 137.548  0.00  0.00    +0.000 OA
ATOM      8  C   UNL     1     113.145 128.734 138.199  0.00  0.00    +0.000 A 
ATOM      9  O   UNL     1     113.896 128.573 135.437  0.00  0.00    +0.000 OA
ATOM     10  C   UNL     1     113.559 127.388 136.165  0.00  0.00    +0.000 A 
ATOM     11  C   UNL     1     113.320 127.019 136.870  0.00  0.00    +0.000 A 
ENDROOT
BRANCH  11  12
ATOM     12  C   UNL     1     113.221 126.200 136.894  0.00  0.00    +0.000 A 
ATOM     13  C   UNL     1     113.845 125.715 137.130  0.00  0.00    +0.000 A 
ATOM     14  C   UNL     1     112.494 125.865 136.682  0.00  0.00    +0.000 A 
ATOM     15  C   UNL     1     113.743 124.895 137.153  0.00  0.00    +0.000 A 
ATOM     16  C   UNL     1     112.396 125.048 136.707  0.00  0.00    +0.000 A 
ATOM     17  O   UNL     1     114.367 124.409 137.389  0.00  0.00    +0.000 OA
ATOM     18  C   UNL     1     113.020 124.563 136.942  0.00  0.00    +0.000 A 
BRANCH  18  19
ATOM     19  O   UNL     1     112.919 123.744 136.966  0.00  0.00    +0.000 OA
ATOM     20  C   UNL     1     112.161 123.419 136.924  0.00  0.00    +0.000 C 
ENDBRANCH  18  19
ENDBRANCH  11  12
BRANCH   1  21
ATOM     21  O   UNL     1     113.859 129.840 136.088  0.00  0.00    +0.000 OA
BRANCH  21  22
ATOM     22  C   UNL     1     114.317 130.524 136.118  0.00  0.00    +0.000 C 
BRANCH  22  23
ATOM     23  C   UNL     1     114.564 130.888 135.421  0.00  0.00    +0.000 C 
ATOM     24  O   UNL     1     115.188 131.427 135.433  0.00  0.00    +0.000 OA
ENDBRANCH  22  23
ENDBRANCH  21  22
ENDBRANCH   1  21
BRANCH   6  25
ATOM     25  O   UNL     1     113.108 130.004 138.849  0.00  0.00    +0.000 OA
BRANCH  25  26
ATOM     26  C   UNL     1     112.338 130.099 139.131  0.00  0.00    +0.000 C 
ATOM     27  O   UNL     1     111.718 130.228 138.603  0.00  0.00    +0.000 OA
ATOM     28  C   UNL     1     112.190 130.066 139.942  0.00  0.00    +0.000 C 
ATOM     29  C   UNL     1     110.949 130.323 138.885  0.00  0.00    +0.000 C 
ATOM     30  O   UNL     1     112.810 129.938 140.471  0.00  0.00    +0.000 OA
ATOM     31  C   UNL     1     111.419 130.162 140.226  0.00  0.00    +0.000 C 
ATOM     32  C   UNL     1     110.798 130.290 139.698  0.00  0.00    +0.000 C 
ATOM     33  O   UNL     1     111.270 130.128 141.037  0.00  0.00    +0.000 OA
ATOM     34  O   UNL     1     110.030 130.385 139.980  0.00  0.00    +0.000 OA
BRANCH  29  35
ATOM     35  C   UNL     1     110.329 130.452 138.357  0.00  0.00    +0.000 C 
BRANCH  35  36
ATOM     36  O   UNL     1     110.169 129.900 137.765  0.00  0.00    +0.000 OA
BRANCH  36  37
ATOM     37  C   UNL     1     109.582 130.051 137.206  0.00  0.00    +0.000 C 
ATOM     38  C   UNL     1     109.350 129.456 136.681  0.00  0.00    +0.000 C 
ATOM     39  O   UNL     1     109.228 130.793 137.172  0.00  0.00    +0.000 OA
ATOM     40  O   UNL     1     109.704 128.713 136.715  0.00  0.00    +0.000 OA
ATOM     41  C   UNL     1     108.763 129.608 136.122  0.00  0.00    +0.000 C 
ATOM     42  C   UNL     1     108.641 130.945 136.613  0.00  0.00    +0.000 C 
ATOM     43  O   UNL     1     108.529 129.017 135.597  0.00  0.00    +0.000 OA
ATOM     44  C   UNL     1     108.407 130.355 136.088  0.00  0.00    +0.000 C 
ATOM     45  C   UNL     1     108.285 131.691 136.579  0.00  0.00    +0.000 C 
ATOM     46  O   UNL     1     107.819 130.507 135.529  0.00  0.00    +0.000 OA
ENDBRANCH  36  37
ENDBRANCH  35  36
ENDBRANCH  29  35
ENDBRANCH  25  26
ENDBRANCH   6  25
TORSDOF 10
ENDMDL
MODEL 9
REMARK VINA RESULT:      -9.2      2.553      5.782
REMARK  Name = hidrosmin
REMARK  10 active torsions:
REMARK  status: ('A' for Active; 'I' for Inactive)
REMARK    1  A    between atoms: O_1  and  C_2
REMARK    2  A    between atoms: O_1  and  C_3
REMARK    3  A    between atoms: C_2  and  C_4
REMARK    4  A    between atoms: C_10  and  O_15
REMARK    5  A    between atoms: O_15  and  C_17
REMARK    6  A    between atoms: C_16  and  C_18
REMARK    7  A    between atoms: C_23  and  C_28
REMARK    8  A    between atoms: C_28  and  O_33
REMARK    9  A    between atoms: C_32  and  O_35
REMARK   10  A    between atoms: O_33  and  C_36
REMARK                            x       y       z     vdW  Elec       q    Type
REMARK                         _______ _______ _______ _____ _____    ______ ____
ROOT
ATOM      1  C   UNL     1     112.355 130.392 138.642  0.00  0.00    +0.000 A 
ATOM      2  C   UNL     1     111.659 130.492 138.212  0.00  0.00    +0.000 A 
ATOM      3  C   UNL     1     113.081 130.537 138.278  0.00  0.00    +0.000 A 
ATOM      4  C   UNL     1     111.688 130.737 137.418  0.00  0.00    +0.000 A 
ATOM      5  C   UNL     1     110.932 130.347 138.576  0.00  0.00    +0.000 A 
ATOM      6  C   UNL     1     113.111 130.782 137.485  0.00  0.00    +0.000 A 
ATOM      7  O   UNL     1     110.991 130.838 136.988  0.00  0.00    +0.000 OA
ATOM      8  C   UNL     1     112.414 130.882 137.054  0.00  0.00    +0.000 A 
ATOM      9  O   UNL     1     110.903 130.103 139.364  0.00  0.00    +0.000 OA
ATOM     10  C   UNL     1     110.236 130.448 138.145  0.00  0.00    +0.000 A 
ATOM     11  C   UNL     1     110.265 130.693 137.352  0.00  0.00    +0.000 A 
ENDROOT
BRANCH  11  12
ATOM     12  C   UNL     1     109.567 130.792 136.925  0.00  0.00    +0.000 A 
ATOM     13  C   UNL     1     109.246 130.159 136.504  0.00  0.00    +0.000 A 
ATOM     14  C   UNL     1     109.188 131.528 136.917  0.00  0.00    +0.000 A 
ATOM     15  C   UNL     1     108.546 130.261 136.077  0.00  0.00    +0.000 A 
ATOM     16  C   UNL     1     108.491 131.626 136.490  0.00  0.00    +0.000 A 
ATOM     17  O   UNL     1     108.225 129.628 135.656  0.00  0.00    +0.000 OA
ATOM     18  C   UNL     1     108.170 130.993 136.070  0.00  0.00    +0.000 A 
BRANCH  18  19
ATOM     19  O   UNL     1     107.471 131.094 135.642  0.00  0.00    +0.000 OA
ATOM     20  C   UNL     1     107.081 131.822 135.651  0.00  0.00    +0.000 C 
ENDBRANCH  18  19
ENDBRANCH  11  12
BRANCH   1  21
ATOM     21  O   UNL     1     112.326 130.148 139.430  0.00  0.00    +0.000 OA
BRANCH  21  22
ATOM     22  C   UNL     1     113.025 130.049 139.855  0.00  0.00    +0.000 C 
BRANCH  22  23
ATOM     23  C   UNL     1     113.001 129.796 140.639  0.00  0.00    +0.000 C 
ATOM     24  O   UNL     1     113.685 129.808 141.100  0.00  0.00    +0.000 OA
ENDBRANCH  22  23
ENDBRANCH  21  22
ENDBRANCH   1  21
BRANCH   6  25
ATOM     25  O   UNL     1     113.838 130.926 137.123  0.00  0.00    +0.000 OA
BRANCH  25  26
ATOM     26  C   UNL     1     114.105 130.429 136.520  0.00  0.00    +0.000 C 
ATOM     27  O   UNL     1     113.974 129.616 136.568  0.00  0.00    +0.000 OA
ATOM     28  C   UNL     1     114.501 130.747 135.870  0.00  0.00    +0.000 C 
ATOM     29  C   UNL     1     114.241 129.120 135.966  0.00  0.00    +0.000 C 
ATOM     30  O   UNL     1     114.631 131.560 135.823  0.00  0.00    +0.000 OA
ATOM     31  C   UNL     1     114.768 130.249 135.265  0.00  0.00    +0.000 C 
ATOM     32  C   UNL     1     114.638 129.436 135.313  0.00  0.00    +0.000 C 
ATOM     33  O   UNL     1     115.165 130.567 134.615  0.00  0.00    +0.000 OA
ATOM     34  O   UNL     1     114.904 128.940 134.711  0.00  0.00    +0.000 OA
BRANCH  29  35
ATOM     35  C   UNL     1     114.111 128.307 136.014  0.00  0.00    +0.000 C 
BRANCH  35  36
ATOM     36  O   UNL     1     113.374 128.020 136.250  0.00  0.00    +0.000 OA
BRANCH  36  37
ATOM     37  C   UNL     1     113.267 127.211 136.373  0.00  0.00    +0.000 C 
ATOM     38  C   UNL     1     112.504 126.893 136.368  0.00  0.00    +0.000 C 
ATOM     39  O   UNL     1     113.917 126.724 136.500  0.00  0.00    +0.000 OA
ATOM     40  O   UNL     1     111.852 127.380 136.241  0.00  0.00    +0.000 OA
ATOM     41  C   UNL     1     112.396 126.084 136.491  0.00  0.00    +0.000 C 
ATOM     42  C   UNL     1     113.809 125.915 136.623  0.00  0.00    +0.000 C 
ATOM     43  O   UNL     1     111.636 125.762 136.487  0.00  0.00    +0.000 OA
ATOM     44  C   UNL     1     113.051 125.594 136.619  0.00  0.00    +0.000 C 
ATOM     45  C   UNL     1     114.463 125.425 136.750  0.00  0.00    +0.000 C 
ATOM     46  O   UNL     1     112.943 124.785 136.741  0.00  0.00    +0.000 OA
ENDBRANCH  36  37
ENDBRANCH  35  36
ENDBRANCH  29  35
ENDBRANCH  25  26
ENDBRANCH   6  25
TORSDOF 10
ENDMDL
MODEL 10
REMARK VINA RESULT:      -9.2      2.783      4.999
REMARK  Name = hidrosmin
REMARK  10 active torsions:
REMARK  status: ('A' for Active; 'I' for Inactive)
REMARK    1  A    between atoms: O_1  and  C_2
REMARK    2  A    between atoms: O_1  and  C_3
REMARK    3  A    between atoms: C_2  and  C_4
REMARK    4  A    between atoms: C_10  and  O_15
REMARK    5  A    between atoms: O_15  and  C_17
REMARK    6  A    between atoms: C_16  and  C_18
REMARK    7  A    between atoms: C_23  and  C_28
REMARK    8  A    between atoms: C_28  and  O_33
REMARK    9  A    between atoms: C_32  and  O_35
REMARK   10  A    between atoms: O_33  and  C_36
REMARK                            x       y       z     vdW  Elec       q    Type
REMARK                         _______ _______ _______ _____ _____    ______ ____
ROOT
ATOM      1  C   UNL     1     111.433 128.930 135.551  0.00  0.00    +0.000 A 
ATOM      2  C   UNL     1     111.607 128.150 135.753  0.00  0.00    +0.000 A 
ATOM      3  C   UNL     1     111.914 129.539 135.832  0.00  0.00    +0.000 A 
ATOM      4  C   UNL     1     112.262 127.978 136.235  0.00  0.00    +0.000 A 
ATOM      5  C   UNL     1     111.126 127.541 135.472  0.00  0.00    +0.000 A 
ATOM      6  C   UNL     1     112.569 129.367 136.314  0.00  0.00    +0.000 A 
ATOM      7  O   UNL     1     112.435 127.196 136.437  0.00  0.00    +0.000 OA
ATOM      8  C   UNL     1     112.743 128.586 136.516  0.00  0.00    +0.000 A 
ATOM      9  O   UNL     1     110.476 127.712 134.994  0.00  0.00    +0.000 OA
ATOM     10  C   UNL     1     111.300 126.761 135.674  0.00  0.00    +0.000 A 
ATOM     11  C   UNL     1     111.954 126.589 136.157  0.00  0.00    +0.000 A 
ENDROOT
BRANCH  11  12
ATOM     12  C   UNL     1     112.125 125.807 136.357  0.00  0.00    +0.000 A 
ATOM     13  C   UNL     1     112.901 125.530 136.315  0.00  0.00    +0.000 A 
ATOM     14  C   UNL     1     111.519 125.300 136.600  0.00  0.00    +0.000 A 
ATOM     15  C   UNL     1     113.071 124.746 136.516  0.00  0.00    +0.000 A 
ATOM     16  C   UNL     1     111.691 124.520 136.800  0.00  0.00    +0.000 A 
ATOM     17  O   UNL     1     113.847 124.469 136.474  0.00  0.00    +0.000 OA
ATOM     18  C   UNL     1     112.467 124.243 136.758  0.00  0.00    +0.000 A 
BRANCH  18  19
ATOM     19  O   UNL     1     112.637 123.461 136.958  0.00  0.00    +0.000 OA
ATOM     20  C   UNL     1     112.053 122.982 137.293  0.00  0.00    +0.000 C 
ENDBRANCH  18  19
ENDBRANCH  11  12
BRANCH   1  21
ATOM     21  O   UNL     1     110.783 129.101 135.072  0.00  0.00    +0.000 OA
BRANCH  21  22
ATOM     22  C   UNL     1     110.445 129.853 135.092  0.00  0.00    +0.000 C 
BRANCH  22  23
ATOM     23  C   UNL     1     109.798 130.029 134.613  0.00  0.00    +0.000 C 
ATOM     24  O   UNL     1     109.426 130.762 134.670  0.00  0.00    +0.000 OA
ENDBRANCH  22  23
ENDBRANCH  21  22
ENDBRANCH   1  21
BRANCH   6  25
ATOM     25  O   UNL     1     113.048 129.977 136.593  0.00  0.00    +0.000 OA
BRANCH  25  26
ATOM     26  C   UNL     1     113.065 130.152 137.400  0.00  0.00    +0.000 C 
ATOM     27  O   UNL     1     112.370 130.120 137.844  0.00  0.00    +0.000 OA
ATOM     28  C   UNL     1     113.776 130.360 137.762  0.00  0.00    +0.000 C 
ATOM     29  C   UNL     1     112.387 130.295 138.649  0.00  0.00    +0.000 C 
ATOM     30  O   UNL     1     114.471 130.392 137.318  0.00  0.00    +0.000 OA
ATOM     31  C   UNL     1     113.794 130.535 138.570  0.00  0.00    +0.000 C 
ATOM     32  C   UNL     1     113.099 130.503 139.014  0.00  0.00    +0.000 C 
ATOM     33  O   UNL     1     114.506 130.742 138.932  0.00  0.00    +0.000 OA
ATOM     34  O   UNL     1     113.116 130.677 139.819  0.00  0.00    +0.000 OA
BRANCH  29  35
ATOM     35  C   UNL     1     111.692 130.262 139.093  0.00  0.00    +0.000 C 
BRANCH  35  36
ATOM     36  O   UNL     1     111.012 130.645 138.825  0.00  0.00    +0.000 OA
BRANCH  36  37
ATOM     37  C   UNL     1     110.279 130.469 139.159  0.00  0.00    +0.000 C 
ATOM     38  C   UNL     1     109.661 131.015 139.106  0.00  0.00    +0.000 C 
ATOM     39  O   UNL     1     110.165 129.751 139.543  0.00  0.00    +0.000 OA
ATOM     40  O   UNL     1     109.774 131.734 138.721  0.00  0.00    +0.000 OA
ATOM     41  C   UNL     1     108.928 130.838 139.441  0.00  0.00    +0.000 C 
ATOM     42  C   UNL     1     109.432 129.574 139.878  0.00  0.00    +0.000 C 
ATOM     43  O   UNL     1     108.308 131.380 139.390  0.00  0.00    +0.000 OA
ATOM     44  C   UNL     1     108.813 130.115 139.828  0.00  0.00    +0.000 C 
ATOM     45  C   UNL     1     109.317 128.852 140.264  0.00  0.00    +0.000 C 
ATOM     46  O   UNL     1     108.080 129.938 140.162  0.00  0.00    +0.000 OA
ENDBRANCH  36  37
ENDBRANCH  35  36
ENDBRANCH  29  35
ENDBRANCH  25  26
ENDBRANCH   6  25
TORSDOF 10
ENDMDL
