MODEL 1
REMARK VINA RESULT:      -7.8      0.000      0.000
REMARK  Name = 
REMARK  3 active torsions:
REMARK  status: ('A' for Active; 'I' for Inactive)
REMARK    1  A    between atoms: C_1  and  O_19
REMARK    2  A    between atoms: C_3  and  O_17
REMARK    3  A    between atoms: C_9  and  C_11
REMARK                            x       y       z     vdW  Elec       q    Type
REMARK                         _______ _______ _______ _____ _____    ______ ____
ROOT
ATOM      1  C   UNL     1     102.788 123.423 145.855  0.00  0.00    +0.000 A 
ATOM      2  C   UNL     1     102.141 123.774 146.469  0.00  0.00    +0.000 A 
ATOM      3  C   UNL     1     102.430 124.241 147.255  0.00  0.00    +0.000 A 
ATOM      4  C   UNL     1     103.366 124.356 147.427  0.00  0.00    +0.000 A 
ATOM      5  C   UNL     1     104.013 124.005 146.813  0.00  0.00    +0.000 A 
ATOM      6  C   UNL     1     103.724 123.538 146.027  0.00  0.00    +0.000 A 
ATOM      7  C   UNL     1     103.655 124.823 148.213  0.00  0.00    +0.000 C 
ATOM      8  C   UNL     1     104.590 124.938 148.385  0.00  0.00    +0.000 C 
ATOM      9  C   UNL     1     105.238 124.587 147.771  0.00  0.00    +0.000 C 
ATOM     10  O   UNL     1     104.949 124.120 146.985  0.00  0.00    +0.000 OA
ENDROOT
BRANCH   9  11
ATOM     11  C   UNL     1     106.173 124.702 147.942  0.00  0.00    +0.000 A 
ATOM     12  C   UNL     1     106.556 124.394 148.786  0.00  0.00    +0.000 A 
ATOM     13  C   UNL     1     107.509 124.511 148.962  0.00  0.00    +0.000 A 
ATOM     14  C   UNL     1     108.080 124.936 148.293  0.00  0.00    +0.000 A 
ATOM     15  C   UNL     1     107.697 125.244 147.449  0.00  0.00    +0.000 A 
ATOM     16  C   UNL     1     106.744 125.127 147.273  0.00  0.00    +0.000 A 
ENDBRANCH   9  11
BRANCH   3  17
ATOM     17  O   UNL     1     101.784 124.592 147.869  0.00  0.00    +0.000 OA
ATOM     18  C   UNL     1     100.840 123.892 148.237  0.00  0.00    +0.000 C 
ENDBRANCH   3  17
BRANCH   1  19
ATOM     19  O   UNL     1     102.499 122.956 145.070  0.00  0.00    +0.000 OA
ATOM     20  C   UNL     1     101.042 122.808 144.784  0.00  0.00    +0.000 C 
ENDBRANCH   1  19
TORSDOF 3
ENDMDL
MODEL 2
REMARK VINA RESULT:      -7.3      0.863      2.282
REMARK  Name = 
REMARK  3 active torsions:
REMARK  status: ('A' for Active; 'I' for Inactive)
REMARK    1  A    between atoms: C_1  and  O_19
REMARK    2  A    between atoms: C_3  and  O_17
REMARK    3  A    between atoms: C_9  and  C_11
REMARK                            x       y       z     vdW  Elec       q    Type
REMARK                         _______ _______ _______ _____ _____    ______ ____
ROOT
ATOM      1  C   UNL     1     101.793 124.347 148.032  0.00  0.00    +0.000 A 
ATOM      2  C   UNL     1     101.622 123.979 147.163  0.00  0.00    +0.000 A 
ATOM      3  C   UNL     1     102.347 123.838 146.552  0.00  0.00    +0.000 A 
ATOM      4  C   UNL     1     103.242 124.064 146.809  0.00  0.00    +0.000 A 
ATOM      5  C   UNL     1     103.412 124.432 147.678  0.00  0.00    +0.000 A 
ATOM      6  C   UNL     1     102.688 124.573 148.289  0.00  0.00    +0.000 A 
ATOM      7  C   UNL     1     103.967 123.923 146.198  0.00  0.00    +0.000 C 
ATOM      8  C   UNL     1     104.862 124.150 146.456  0.00  0.00    +0.000 C 
ATOM      9  C   UNL     1     105.032 124.517 147.325  0.00  0.00    +0.000 C 
ATOM     10  O   UNL     1     104.307 124.658 147.936  0.00  0.00    +0.000 OA
ENDROOT
BRANCH   9  11
ATOM     11  C   UNL     1     105.926 124.744 147.582  0.00  0.00    +0.000 A 
ATOM     12  C   UNL     1     106.440 125.382 147.051  0.00  0.00    +0.000 A 
ATOM     13  C   UNL     1     107.352 125.613 147.313  0.00  0.00    +0.000 A 
ATOM     14  C   UNL     1     107.750 125.206 148.107  0.00  0.00    +0.000 A 
ATOM     15  C   UNL     1     107.236 124.567 148.638  0.00  0.00    +0.000 A 
ATOM     16  C   UNL     1     106.324 124.336 148.376  0.00  0.00    +0.000 A 
ENDBRANCH   9  11
BRANCH   3  17
ATOM     17  O   UNL     1     102.177 123.471 145.684  0.00  0.00    +0.000 OA
ATOM     18  C   UNL     1     101.033 123.143 145.367  0.00  0.00    +0.000 C 
ENDBRANCH   3  17
BRANCH   1  19
ATOM     19  O   UNL     1     101.068 124.488 148.643  0.00  0.00    +0.000 OA
ATOM     20  C   UNL     1     101.119 125.622 149.612  0.00  0.00    +0.000 C 
ENDBRANCH   1  19
TORSDOF 3
ENDMDL
MODEL 3
REMARK VINA RESULT:      -7.3     12.962     14.495
REMARK  Name = 
REMARK  3 active torsions:
REMARK  status: ('A' for Active; 'I' for Inactive)
REMARK    1  A    between atoms: C_1  and  O_19
REMARK    2  A    between atoms: C_3  and  O_17
REMARK    3  A    between atoms: C_9  and  C_11
REMARK                            x       y       z     vdW  Elec       q    Type
REMARK                         _______ _______ _______ _____ _____    ______ ____
ROOT
ATOM      1  C   UNL     1     110.717 126.077 135.602  0.00  0.00    +0.000 A 
ATOM      2  C   UNL     1     111.164 125.347 136.035  0.00  0.00    +0.000 A 
ATOM      3  C   UNL     1     112.055 125.461 136.368  0.00  0.00    +0.000 A 
ATOM      4  C   UNL     1     112.500 126.304 136.269  0.00  0.00    +0.000 A 
ATOM      5  C   UNL     1     112.053 127.034 135.836  0.00  0.00    +0.000 A 
ATOM      6  C   UNL     1     111.162 126.920 135.503  0.00  0.00    +0.000 A 
ATOM      7  C   UNL     1     113.391 126.418 136.603  0.00  0.00    +0.000 C 
ATOM      8  C   UNL     1     113.836 127.261 136.504  0.00  0.00    +0.000 C 
ATOM      9  C   UNL     1     113.389 127.991 136.071  0.00  0.00    +0.000 C 
ATOM     10  O   UNL     1     112.498 127.877 135.737  0.00  0.00    +0.000 OA
ENDROOT
BRANCH   9  11
ATOM     11  C   UNL     1     113.833 128.833 135.971  0.00  0.00    +0.000 A 
ATOM     12  C   UNL     1     113.734 129.521 136.657  0.00  0.00    +0.000 A 
ATOM     13  C   UNL     1     114.186 130.381 136.557  0.00  0.00    +0.000 A 
ATOM     14  C   UNL     1     114.739 130.552 135.769  0.00  0.00    +0.000 A 
ATOM     15  C   UNL     1     114.839 129.864 135.084  0.00  0.00    +0.000 A 
ATOM     16  C   UNL     1     114.386 129.004 135.184  0.00  0.00    +0.000 A 
ENDBRANCH   9  11
BRANCH   3  17
ATOM     17  O   UNL     1     112.501 124.732 136.801  0.00  0.00    +0.000 OA
ATOM     18  C   UNL     1     111.960 123.628 136.862  0.00  0.00    +0.000 C 
ENDBRANCH   3  17
BRANCH   1  19
ATOM     19  O   UNL     1     109.826 125.963 135.268  0.00  0.00    +0.000 OA
ATOM     20  C   UNL     1     108.733 126.864 135.737  0.00  0.00    +0.000 C 
ENDBRANCH   1  19
TORSDOF 3
ENDMDL
MODEL 4
REMARK VINA RESULT:      -7.2      3.140      3.952
REMARK  Name = 
REMARK  3 active torsions:
REMARK  status: ('A' for Active; 'I' for Inactive)
REMARK    1  A    between atoms: C_1  and  O_19
REMARK    2  A    between atoms: C_3  and  O_17
REMARK    3  A    between atoms: C_9  and  C_11
REMARK                            x       y       z     vdW  Elec       q    Type
REMARK                         _______ _______ _______ _____ _____    ______ ____
ROOT
ATOM      1  C   UNL     1     105.762 125.451 143.968  0.00  0.00    +0.000 A 
ATOM      2  C   UNL     1     105.834 126.405 143.903  0.00  0.00    +0.000 A 
ATOM      3  C   UNL     1     106.129 126.916 144.659  0.00  0.00    +0.000 A 
ATOM      4  C   UNL     1     106.352 126.473 145.479  0.00  0.00    +0.000 A 
ATOM      5  C   UNL     1     106.279 125.519 145.544  0.00  0.00    +0.000 A 
ATOM      6  C   UNL     1     105.984 125.008 144.788  0.00  0.00    +0.000 A 
ATOM      7  C   UNL     1     106.647 126.983 146.235  0.00  0.00    +0.000 C 
ATOM      8  C   UNL     1     106.869 126.540 147.055  0.00  0.00    +0.000 C 
ATOM      9  C   UNL     1     106.797 125.586 147.120  0.00  0.00    +0.000 C 
ATOM     10  O   UNL     1     106.502 125.076 146.364  0.00  0.00    +0.000 OA
ENDROOT
BRANCH   9  11
ATOM     11  C   UNL     1     107.019 125.144 147.939  0.00  0.00    +0.000 A 
ATOM     12  C   UNL     1     106.311 124.869 148.553  0.00  0.00    +0.000 A 
ATOM     13  C   UNL     1     106.537 124.417 149.389  0.00  0.00    +0.000 A 
ATOM     14  C   UNL     1     107.472 124.240 149.611  0.00  0.00    +0.000 A 
ATOM     15  C   UNL     1     108.179 124.515 148.997  0.00  0.00    +0.000 A 
ATOM     16  C   UNL     1     107.954 124.967 148.161  0.00  0.00    +0.000 A 
ENDBRANCH   9  11
BRANCH   3  17
ATOM     17  O   UNL     1     106.202 127.869 144.594  0.00  0.00    +0.000 OA
ATOM     18  C   UNL     1     105.593 128.474 143.712  0.00  0.00    +0.000 C 
ENDBRANCH   3  17
BRANCH   1  19
ATOM     19  O   UNL     1     105.467 124.941 143.212  0.00  0.00    +0.000 OA
ATOM     20  C   UNL     1     106.264 124.947 141.951  0.00  0.00    +0.000 C 
ENDBRANCH   1  19
TORSDOF 3
ENDMDL
MODEL 5
REMARK VINA RESULT:      -7.2     13.380     14.998
REMARK  Name = 
REMARK  3 active torsions:
REMARK  status: ('A' for Active; 'I' for Inactive)
REMARK    1  A    between atoms: C_1  and  O_19
REMARK    2  A    between atoms: C_3  and  O_17
REMARK    3  A    between atoms: C_9  and  C_11
REMARK                            x       y       z     vdW  Elec       q    Type
REMARK                         _______ _______ _______ _____ _____    ______ ____
ROOT
ATOM      1  C   UNL     1     112.352 125.906 136.877  0.00  0.00    +0.000 A 
ATOM      2  C   UNL     1     111.514 126.000 136.420  0.00  0.00    +0.000 A 
ATOM      3  C   UNL     1     111.353 126.767 135.869  0.00  0.00    +0.000 A 
ATOM      4  C   UNL     1     112.028 127.440 135.775  0.00  0.00    +0.000 A 
ATOM      5  C   UNL     1     112.866 127.346 136.232  0.00  0.00    +0.000 A 
ATOM      6  C   UNL     1     113.027 126.579 136.783  0.00  0.00    +0.000 A 
ATOM      7  C   UNL     1     111.867 128.208 135.224  0.00  0.00    +0.000 C 
ATOM      8  C   UNL     1     112.542 128.881 135.130  0.00  0.00    +0.000 C 
ATOM      9  C   UNL     1     113.380 128.787 135.587  0.00  0.00    +0.000 C 
ATOM     10  O   UNL     1     113.541 128.020 136.138  0.00  0.00    +0.000 OA
ENDROOT
BRANCH   9  11
ATOM     11  C   UNL     1     114.055 129.459 135.494  0.00  0.00    +0.000 A 
ATOM     12  C   UNL     1     114.635 129.463 134.708  0.00  0.00    +0.000 A 
ATOM     13  C   UNL     1     115.324 130.148 134.612  0.00  0.00    +0.000 A 
ATOM     14  C   UNL     1     115.433 130.831 135.302  0.00  0.00    +0.000 A 
ATOM     15  C   UNL     1     114.853 130.828 136.088  0.00  0.00    +0.000 A 
ATOM     16  C   UNL     1     114.164 130.142 136.184  0.00  0.00    +0.000 A 
ENDBRANCH   9  11
BRANCH   3  17
ATOM     17  O   UNL     1     110.516 126.861 135.412  0.00  0.00    +0.000 OA
ATOM     18  C   UNL     1     109.897 125.861 135.049  0.00  0.00    +0.000 C 
ENDBRANCH   3  17
BRANCH   1  19
ATOM     19  O   UNL     1     112.513 125.138 137.428  0.00  0.00    +0.000 OA
ATOM     20  C   UNL     1     112.988 123.865 136.812  0.00  0.00    +0.000 C 
ENDBRANCH   1  19
TORSDOF 3
ENDMDL
MODEL 6
REMARK VINA RESULT:      -7.1     11.778     13.247
REMARK  Name = 
REMARK  3 active torsions:
REMARK  status: ('A' for Active; 'I' for Inactive)
REMARK    1  A    between atoms: C_1  and  O_19
REMARK    2  A    between atoms: C_3  and  O_17
REMARK    3  A    between atoms: C_9  and  C_11
REMARK                            x       y       z     vdW  Elec       q    Type
REMARK                         _______ _______ _______ _____ _____    ______ ____
ROOT
ATOM      1  C   UNL     1     112.864 129.953 138.887  0.00  0.00    +0.000 A 
ATOM      2  C   UNL     1     112.902 129.876 139.843  0.00  0.00    +0.000 A 
ATOM      3  C   UNL     1     113.054 129.021 140.248  0.00  0.00    +0.000 A 
ATOM      4  C   UNL     1     113.170 128.244 139.699  0.00  0.00    +0.000 A 
ATOM      5  C   UNL     1     113.132 128.321 138.744  0.00  0.00    +0.000 A 
ATOM      6  C   UNL     1     112.979 129.176 138.339  0.00  0.00    +0.000 A 
ATOM      7  C   UNL     1     113.322 127.389 140.105  0.00  0.00    +0.000 C 
ATOM      8  C   UNL     1     113.437 126.612 139.556  0.00  0.00    +0.000 C 
ATOM      9  C   UNL     1     113.400 126.689 138.601  0.00  0.00    +0.000 C 
ATOM     10  O   UNL     1     113.247 127.544 138.195  0.00  0.00    +0.000 OA
ENDROOT
BRANCH   9  11
ATOM     11  C   UNL     1     113.514 125.913 138.052  0.00  0.00    +0.000 A 
ATOM     12  C   UNL     1     114.411 125.567 137.877  0.00  0.00    +0.000 A 
ATOM     13  C   UNL     1     114.529 124.775 137.318  0.00  0.00    +0.000 A 
ATOM     14  C   UNL     1     113.749 124.329 136.933  0.00  0.00    +0.000 A 
ATOM     15  C   UNL     1     112.853 124.675 137.108  0.00  0.00    +0.000 A 
ATOM     16  C   UNL     1     112.735 125.467 137.667  0.00  0.00    +0.000 A 
ENDBRANCH   9  11
BRANCH   3  17
ATOM     17  O   UNL     1     113.092 128.943 141.202  0.00  0.00    +0.000 OA
ATOM     18  C   UNL     1     112.711 129.875 141.911  0.00  0.00    +0.000 C 
ENDBRANCH   3  17
BRANCH   1  19
ATOM     19  O   UNL     1     112.711 130.808 138.482  0.00  0.00    +0.000 OA
ATOM     20  C   UNL     1     111.343 131.180 138.019  0.00  0.00    +0.000 C 
ENDBRANCH   1  19
TORSDOF 3
ENDMDL
MODEL 7
REMARK VINA RESULT:      -7.1     10.358     10.993
REMARK  Name = 
REMARK  3 active torsions:
REMARK  status: ('A' for Active; 'I' for Inactive)
REMARK    1  A    between atoms: C_1  and  O_19
REMARK    2  A    between atoms: C_3  and  O_17
REMARK    3  A    between atoms: C_9  and  C_11
REMARK                            x       y       z     vdW  Elec       q    Type
REMARK                         _______ _______ _______ _____ _____    ______ ____
ROOT
ATOM      1  C   UNL     1     102.554 134.813 140.942  0.00  0.00    +0.000 A 
ATOM      2  C   UNL     1     101.837 134.943 141.565  0.00  0.00    +0.000 A 
ATOM      3  C   UNL     1     101.427 134.187 141.988  0.00  0.00    +0.000 A 
ATOM      4  C   UNL     1     101.733 133.301 141.788  0.00  0.00    +0.000 A 
ATOM      5  C   UNL     1     102.450 133.171 141.165  0.00  0.00    +0.000 A 
ATOM      6  C   UNL     1     102.860 133.927 140.742  0.00  0.00    +0.000 A 
ATOM      7  C   UNL     1     101.323 132.546 142.211  0.00  0.00    +0.000 C 
ATOM      8  C   UNL     1     101.629 131.660 142.011  0.00  0.00    +0.000 C 
ATOM      9  C   UNL     1     102.346 131.530 141.388  0.00  0.00    +0.000 C 
ATOM     10  O   UNL     1     102.756 132.286 140.965  0.00  0.00    +0.000 OA
ENDROOT
BRANCH   9  11
ATOM     11  C   UNL     1     102.652 130.645 141.188  0.00  0.00    +0.000 A 
ATOM     12  C   UNL     1     103.362 130.241 141.723  0.00  0.00    +0.000 A 
ATOM     13  C   UNL     1     103.675 129.338 141.520  0.00  0.00    +0.000 A 
ATOM     14  C   UNL     1     103.278 128.839 140.780  0.00  0.00    +0.000 A 
ATOM     15  C   UNL     1     102.568 129.243 140.244  0.00  0.00    +0.000 A 
ATOM     16  C   UNL     1     102.255 130.146 140.448  0.00  0.00    +0.000 A 
ENDBRANCH   9  11
BRANCH   3  17
ATOM     17  O   UNL     1     100.711 134.317 142.611  0.00  0.00    +0.000 OA
ATOM     18  C   UNL     1     100.737 135.270 143.389  0.00  0.00    +0.000 C 
ENDBRANCH   3  17
BRANCH   1  19
ATOM     19  O   UNL     1     102.964 135.569 140.519  0.00  0.00    +0.000 OA
ATOM     20  C   UNL     1     104.410 135.858 140.748  0.00  0.00    +0.000 C 
ENDBRANCH   1  19
TORSDOF 3
ENDMDL
MODEL 8
REMARK VINA RESULT:      -7.1      1.517      4.817
REMARK  Name = 
REMARK  3 active torsions:
REMARK  status: ('A' for Active; 'I' for Inactive)
REMARK    1  A    between atoms: C_1  and  O_19
REMARK    2  A    between atoms: C_3  and  O_17
REMARK    3  A    between atoms: C_9  and  C_11
REMARK                            x       y       z     vdW  Elec       q    Type
REMARK                         _______ _______ _______ _____ _____    ______ ____
ROOT
ATOM      1  C   UNL     1     106.525 125.878 145.935  0.00  0.00    +0.000 A 
ATOM      2  C   UNL     1     106.846 125.707 146.822  0.00  0.00    +0.000 A 
ATOM      3  C   UNL     1     106.314 125.197 147.435  0.00  0.00    +0.000 A 
ATOM      4  C   UNL     1     105.461 124.858 147.161  0.00  0.00    +0.000 A 
ATOM      5  C   UNL     1     105.140 125.028 146.273  0.00  0.00    +0.000 A 
ATOM      6  C   UNL     1     105.672 125.538 145.661  0.00  0.00    +0.000 A 
ATOM      7  C   UNL     1     104.929 124.348 147.773  0.00  0.00    +0.000 C 
ATOM      8  C   UNL     1     104.076 124.008 147.499  0.00  0.00    +0.000 C 
ATOM      9  C   UNL     1     103.755 124.178 146.611  0.00  0.00    +0.000 C 
ATOM     10  O   UNL     1     104.287 124.688 145.999  0.00  0.00    +0.000 OA
ENDROOT
BRANCH   9  11
ATOM     11  C   UNL     1     102.902 123.839 146.337  0.00  0.00    +0.000 A 
ATOM     12  C   UNL     1     102.853 123.087 145.715  0.00  0.00    +0.000 A 
ATOM     13  C   UNL     1     101.984 122.740 145.435  0.00  0.00    +0.000 A 
ATOM     14  C   UNL     1     101.164 123.146 145.777  0.00  0.00    +0.000 A 
ATOM     15  C   UNL     1     101.213 123.897 146.399  0.00  0.00    +0.000 A 
ATOM     16  C   UNL     1     102.082 124.244 146.679  0.00  0.00    +0.000 A 
ENDBRANCH   9  11
BRANCH   3  17
ATOM     17  O   UNL     1     106.635 125.027 148.321  0.00  0.00    +0.000 OA
ATOM     18  C   UNL     1     107.823 124.763 148.506  0.00  0.00    +0.000 C 
ENDBRANCH   3  17
BRANCH   1  19
ATOM     19  O   UNL     1     107.057 126.388 145.322  0.00  0.00    +0.000 OA
ATOM     20  C   UNL     1     106.964 127.877 145.314  0.00  0.00    +0.000 C 
ENDBRANCH   1  19
TORSDOF 3
ENDMDL
MODEL 9
REMARK VINA RESULT:      -7.0     13.086     14.337
REMARK  Name = 
REMARK  3 active torsions:
REMARK  status: ('A' for Active; 'I' for Inactive)
REMARK    1  A    between atoms: C_1  and  O_19
REMARK    2  A    between atoms: C_3  and  O_17
REMARK    3  A    between atoms: C_9  and  C_11
REMARK                            x       y       z     vdW  Elec       q    Type
REMARK                         _______ _______ _______ _____ _____    ______ ____
ROOT
ATOM      1  C   UNL     1     113.060 129.601 139.080  0.00  0.00    +0.000 A 
ATOM      2  C   UNL     1     113.150 130.164 138.310  0.00  0.00    +0.000 A 
ATOM      3  C   UNL     1     113.269 129.774 137.442  0.00  0.00    +0.000 A 
ATOM      4  C   UNL     1     113.299 128.821 137.345  0.00  0.00    +0.000 A 
ATOM      5  C   UNL     1     113.209 128.258 138.116  0.00  0.00    +0.000 A 
ATOM      6  C   UNL     1     113.089 128.648 138.983  0.00  0.00    +0.000 A 
ATOM      7  C   UNL     1     113.418 128.431 136.478  0.00  0.00    +0.000 C 
ATOM      8  C   UNL     1     113.447 127.478 136.381  0.00  0.00    +0.000 C 
ATOM      9  C   UNL     1     113.357 126.915 137.152  0.00  0.00    +0.000 C 
ATOM     10  O   UNL     1     113.238 127.305 138.019  0.00  0.00    +0.000 OA
ENDROOT
BRANCH   9  11
ATOM     11  C   UNL     1     113.386 125.963 137.055  0.00  0.00    +0.000 A 
ATOM     12  C   UNL     1     112.596 125.479 136.748  0.00  0.00    +0.000 A 
ATOM     13  C   UNL     1     112.625 124.507 136.649  0.00  0.00    +0.000 A 
ATOM     14  C   UNL     1     113.445 124.020 136.858  0.00  0.00    +0.000 A 
ATOM     15  C   UNL     1     114.236 124.504 137.166  0.00  0.00    +0.000 A 
ATOM     16  C   UNL     1     114.207 125.475 137.264  0.00  0.00    +0.000 A 
ENDBRANCH   9  11
BRANCH   3  17
ATOM     17  O   UNL     1     113.359 130.337 136.672  0.00  0.00    +0.000 OA
ATOM     18  C   UNL     1     113.466 131.556 136.809  0.00  0.00    +0.000 C 
ENDBRANCH   3  17
BRANCH   1  19
ATOM     19  O   UNL     1     112.941 129.991 139.948  0.00  0.00    +0.000 OA
ATOM     20  C   UNL     1     114.130 130.364 140.767  0.00  0.00    +0.000 C 
ENDBRANCH   1  19
TORSDOF 3
ENDMDL
MODEL 10
REMARK VINA RESULT:      -6.8      7.958      9.066
REMARK  Name = 
REMARK  3 active torsions:
REMARK  status: ('A' for Active; 'I' for Inactive)
REMARK    1  A    between atoms: C_1  and  O_19
REMARK    2  A    between atoms: C_3  and  O_17
REMARK    3  A    between atoms: C_9  and  C_11
REMARK                            x       y       z     vdW  Elec       q    Type
REMARK                         _______ _______ _______ _____ _____    ______ ____
ROOT
ATOM      1  C   UNL     1     104.832 128.909 143.279  0.00  0.00    +0.000 A 
ATOM      2  C   UNL     1     104.827 128.356 142.495  0.00  0.00    +0.000 A 
ATOM      3  C   UNL     1     104.279 128.592 141.746  0.00  0.00    +0.000 A 
ATOM      4  C   UNL     1     103.735 129.381 141.779  0.00  0.00    +0.000 A 
ATOM      5  C   UNL     1     103.740 129.934 142.562  0.00  0.00    +0.000 A 
ATOM      6  C   UNL     1     104.289 129.698 143.312  0.00  0.00    +0.000 A 
ATOM      7  C   UNL     1     103.187 129.617 141.029  0.00  0.00    +0.000 C 
ATOM      8  C   UNL     1     102.644 130.406 141.062  0.00  0.00    +0.000 C 
ATOM      9  C   UNL     1     102.649 130.959 141.846  0.00  0.00    +0.000 C 
ATOM     10  O   UNL     1     103.197 130.723 142.595  0.00  0.00    +0.000 OA
ENDROOT
BRANCH   9  11
ATOM     11  C   UNL     1     102.106 131.747 141.879  0.00  0.00    +0.000 A 
ATOM     12  C   UNL     1     101.264 131.740 142.374  0.00  0.00    +0.000 A 
ATOM     13  C   UNL     1     100.710 132.543 142.409  0.00  0.00    +0.000 A 
ATOM     14  C   UNL     1     100.998 133.355 141.948  0.00  0.00    +0.000 A 
ATOM     15  C   UNL     1     101.840 133.362 141.452  0.00  0.00    +0.000 A 
ATOM     16  C   UNL     1     102.394 132.559 141.418  0.00  0.00    +0.000 A 
ENDBRANCH   9  11
BRANCH   3  17
ATOM     17  O   UNL     1     104.274 128.040 140.963  0.00  0.00    +0.000 OA
ATOM     18  C   UNL     1     104.822 126.938 140.983  0.00  0.00    +0.000 C 
ENDBRANCH   3  17
BRANCH   1  19
ATOM     19  O   UNL     1     105.380 128.673 144.028  0.00  0.00    +0.000 OA
ATOM     20  C   UNL     1     106.863 128.609 143.877  0.00  0.00    +0.000 C 
ENDBRANCH   1  19
TORSDOF 3
ENDMDL
