MODEL 1
REMARK VINA RESULT:     -10.6      0.000      0.000
REMARK  Name = null
REMARK  6 active torsions:
REMARK  status: ('A' for Active; 'I' for Inactive)
REMARK    1  A    between atoms: C_6  and  O_8
REMARK    2  A    between atoms: O_8  and  C_9
REMARK    3  A    between atoms: C_9  and  C_10
REMARK    4  A    between atoms: C_14  and  O_16
REMARK    5  A    between atoms: O_16  and  C_17
REMARK    6  A    between atoms: C_18  and  C_30
REMARK                            x       y       z     vdW  Elec       q    Type
REMARK                         _______ _______ _______ _____ _____    ______ ____
ROOT
ATOM      1  O   UNL     1     112.039 127.469 136.041  0.00  0.00    +0.000 OA
ENDROOT
BRANCH   1   2
ATOM      2  C   UNL     1     111.924 126.667 136.197  0.00  0.00    +0.000 A 
ATOM      3  C   UNL     1     111.163 126.347 136.171  0.00  0.00    +0.000 A 
ATOM      4  O   UNL     1     111.048 125.545 136.327  0.00  0.00    +0.000 OA
ATOM      5  C   UNL     1     111.692 125.064 136.509  0.00  0.00    +0.000 A 
ATOM      6  C   UNL     1     111.577 124.262 136.666  0.00  0.00    +0.000 A 
ATOM      7  C   UNL     1     112.221 123.780 136.848  0.00  0.00    +0.000 A 
ATOM      8  C   UNL     1     112.982 124.101 136.874  0.00  0.00    +0.000 A 
ATOM      9  C   UNL     1     113.097 124.902 136.718  0.00  0.00    +0.000 A 
ATOM     10  C   UNL     1     112.453 125.384 136.535  0.00  0.00    +0.000 A 
ATOM     11  C   UNL     1     112.568 126.185 136.379  0.00  0.00    +0.000 A 
ATOM     12  O   UNL     1     113.328 126.505 136.405  0.00  0.00    +0.000 OA
ATOM     13  O   UNL     1     113.857 125.222 136.744  0.00  0.00    +0.000 OA
ATOM     14  O   UNL     1     112.106 122.978 137.004  0.00  0.00    +0.000 OA
BRANCH   3  15
ATOM     15  C   UNL     1     110.519 126.829 135.989  0.00  0.00    +0.000 A 
ATOM     16  C   UNL     1     109.982 127.042 136.578  0.00  0.00    +0.000 A 
ATOM     17  C   UNL     1     109.339 127.524 136.395  0.00  0.00    +0.000 A 
ATOM     18  C   UNL     1     109.232 127.794 135.623  0.00  0.00    +0.000 A 
ATOM     19  C   UNL     1     109.768 127.581 135.033  0.00  0.00    +0.000 A 
ATOM     20  C   UNL     1     110.412 127.098 135.216  0.00  0.00    +0.000 A 
ATOM     21  O   UNL     1     108.588 128.276 135.439  0.00  0.00    +0.000 OA
ATOM     22  O   UNL     1     108.803 127.737 136.984  0.00  0.00    +0.000 OA
ENDBRANCH   3  15
ENDBRANCH   1   2
BRANCH   1  27
ATOM     23  C   UNL     1     112.511 128.369 137.972  0.00  0.00    +0.000 C 
ATOM     24  C   UNL     1     113.079 128.925 137.751  0.00  0.00    +0.000 C 
ATOM     25  C   UNL     1     113.301 128.995 136.959  0.00  0.00    +0.000 C 
ATOM     26  C   UNL     1     112.955 128.510 136.389  0.00  0.00    +0.000 C 
ATOM     27  C   UNL     1     112.386 127.954 136.611  0.00  0.00    +0.000 C 
ATOM     28  O   UNL     1     112.164 127.884 137.403  0.00  0.00    +0.000 OA
ATOM     29  O   UNL     1     113.176 128.580 135.598  0.00  0.00    +0.000 OA
ATOM     30  O   UNL     1     113.869 129.551 136.738  0.00  0.00    +0.000 OA
ATOM     31  O   UNL     1     113.426 129.410 138.321  0.00  0.00    +0.000 OA
BRANCH  23  32
ATOM     32  C   UNL     1     112.290 128.299 138.764  0.00  0.00    +0.000 C 
BRANCH  32  33
ATOM     33  O   UNL     1     112.123 127.556 139.082  0.00  0.00    +0.000 OA
BRANCH  33  39
ATOM     34  C   UNL     1     110.678 128.751 141.239  0.00  0.00    +0.000 C 
ATOM     35  C   UNL     1     111.045 128.094 140.902  0.00  0.00    +0.000 C 
ATOM     36  C   UNL     1     111.057 127.375 141.308  0.00  0.00    +0.000 C 
ATOM     37  C   UNL     1     111.423 126.717 140.972  0.00  0.00    +0.000 C 
ATOM     38  C   UNL     1     111.779 126.777 140.230  0.00  0.00    +0.000 C 
ATOM     39  C   UNL     1     111.768 127.496 139.824  0.00  0.00    +0.000 C 
ATOM     40  O   UNL     1     111.400 128.154 140.161  0.00  0.00    +0.000 OA
ATOM     41  O   UNL     1     112.146 126.120 139.894  0.00  0.00    +0.000 OA
ATOM     42  O   UNL     1     111.435 125.999 141.378  0.00  0.00    +0.000 OA
ATOM     43  O   UNL     1     110.701 127.315 142.051  0.00  0.00    +0.000 OA
ENDBRANCH  33  39
ENDBRANCH  32  33
ENDBRANCH  23  32
ENDBRANCH   1  27
TORSDOF 6
ENDMDL
MODEL 2
REMARK VINA RESULT:     -10.6      1.032      2.771
REMARK  Name = null
REMARK  6 active torsions:
REMARK  status: ('A' for Active; 'I' for Inactive)
REMARK    1  A    between atoms: C_6  and  O_8
REMARK    2  A    between atoms: O_8  and  C_9
REMARK    3  A    between atoms: C_9  and  C_10
REMARK    4  A    between atoms: C_14  and  O_16
REMARK    5  A    between atoms: O_16  and  C_17
REMARK    6  A    between atoms: C_18  and  C_30
REMARK                            x       y       z     vdW  Elec       q    Type
REMARK                         _______ _______ _______ _____ _____    ______ ____
ROOT
ATOM      1  O   UNL     1     111.711 127.190 135.920  0.00  0.00    +0.000 OA
ENDROOT
BRANCH   1   2
ATOM      2  C   UNL     1     112.355 126.783 136.237  0.00  0.00    +0.000 A 
ATOM      3  C   UNL     1     113.015 127.200 136.506  0.00  0.00    +0.000 A 
ATOM      4  O   UNL     1     113.659 126.794 136.823  0.00  0.00    +0.000 OA
ATOM      5  C   UNL     1     113.644 125.971 136.871  0.00  0.00    +0.000 A 
ATOM      6  C   UNL     1     114.287 125.564 137.188  0.00  0.00    +0.000 A 
ATOM      7  C   UNL     1     114.272 124.741 137.237  0.00  0.00    +0.000 A 
ATOM      8  C   UNL     1     113.612 124.324 136.967  0.00  0.00    +0.000 A 
ATOM      9  C   UNL     1     112.969 124.730 136.651  0.00  0.00    +0.000 A 
ATOM     10  C   UNL     1     112.984 125.554 136.602  0.00  0.00    +0.000 A 
ATOM     11  C   UNL     1     112.340 125.960 136.285  0.00  0.00    +0.000 A 
ATOM     12  O   UNL     1     111.681 125.543 136.016  0.00  0.00    +0.000 OA
ATOM     13  O   UNL     1     112.310 124.313 136.382  0.00  0.00    +0.000 OA
ATOM     14  O   UNL     1     114.916 124.334 137.554  0.00  0.00    +0.000 OA
BRANCH   3  15
ATOM     15  C   UNL     1     113.030 128.024 136.457  0.00  0.00    +0.000 A 
ATOM     16  C   UNL     1     112.948 128.480 137.140  0.00  0.00    +0.000 A 
ATOM     17  C   UNL     1     112.963 129.303 137.091  0.00  0.00    +0.000 A 
ATOM     18  C   UNL     1     113.059 129.671 136.358  0.00  0.00    +0.000 A 
ATOM     19  C   UNL     1     113.141 129.216 135.675  0.00  0.00    +0.000 A 
ATOM     20  C   UNL     1     113.127 128.392 135.725  0.00  0.00    +0.000 A 
ATOM     21  O   UNL     1     113.074 130.494 136.308  0.00  0.00    +0.000 OA
ATOM     22  O   UNL     1     112.881 129.758 137.773  0.00  0.00    +0.000 OA
ENDBRANCH   3  15
ENDBRANCH   1   2
BRANCH   1  27
ATOM     23  C   UNL     1     110.114 126.991 137.393  0.00  0.00    +0.000 C 
ATOM     24  C   UNL     1     109.458 126.896 136.901  0.00  0.00    +0.000 C 
ATOM     25  C   UNL     1     109.554 126.899 136.081  0.00  0.00    +0.000 C 
ATOM     26  C   UNL     1     110.305 126.997 135.754  0.00  0.00    +0.000 C 
ATOM     27  C   UNL     1     110.960 127.092 136.247  0.00  0.00    +0.000 C 
ATOM     28  O   UNL     1     110.864 127.089 137.067  0.00  0.00    +0.000 OA
ATOM     29  O   UNL     1     110.401 127.000 134.935  0.00  0.00    +0.000 OA
ATOM     30  O   UNL     1     108.899 126.803 135.589  0.00  0.00    +0.000 OA
ATOM     31  O   UNL     1     108.707 126.798 137.228  0.00  0.00    +0.000 OA
BRANCH  23  32
ATOM     32  C   UNL     1     110.017 126.988 138.213  0.00  0.00    +0.000 C 
BRANCH  32  33
ATOM     33  O   UNL     1     110.661 126.832 138.704  0.00  0.00    +0.000 OA
BRANCH  33  39
ATOM     34  C   UNL     1     109.484 128.159 140.944  0.00  0.00    +0.000 C 
ATOM     35  C   UNL     1     110.002 127.594 140.639  0.00  0.00    +0.000 C 
ATOM     36  C   UNL     1     110.451 127.127 141.152  0.00  0.00    +0.000 C 
ATOM     37  C   UNL     1     110.969 126.563 140.848  0.00  0.00    +0.000 C 
ATOM     38  C   UNL     1     111.040 126.463 140.032  0.00  0.00    +0.000 C 
ATOM     39  C   UNL     1     110.591 126.931 139.519  0.00  0.00    +0.000 C 
ATOM     40  O   UNL     1     110.073 127.496 139.824  0.00  0.00    +0.000 OA
ATOM     41  O   UNL     1     111.558 125.899 139.728  0.00  0.00    +0.000 OA
ATOM     42  O   UNL     1     111.417 126.096 141.360  0.00  0.00    +0.000 OA
ATOM     43  O   UNL     1     110.380 127.226 141.968  0.00  0.00    +0.000 OA
ENDBRANCH  33  39
ENDBRANCH  32  33
ENDBRANCH  23  32
ENDBRANCH   1  27
TORSDOF 6
ENDMDL
MODEL 3
REMARK VINA RESULT:     -10.5      1.072      4.766
REMARK  Name = null
REMARK  6 active torsions:
REMARK  status: ('A' for Active; 'I' for Inactive)
REMARK    1  A    between atoms: C_6  and  O_8
REMARK    2  A    between atoms: O_8  and  C_9
REMARK    3  A    between atoms: C_9  and  C_10
REMARK    4  A    between atoms: C_14  and  O_16
REMARK    5  A    between atoms: O_16  and  C_17
REMARK    6  A    between atoms: C_18  and  C_30
REMARK                            x       y       z     vdW  Elec       q    Type
REMARK                         _______ _______ _______ _____ _____    ______ ____
ROOT
ATOM      1  O   UNL     1     112.858 126.415 137.503  0.00  0.00    +0.000 OA
ENDROOT
BRANCH   1   2
ATOM      2  C   UNL     1     113.026 127.222 137.475  0.00  0.00    +0.000 A 
ATOM      3  C   UNL     1     112.871 127.699 138.131  0.00  0.00    +0.000 A 
ATOM      4  O   UNL     1     113.039 128.506 138.104  0.00  0.00    +0.000 OA
ATOM      5  C   UNL     1     113.362 128.836 137.421  0.00  0.00    +0.000 A 
ATOM      6  C   UNL     1     113.531 129.644 137.393  0.00  0.00    +0.000 A 
ATOM      7  C   UNL     1     113.854 129.974 136.711  0.00  0.00    +0.000 A 
ATOM      8  C   UNL     1     114.010 129.498 136.055  0.00  0.00    +0.000 A 
ATOM      9  C   UNL     1     113.842 128.691 136.082  0.00  0.00    +0.000 A 
ATOM     10  C   UNL     1     113.518 128.359 136.765  0.00  0.00    +0.000 A 
ATOM     11  C   UNL     1     113.350 127.553 136.793  0.00  0.00    +0.000 A 
ATOM     12  O   UNL     1     113.505 127.077 136.137  0.00  0.00    +0.000 OA
ATOM     13  O   UNL     1     113.997 128.215 135.427  0.00  0.00    +0.000 OA
ATOM     14  O   UNL     1     114.023 130.782 136.683  0.00  0.00    +0.000 OA
BRANCH   3  15
ATOM     15  C   UNL     1     112.547 127.367 138.814  0.00  0.00    +0.000 A 
ATOM     16  C   UNL     1     111.752 127.493 138.998  0.00  0.00    +0.000 A 
ATOM     17  C   UNL     1     111.429 127.161 139.681  0.00  0.00    +0.000 A 
ATOM     18  C   UNL     1     111.901 126.704 140.180  0.00  0.00    +0.000 A 
ATOM     19  C   UNL     1     112.695 126.578 139.997  0.00  0.00    +0.000 A 
ATOM     20  C   UNL     1     113.018 126.910 139.313  0.00  0.00    +0.000 A 
ATOM     21  O   UNL     1     111.578 126.372 140.862  0.00  0.00    +0.000 OA
ATOM     22  O   UNL     1     110.636 127.287 139.864  0.00  0.00    +0.000 OA
ENDBRANCH   3  15
ENDBRANCH   1   2
BRANCH   1  27
ATOM     23  C   UNL     1     111.205 126.232 136.090  0.00  0.00    +0.000 C 
ATOM     24  C   UNL     1     111.253 125.430 135.896  0.00  0.00    +0.000 C 
ATOM     25  C   UNL     1     111.837 124.958 136.240  0.00  0.00    +0.000 C 
ATOM     26  C   UNL     1     112.371 125.285 136.775  0.00  0.00    +0.000 C 
ATOM     27  C   UNL     1     112.323 126.087 136.968  0.00  0.00    +0.000 C 
ATOM     28  O   UNL     1     111.740 126.560 136.625  0.00  0.00    +0.000 OA
ATOM     29  O   UNL     1     112.954 124.813 137.118  0.00  0.00    +0.000 OA
ATOM     30  O   UNL     1     111.884 124.157 136.046  0.00  0.00    +0.000 OA
ATOM     31  O   UNL     1     110.719 125.102 135.361  0.00  0.00    +0.000 OA
BRANCH  23  32
ATOM     32  C   UNL     1     110.622 126.704 135.746  0.00  0.00    +0.000 C 
BRANCH  32  33
ATOM     33  O   UNL     1     110.133 127.167 136.222  0.00  0.00    +0.000 OA
BRANCH  33  39
ATOM     34  C   UNL     1     110.447 129.610 134.774  0.00  0.00    +0.000 C 
ATOM     35  C   UNL     1     109.972 129.090 135.204  0.00  0.00    +0.000 C 
ATOM     36  C   UNL     1     109.178 129.272 135.338  0.00  0.00    +0.000 C 
ATOM     37  C   UNL     1     108.703 128.752 135.767  0.00  0.00    +0.000 C 
ATOM     38  C   UNL     1     109.021 128.050 136.063  0.00  0.00    +0.000 C 
ATOM     39  C   UNL     1     109.815 127.868 135.928  0.00  0.00    +0.000 C 
ATOM     40  O   UNL     1     110.290 128.388 135.498  0.00  0.00    +0.000 OA
ATOM     41  O   UNL     1     108.546 127.530 136.492  0.00  0.00    +0.000 OA
ATOM     42  O   UNL     1     107.910 128.934 135.902  0.00  0.00    +0.000 OA
ATOM     43  O   UNL     1     108.861 129.974 135.043  0.00  0.00    +0.000 OA
ENDBRANCH  33  39
ENDBRANCH  32  33
ENDBRANCH  23  32
ENDBRANCH   1  27
TORSDOF 6
ENDMDL
MODEL 4
REMARK VINA RESULT:     -10.4      1.160      2.958
REMARK  Name = null
REMARK  6 active torsions:
REMARK  status: ('A' for Active; 'I' for Inactive)
REMARK    1  A    between atoms: C_6  and  O_8
REMARK    2  A    between atoms: O_8  and  C_9
REMARK    3  A    between atoms: C_9  and  C_10
REMARK    4  A    between atoms: C_14  and  O_16
REMARK    5  A    between atoms: O_16  and  C_17
REMARK    6  A    between atoms: C_18  and  C_30
REMARK                            x       y       z     vdW  Elec       q    Type
REMARK                         _______ _______ _______ _____ _____    ______ ____
ROOT
ATOM      1  O   UNL     1     113.086 127.405 136.535  0.00  0.00    +0.000 OA
ENDROOT
BRANCH   1   2
ATOM      2  C   UNL     1     112.466 126.953 136.233  0.00  0.00    +0.000 A 
ATOM      3  C   UNL     1     112.502 126.128 136.263  0.00  0.00    +0.000 A 
ATOM      4  O   UNL     1     111.883 125.677 135.961  0.00  0.00    +0.000 OA
ATOM      5  C   UNL     1     111.226 126.048 135.628  0.00  0.00    +0.000 A 
ATOM      6  C   UNL     1     110.605 125.596 135.326  0.00  0.00    +0.000 A 
ATOM      7  C   UNL     1     109.948 125.967 134.993  0.00  0.00    +0.000 A 
ATOM      8  C   UNL     1     109.911 126.792 134.963  0.00  0.00    +0.000 A 
ATOM      9  C   UNL     1     110.531 127.243 135.265  0.00  0.00    +0.000 A 
ATOM     10  C   UNL     1     111.189 126.872 135.598  0.00  0.00    +0.000 A 
ATOM     11  C   UNL     1     111.809 127.324 135.900  0.00  0.00    +0.000 A 
ATOM     12  O   UNL     1     111.772 128.148 135.869  0.00  0.00    +0.000 OA
ATOM     13  O   UNL     1     110.494 128.067 135.234  0.00  0.00    +0.000 OA
ATOM     14  O   UNL     1     109.327 125.515 134.691  0.00  0.00    +0.000 OA
BRANCH   3  15
ATOM     15  C   UNL     1     113.160 125.757 136.596  0.00  0.00    +0.000 A 
ATOM     16  C   UNL     1     113.874 125.731 136.183  0.00  0.00    +0.000 A 
ATOM     17  C   UNL     1     114.531 125.360 136.516  0.00  0.00    +0.000 A 
ATOM     18  C   UNL     1     114.474 125.015 137.263  0.00  0.00    +0.000 A 
ATOM     19  C   UNL     1     113.761 125.041 137.677  0.00  0.00    +0.000 A 
ATOM     20  C   UNL     1     113.104 125.412 137.343  0.00  0.00    +0.000 A 
ATOM     21  O   UNL     1     115.131 124.644 137.597  0.00  0.00    +0.000 OA
ATOM     22  O   UNL     1     115.243 125.334 136.103  0.00  0.00    +0.000 OA
ENDBRANCH   3  15
ENDBRANCH   1   2
BRANCH   1  27
ATOM     23  C   UNL     1     112.248 128.380 138.298  0.00  0.00    +0.000 C 
ATOM     24  C   UNL     1     112.643 129.105 138.278  0.00  0.00    +0.000 C 
ATOM     25  C   UNL     1     113.186 129.263 137.676  0.00  0.00    +0.000 C 
ATOM     26  C   UNL     1     113.333 128.696 137.096  0.00  0.00    +0.000 C 
ATOM     27  C   UNL     1     112.938 127.972 137.116  0.00  0.00    +0.000 C 
ATOM     28  O   UNL     1     112.395 127.814 137.718  0.00  0.00    +0.000 OA
ATOM     29  O   UNL     1     113.876 128.853 136.494  0.00  0.00    +0.000 OA
ATOM     30  O   UNL     1     113.580 129.987 137.656  0.00  0.00    +0.000 OA
ATOM     31  O   UNL     1     112.495 129.672 138.858  0.00  0.00    +0.000 OA
BRANCH  23  32
ATOM     32  C   UNL     1     111.705 128.224 138.899  0.00  0.00    +0.000 C 
BRANCH  32  33
ATOM     33  O   UNL     1     111.773 127.535 139.348  0.00  0.00    +0.000 OA
BRANCH  33  39
ATOM     34  C   UNL     1     109.282 128.102 140.629  0.00  0.00    +0.000 C 
ATOM     35  C   UNL     1     109.970 127.650 140.572  0.00  0.00    +0.000 C 
ATOM     36  C   UNL     1     110.100 127.027 141.099  0.00  0.00    +0.000 C 
ATOM     37  C   UNL     1     110.787 126.576 141.043  0.00  0.00    +0.000 C 
ATOM     38  C   UNL     1     111.346 126.744 140.459  0.00  0.00    +0.000 C 
ATOM     39  C   UNL     1     111.216 127.366 139.931  0.00  0.00    +0.000 C 
ATOM     40  O   UNL     1     110.528 127.818 139.988  0.00  0.00    +0.000 OA
ATOM     41  O   UNL     1     112.033 126.292 140.402  0.00  0.00    +0.000 OA
ATOM     42  O   UNL     1     110.917 125.954 141.570  0.00  0.00    +0.000 OA
ATOM     43  O   UNL     1     109.542 126.859 141.683  0.00  0.00    +0.000 OA
ENDBRANCH  33  39
ENDBRANCH  32  33
ENDBRANCH  23  32
ENDBRANCH   1  27
TORSDOF 6
ENDMDL
MODEL 5
REMARK VINA RESULT:     -10.4      1.615      4.536
REMARK  Name = null
REMARK  6 active torsions:
REMARK  status: ('A' for Active; 'I' for Inactive)
REMARK    1  A    between atoms: C_6  and  O_8
REMARK    2  A    between atoms: O_8  and  C_9
REMARK    3  A    between atoms: C_9  and  C_10
REMARK    4  A    between atoms: C_14  and  O_16
REMARK    5  A    between atoms: O_16  and  C_17
REMARK    6  A    between atoms: C_18  and  C_30
REMARK                            x       y       z     vdW  Elec       q    Type
REMARK                         _______ _______ _______ _____ _____    ______ ____
ROOT
ATOM      1  O   UNL     1     111.574 126.779 138.773  0.00  0.00    +0.000 OA
ENDROOT
BRANCH   1   2
ATOM      2  C   UNL     1     112.289 126.430 138.551  0.00  0.00    +0.000 A 
ATOM      3  C   UNL     1     112.952 126.504 139.037  0.00  0.00    +0.000 A 
ATOM      4  O   UNL     1     113.666 126.155 138.816  0.00  0.00    +0.000 OA
ATOM      5  C   UNL     1     113.718 125.733 138.110  0.00  0.00    +0.000 A 
ATOM      6  C   UNL     1     114.432 125.385 137.888  0.00  0.00    +0.000 A 
ATOM      7  C   UNL     1     114.483 124.963 137.182  0.00  0.00    +0.000 A 
ATOM      8  C   UNL     1     113.820 124.889 136.696  0.00  0.00    +0.000 A 
ATOM      9  C   UNL     1     113.106 125.237 136.917  0.00  0.00    +0.000 A 
ATOM     10  C   UNL     1     113.054 125.660 137.624  0.00  0.00    +0.000 A 
ATOM     11  C   UNL     1     112.340 126.008 137.845  0.00  0.00    +0.000 A 
ATOM     12  O   UNL     1     111.678 125.934 137.359  0.00  0.00    +0.000 OA
ATOM     13  O   UNL     1     112.443 125.163 136.431  0.00  0.00    +0.000 OA
ATOM     14  O   UNL     1     115.198 124.614 136.960  0.00  0.00    +0.000 OA
BRANCH   3  15
ATOM     15  C   UNL     1     112.900 126.926 139.744  0.00  0.00    +0.000 A 
ATOM     16  C   UNL     1     113.252 127.670 139.809  0.00  0.00    +0.000 A 
ATOM     17  C   UNL     1     113.199 128.092 140.515  0.00  0.00    +0.000 A 
ATOM     18  C   UNL     1     112.795 127.770 141.158  0.00  0.00    +0.000 A 
ATOM     19  C   UNL     1     112.443 127.027 141.095  0.00  0.00    +0.000 A 
ATOM     20  C   UNL     1     112.496 126.605 140.388  0.00  0.00    +0.000 A 
ATOM     21  O   UNL     1     112.742 128.191 141.866  0.00  0.00    +0.000 OA
ATOM     22  O   UNL     1     113.551 128.834 140.579  0.00  0.00    +0.000 OA
ENDBRANCH   3  15
ENDBRANCH   1   2
BRANCH   1  27
ATOM     23  C   UNL     1     111.330 128.399 137.331  0.00  0.00    +0.000 C 
ATOM     24  C   UNL     1     110.507 128.454 137.297  0.00  0.00    +0.000 C 
ATOM     25  C   UNL     1     110.040 127.951 137.756  0.00  0.00    +0.000 C 
ATOM     26  C   UNL     1     110.395 127.393 138.247  0.00  0.00    +0.000 C 
ATOM     27  C   UNL     1     111.219 127.337 138.281  0.00  0.00    +0.000 C 
ATOM     28  O   UNL     1     111.685 127.841 137.823  0.00  0.00    +0.000 OA
ATOM     29  O   UNL     1     109.930 126.890 138.706  0.00  0.00    +0.000 OA
ATOM     30  O   UNL     1     109.218 128.007 137.722  0.00  0.00    +0.000 OA
ATOM     31  O   UNL     1     110.151 129.013 136.806  0.00  0.00    +0.000 OA
BRANCH  23  32
ATOM     32  C   UNL     1     111.796 128.902 136.873  0.00  0.00    +0.000 C 
BRANCH  32  33
ATOM     33  O   UNL     1     112.388 129.354 137.227  0.00  0.00    +0.000 OA
BRANCH  33  39
ATOM     34  C   UNL     1     114.457 128.805 135.334  0.00  0.00    +0.000 C 
ATOM     35  C   UNL     1     114.069 129.332 135.837  0.00  0.00    +0.000 C 
ATOM     36  C   UNL     1     114.330 130.113 135.895  0.00  0.00    +0.000 C 
ATOM     37  C   UNL     1     113.944 130.640 136.397  0.00  0.00    +0.000 C 
ATOM     38  C   UNL     1     113.296 130.388 136.842  0.00  0.00    +0.000 C 
ATOM     39  C   UNL     1     113.035 129.606 136.783  0.00  0.00    +0.000 C 
ATOM     40  O   UNL     1     113.422 129.079 136.281  0.00  0.00    +0.000 OA
ATOM     41  O   UNL     1     112.909 130.915 137.344  0.00  0.00    +0.000 OA
ATOM     42  O   UNL     1     114.204 131.421 136.456  0.00  0.00    +0.000 OA
ATOM     43  O   UNL     1     114.978 130.366 135.450  0.00  0.00    +0.000 OA
ENDBRANCH  33  39
ENDBRANCH  32  33
ENDBRANCH  23  32
ENDBRANCH   1  27
TORSDOF 6
ENDMDL
MODEL 6
REMARK VINA RESULT:     -10.4      1.180      4.352
REMARK  Name = null
REMARK  6 active torsions:
REMARK  status: ('A' for Active; 'I' for Inactive)
REMARK    1  A    between atoms: C_6  and  O_8
REMARK    2  A    between atoms: O_8  and  C_9
REMARK    3  A    between atoms: C_9  and  C_10
REMARK    4  A    between atoms: C_14  and  O_16
REMARK    5  A    between atoms: O_16  and  C_17
REMARK    6  A    between atoms: C_18  and  C_30
REMARK                            x       y       z     vdW  Elec       q    Type
REMARK                         _______ _______ _______ _____ _____    ______ ____
ROOT
ATOM      1  O   UNL     1     112.666 126.585 138.229  0.00  0.00    +0.000 OA
ENDROOT
BRANCH   1   2
ATOM      2  C   UNL     1     112.931 127.027 137.584  0.00  0.00    +0.000 A 
ATOM      3  C   UNL     1     112.997 126.672 136.841  0.00  0.00    +0.000 A 
ATOM      4  O   UNL     1     113.263 127.112 136.196  0.00  0.00    +0.000 OA
ATOM      5  C   UNL     1     113.462 127.906 136.293  0.00  0.00    +0.000 A 
ATOM      6  C   UNL     1     113.728 128.347 135.648  0.00  0.00    +0.000 A 
ATOM      7  C   UNL     1     113.927 129.141 135.745  0.00  0.00    +0.000 A 
ATOM      8  C   UNL     1     113.861 129.496 136.488  0.00  0.00    +0.000 A 
ATOM      9  C   UNL     1     113.596 129.056 137.133  0.00  0.00    +0.000 A 
ATOM     10  C   UNL     1     113.396 128.261 137.036  0.00  0.00    +0.000 A 
ATOM     11  C   UNL     1     113.131 127.820 137.681  0.00  0.00    +0.000 A 
ATOM     12  O   UNL     1     113.065 128.175 138.423  0.00  0.00    +0.000 OA
ATOM     13  O   UNL     1     113.530 129.410 137.875  0.00  0.00    +0.000 OA
ATOM     14  O   UNL     1     114.193 129.582 135.100  0.00  0.00    +0.000 OA
BRANCH   3  15
ATOM     15  C   UNL     1     112.798 125.877 136.744  0.00  0.00    +0.000 A 
ATOM     16  C   UNL     1     112.088 125.670 136.377  0.00  0.00    +0.000 A 
ATOM     17  C   UNL     1     111.889 124.876 136.281  0.00  0.00    +0.000 A 
ATOM     18  C   UNL     1     112.399 124.287 136.552  0.00  0.00    +0.000 A 
ATOM     19  C   UNL     1     113.109 124.493 136.919  0.00  0.00    +0.000 A 
ATOM     20  C   UNL     1     113.308 125.288 137.015  0.00  0.00    +0.000 A 
ATOM     21  O   UNL     1     112.201 123.493 136.456  0.00  0.00    +0.000 OA
ATOM     22  O   UNL     1     111.180 124.670 135.914  0.00  0.00    +0.000 OA
ENDBRANCH   3  15
ENDBRANCH   1   2
BRANCH   1  27
ATOM     23  C   UNL     1     110.721 127.480 138.655  0.00  0.00    +0.000 C 
ATOM     24  C   UNL     1     110.633 127.288 139.453  0.00  0.00    +0.000 C 
ATOM     25  C   UNL     1     111.223 126.862 139.843  0.00  0.00    +0.000 C 
ATOM     26  C   UNL     1     111.900 126.628 139.435  0.00  0.00    +0.000 C 
ATOM     27  C   UNL     1     111.988 126.820 138.637  0.00  0.00    +0.000 C 
ATOM     28  O   UNL     1     111.398 127.246 138.247  0.00  0.00    +0.000 OA
ATOM     29  O   UNL     1     112.490 126.202 139.824  0.00  0.00    +0.000 OA
ATOM     30  O   UNL     1     111.134 126.671 140.640  0.00  0.00    +0.000 OA
ATOM     31  O   UNL     1     109.955 127.522 139.861  0.00  0.00    +0.000 OA
BRANCH  23  32
ATOM     32  C   UNL     1     110.131 127.905 138.266  0.00  0.00    +0.000 C 
BRANCH  32  33
ATOM     33  O   UNL     1     109.880 127.672 137.515  0.00  0.00    +0.000 OA
BRANCH  33  39
ATOM     34  C   UNL     1     109.935 130.289 136.366  0.00  0.00    +0.000 C 
ATOM     35  C   UNL     1     109.597 129.538 136.419  0.00  0.00    +0.000 C 
ATOM     36  C   UNL     1     108.947 129.345 135.948  0.00  0.00    +0.000 C 
ATOM     37  C   UNL     1     108.609 128.595 135.999  0.00  0.00    +0.000 C 
ATOM     38  C   UNL     1     108.919 128.036 136.522  0.00  0.00    +0.000 C 
ATOM     39  C   UNL     1     109.569 128.230 136.993  0.00  0.00    +0.000 C 
ATOM     40  O   UNL     1     109.908 128.980 136.941  0.00  0.00    +0.000 OA
ATOM     41  O   UNL     1     108.581 127.286 136.574  0.00  0.00    +0.000 OA
ATOM     42  O   UNL     1     107.959 128.402 135.529  0.00  0.00    +0.000 OA
ATOM     43  O   UNL     1     108.636 129.903 135.425  0.00  0.00    +0.000 OA
ENDBRANCH  33  39
ENDBRANCH  32  33
ENDBRANCH  23  32
ENDBRANCH   1  27
TORSDOF 6
ENDMDL
MODEL 7
REMARK VINA RESULT:     -10.3      1.506      4.483
REMARK  Name = null
REMARK  6 active torsions:
REMARK  status: ('A' for Active; 'I' for Inactive)
REMARK    1  A    between atoms: C_6  and  O_8
REMARK    2  A    between atoms: O_8  and  C_9
REMARK    3  A    between atoms: C_9  and  C_10
REMARK    4  A    between atoms: C_14  and  O_16
REMARK    5  A    between atoms: O_16  and  C_17
REMARK    6  A    between atoms: C_18  and  C_30
REMARK                            x       y       z     vdW  Elec       q    Type
REMARK                         _______ _______ _______ _____ _____    ______ ____
ROOT
ATOM      1  O   UNL     1     111.905 125.352 136.867  0.00  0.00    +0.000 OA
ENDROOT
BRANCH   1   2
ATOM      2  C   UNL     1     112.061 125.639 137.625  0.00  0.00    +0.000 A 
ATOM      3  C   UNL     1     112.841 125.740 137.876  0.00  0.00    +0.000 A 
ATOM      4  O   UNL     1     112.997 126.026 138.633  0.00  0.00    +0.000 OA
ATOM      5  C   UNL     1     112.374 126.213 139.140  0.00  0.00    +0.000 A 
ATOM      6  C   UNL     1     112.529 126.500 139.898  0.00  0.00    +0.000 A 
ATOM      7  C   UNL     1     111.906 126.687 140.404  0.00  0.00    +0.000 A 
ATOM      8  C   UNL     1     111.125 126.587 140.153  0.00  0.00    +0.000 A 
ATOM      9  C   UNL     1     110.970 126.300 139.396  0.00  0.00    +0.000 A 
ATOM     10  C   UNL     1     111.593 126.113 138.889  0.00  0.00    +0.000 A 
ATOM     11  C   UNL     1     111.438 125.826 138.132  0.00  0.00    +0.000 A 
ATOM     12  O   UNL     1     110.658 125.726 137.881  0.00  0.00    +0.000 OA
ATOM     13  O   UNL     1     110.190 126.200 139.145  0.00  0.00    +0.000 OA
ATOM     14  O   UNL     1     112.061 126.974 141.162  0.00  0.00    +0.000 OA
BRANCH   3  15
ATOM     15  C   UNL     1     113.464 125.552 137.369  0.00  0.00    +0.000 A 
ATOM     16  C   UNL     1     113.887 126.154 136.994  0.00  0.00    +0.000 A 
ATOM     17  C   UNL     1     114.510 125.966 136.487  0.00  0.00    +0.000 A 
ATOM     18  C   UNL     1     114.711 125.177 136.355  0.00  0.00    +0.000 A 
ATOM     19  C   UNL     1     114.289 124.575 136.730  0.00  0.00    +0.000 A 
ATOM     20  C   UNL     1     113.665 124.763 137.237  0.00  0.00    +0.000 A 
ATOM     21  O   UNL     1     115.333 124.989 135.848  0.00  0.00    +0.000 OA
ATOM     22  O   UNL     1     114.931 126.567 136.112  0.00  0.00    +0.000 OA
ENDBRANCH   3  15
ENDBRANCH   1   2
BRANCH   1  27
ATOM     23  C   UNL     1     111.074 127.087 135.837  0.00  0.00    +0.000 C 
ATOM     24  C   UNL     1     110.598 126.719 135.272  0.00  0.00    +0.000 C 
ATOM     25  C   UNL     1     110.558 125.895 135.239  0.00  0.00    +0.000 C 
ATOM     26  C   UNL     1     110.993 125.440 135.770  0.00  0.00    +0.000 C 
ATOM     27  C   UNL     1     111.470 125.808 136.336  0.00  0.00    +0.000 C 
ATOM     28  O   UNL     1     111.509 126.632 136.368  0.00  0.00    +0.000 OA
ATOM     29  O   UNL     1     110.954 124.617 135.737  0.00  0.00    +0.000 OA
ATOM     30  O   UNL     1     110.082 125.528 134.674  0.00  0.00    +0.000 OA
ATOM     31  O   UNL     1     110.162 127.175 134.740  0.00  0.00    +0.000 OA
BRANCH  23  32
ATOM     32  C   UNL     1     111.113 127.910 135.870  0.00  0.00    +0.000 C 
BRANCH  32  33
ATOM     33  O   UNL     1     111.844 128.291 135.827  0.00  0.00    +0.000 OA
BRANCH  33  39
ATOM     34  C   UNL     1     111.200 130.032 137.999  0.00  0.00    +0.000 C 
ATOM     35  C   UNL     1     111.645 129.865 137.325  0.00  0.00    +0.000 C 
ATOM     36  C   UNL     1     112.214 130.403 137.063  0.00  0.00    +0.000 C 
ATOM     37  C   UNL     1     112.660 130.236 136.390  0.00  0.00    +0.000 C 
ATOM     38  C   UNL     1     112.537 129.532 135.977  0.00  0.00    +0.000 C 
ATOM     39  C   UNL     1     111.967 128.994 136.239  0.00  0.00    +0.000 C 
ATOM     40  O   UNL     1     111.522 129.162 136.913  0.00  0.00    +0.000 OA
ATOM     41  O   UNL     1     112.982 129.365 135.303  0.00  0.00    +0.000 OA
ATOM     42  O   UNL     1     113.228 130.773 136.128  0.00  0.00    +0.000 OA
ATOM     43  O   UNL     1     112.337 131.107 137.476  0.00  0.00    +0.000 OA
ENDBRANCH  33  39
ENDBRANCH  32  33
ENDBRANCH  23  32
ENDBRANCH   1  27
TORSDOF 6
ENDMDL
MODEL 8
REMARK VINA RESULT:     -10.3      2.099      4.585
REMARK  Name = null
REMARK  6 active torsions:
REMARK  status: ('A' for Active; 'I' for Inactive)
REMARK    1  A    between atoms: C_6  and  O_8
REMARK    2  A    between atoms: O_8  and  C_9
REMARK    3  A    between atoms: C_9  and  C_10
REMARK    4  A    between atoms: C_14  and  O_16
REMARK    5  A    between atoms: O_16  and  C_17
REMARK    6  A    between atoms: C_18  and  C_30
REMARK                            x       y       z     vdW  Elec       q    Type
REMARK                         _______ _______ _______ _____ _____    ______ ____
ROOT
ATOM      1  O   UNL     1     111.303 127.341 137.221  0.00  0.00    +0.000 OA
ENDROOT
BRANCH   1   2
ATOM      2  C   UNL     1     111.814 127.746 136.715  0.00  0.00    +0.000 A 
ATOM      3  C   UNL     1     111.781 127.609 135.901  0.00  0.00    +0.000 A 
ATOM      4  O   UNL     1     112.291 128.013 135.395  0.00  0.00    +0.000 OA
ATOM      5  C   UNL     1     112.833 128.554 135.700  0.00  0.00    +0.000 A 
ATOM      6  C   UNL     1     113.343 128.959 135.193  0.00  0.00    +0.000 A 
ATOM      7  C   UNL     1     113.885 129.500 135.499  0.00  0.00    +0.000 A 
ATOM      8  C   UNL     1     113.917 129.637 136.313  0.00  0.00    +0.000 A 
ATOM      9  C   UNL     1     113.407 129.233 136.819  0.00  0.00    +0.000 A 
ATOM     10  C   UNL     1     112.865 128.691 136.514  0.00  0.00    +0.000 A 
ATOM     11  C   UNL     1     112.355 128.287 137.020  0.00  0.00    +0.000 A 
ATOM     12  O   UNL     1     112.387 128.424 137.833  0.00  0.00    +0.000 OA
ATOM     13  O   UNL     1     113.439 129.370 137.632  0.00  0.00    +0.000 OA
ATOM     14  O   UNL     1     114.395 129.904 134.992  0.00  0.00    +0.000 OA
BRANCH   3  15
ATOM     15  C   UNL     1     111.239 127.067 135.596  0.00  0.00    +0.000 A 
ATOM     16  C   UNL     1     111.349 126.258 135.716  0.00  0.00    +0.000 A 
ATOM     17  C   UNL     1     110.807 125.717 135.411  0.00  0.00    +0.000 A 
ATOM     18  C   UNL     1     110.154 125.985 134.985  0.00  0.00    +0.000 A 
ATOM     19  C   UNL     1     110.042 126.793 134.863  0.00  0.00    +0.000 A 
ATOM     20  C   UNL     1     110.585 127.334 135.169  0.00  0.00    +0.000 A 
ATOM     21  O   UNL     1     109.611 125.444 134.679  0.00  0.00    +0.000 OA
ATOM     22  O   UNL     1     110.918 124.909 135.532  0.00  0.00    +0.000 OA
ENDBRANCH   3  15
ENDBRANCH   1   2
BRANCH   1  27
ATOM     23  C   UNL     1     109.933 128.885 137.930  0.00  0.00    +0.000 C 
ATOM     24  C   UNL     1     109.759 128.603 138.687  0.00  0.00    +0.000 C 
ATOM     25  C   UNL     1     110.100 127.901 138.954  0.00  0.00    +0.000 C 
ATOM     26  C   UNL     1     110.614 127.480 138.466  0.00  0.00    +0.000 C 
ATOM     27  C   UNL     1     110.788 127.762 137.710  0.00  0.00    +0.000 C 
ATOM     28  O   UNL     1     110.447 128.465 137.442  0.00  0.00    +0.000 OA
ATOM     29  O   UNL     1     110.955 126.778 138.733  0.00  0.00    +0.000 OA
ATOM     30  O   UNL     1     109.925 127.620 139.710  0.00  0.00    +0.000 OA
ATOM     31  O   UNL     1     109.244 129.024 139.175  0.00  0.00    +0.000 OA
BRANCH  23  32
ATOM     32  C   UNL     1     109.592 129.587 137.664  0.00  0.00    +0.000 C 
BRANCH  32  33
ATOM     33  O   UNL     1     109.183 129.602 136.947  0.00  0.00    +0.000 OA
BRANCH  33  39
ATOM     34  C   UNL     1     109.897 132.309 136.374  0.00  0.00    +0.000 C 
ATOM     35  C   UNL     1     109.374 131.676 136.296  0.00  0.00    +0.000 C 
ATOM     36  C   UNL     1     108.683 131.764 135.851  0.00  0.00    +0.000 C 
ATOM     37  C   UNL     1     108.161 131.131 135.772  0.00  0.00    +0.000 C 
ATOM     38  C   UNL     1     108.327 130.410 136.137  0.00  0.00    +0.000 C 
ATOM     39  C   UNL     1     109.017 130.322 136.582  0.00  0.00    +0.000 C 
ATOM     40  O   UNL     1     109.540 130.956 136.661  0.00  0.00    +0.000 OA
ATOM     41  O   UNL     1     107.804 129.777 136.059  0.00  0.00    +0.000 OA
ATOM     42  O   UNL     1     107.471 131.219 135.328  0.00  0.00    +0.000 OA
ATOM     43  O   UNL     1     108.518 132.485 135.486  0.00  0.00    +0.000 OA
ENDBRANCH  33  39
ENDBRANCH  32  33
ENDBRANCH  23  32
ENDBRANCH   1  27
TORSDOF 6
ENDMDL
MODEL 9
REMARK VINA RESULT:     -10.2      2.185      4.291
REMARK  Name = null
REMARK  6 active torsions:
REMARK  status: ('A' for Active; 'I' for Inactive)
REMARK    1  A    between atoms: C_6  and  O_8
REMARK    2  A    between atoms: O_8  and  C_9
REMARK    3  A    between atoms: C_9  and  C_10
REMARK    4  A    between atoms: C_14  and  O_16
REMARK    5  A    between atoms: O_16  and  C_17
REMARK    6  A    between atoms: C_18  and  C_30
REMARK                            x       y       z     vdW  Elec       q    Type
REMARK                         _______ _______ _______ _____ _____    ______ ____
ROOT
ATOM      1  O   UNL     1     110.413 130.302 136.183  0.00  0.00    +0.000 OA
ENDROOT
BRANCH   1   2
ATOM      2  C   UNL     1     111.237 130.279 136.198  0.00  0.00    +0.000 A 
ATOM      3  C   UNL     1     111.653 130.758 136.727  0.00  0.00    +0.000 A 
ATOM      4  O   UNL     1     112.477 130.735 136.743  0.00  0.00    +0.000 OA
ATOM      5  C   UNL     1     112.886 130.234 136.232  0.00  0.00    +0.000 A 
ATOM      6  C   UNL     1     113.711 130.211 136.247  0.00  0.00    +0.000 A 
ATOM      7  C   UNL     1     114.120 129.710 135.736  0.00  0.00    +0.000 A 
ATOM      8  C   UNL     1     113.704 129.231 135.207  0.00  0.00    +0.000 A 
ATOM      9  C   UNL     1     112.880 129.254 135.191  0.00  0.00    +0.000 A 
ATOM     10  C   UNL     1     112.470 129.755 135.703  0.00  0.00    +0.000 A 
ATOM     11  C   UNL     1     111.646 129.778 135.687  0.00  0.00    +0.000 A 
ATOM     12  O   UNL     1     111.231 129.299 135.159  0.00  0.00    +0.000 OA
ATOM     13  O   UNL     1     112.464 128.775 134.663  0.00  0.00    +0.000 OA
ATOM     14  O   UNL     1     114.944 129.687 135.752  0.00  0.00    +0.000 OA
BRANCH   3  15
ATOM     15  C   UNL     1     111.244 131.259 137.239  0.00  0.00    +0.000 A 
ATOM     16  C   UNL     1     111.175 131.068 138.038  0.00  0.00    +0.000 A 
ATOM     17  C   UNL     1     110.766 131.569 138.549  0.00  0.00    +0.000 A 
ATOM     18  C   UNL     1     110.424 132.262 138.261  0.00  0.00    +0.000 A 
ATOM     19  C   UNL     1     110.492 132.455 137.462  0.00  0.00    +0.000 A 
ATOM     20  C   UNL     1     110.902 131.953 136.950  0.00  0.00    +0.000 A 
ATOM     21  O   UNL     1     110.015 132.764 138.771  0.00  0.00    +0.000 OA
ATOM     22  O   UNL     1     110.698 131.377 139.348  0.00  0.00    +0.000 OA
ENDBRANCH   3  15
ENDBRANCH   1   2
BRANCH   1  27
ATOM     23  C   UNL     1     109.845 128.328 136.920  0.00  0.00    +0.000 C 
ATOM     24  C   UNL     1     109.111 128.231 136.556  0.00  0.00    +0.000 C 
ATOM     25  C   UNL     1     108.811 128.825 136.067  0.00  0.00    +0.000 C 
ATOM     26  C   UNL     1     109.244 129.514 135.943  0.00  0.00    +0.000 C 
ATOM     27  C   UNL     1     109.979 129.612 136.307  0.00  0.00    +0.000 C 
ATOM     28  O   UNL     1     110.279 129.018 136.796  0.00  0.00    +0.000 OA
ATOM     29  O   UNL     1     108.945 130.108 135.455  0.00  0.00    +0.000 OA
ATOM     30  O   UNL     1     108.077 128.727 135.704  0.00  0.00    +0.000 OA
ATOM     31  O   UNL     1     108.677 127.540 136.681  0.00  0.00    +0.000 OA
BRANCH  23  32
ATOM     32  C   UNL     1     110.145 127.734 137.408  0.00  0.00    +0.000 C 
BRANCH  32  33
ATOM     33  O   UNL     1     110.379 127.912 138.179  0.00  0.00    +0.000 OA
BRANCH  33  39
ATOM     34  C   UNL     1     112.978 126.723 138.183  0.00  0.00    +0.000 C 
ATOM     35  C   UNL     1     112.253 126.859 138.553  0.00  0.00    +0.000 C 
ATOM     36  C   UNL     1     112.104 126.534 139.298  0.00  0.00    +0.000 C 
ATOM     37  C   UNL     1     111.380 126.669 139.668  0.00  0.00    +0.000 C 
ATOM     38  C   UNL     1     110.804 127.128 139.296  0.00  0.00    +0.000 C 
ATOM     39  C   UNL     1     110.954 127.453 138.551  0.00  0.00    +0.000 C 
ATOM     40  O   UNL     1     111.679 127.318 138.181  0.00  0.00    +0.000 OA
ATOM     41  O   UNL     1     110.080 127.264 139.666  0.00  0.00    +0.000 OA
ATOM     42  O   UNL     1     111.230 126.345 140.412  0.00  0.00    +0.000 OA
ATOM     43  O   UNL     1     112.679 126.074 139.670  0.00  0.00    +0.000 OA
ENDBRANCH  33  39
ENDBRANCH  32  33
ENDBRANCH  23  32
ENDBRANCH   1  27
TORSDOF 6
ENDMDL
MODEL 10
REMARK VINA RESULT:     -10.2      1.582      4.164
REMARK  Name = null
REMARK  6 active torsions:
REMARK  status: ('A' for Active; 'I' for Inactive)
REMARK    1  A    between atoms: C_6  and  O_8
REMARK    2  A    between atoms: O_8  and  C_9
REMARK    3  A    between atoms: C_9  and  C_10
REMARK    4  A    between atoms: C_14  and  O_16
REMARK    5  A    between atoms: O_16  and  C_17
REMARK    6  A    between atoms: C_18  and  C_30
REMARK                            x       y       z     vdW  Elec       q    Type
REMARK                         _______ _______ _______ _____ _____    ______ ____
ROOT
ATOM      1  O   UNL     1     111.788 126.106 137.740  0.00  0.00    +0.000 OA
ENDROOT
BRANCH   1   2
ATOM      2  C   UNL     1     111.941 126.659 137.147  0.00  0.00    +0.000 A 
ATOM      3  C   UNL     1     112.646 126.621 136.720  0.00  0.00    +0.000 A 
ATOM      4  O   UNL     1     112.800 127.174 136.128  0.00  0.00    +0.000 OA
ATOM      5  C   UNL     1     112.249 127.765 135.962  0.00  0.00    +0.000 A 
ATOM      6  C   UNL     1     112.402 128.319 135.370  0.00  0.00    +0.000 A 
ATOM      7  C   UNL     1     111.851 128.909 135.205  0.00  0.00    +0.000 A 
ATOM      8  C   UNL     1     111.145 128.947 135.632  0.00  0.00    +0.000 A 
ATOM      9  C   UNL     1     110.992 128.395 136.224  0.00  0.00    +0.000 A 
ATOM     10  C   UNL     1     111.543 127.803 136.390  0.00  0.00    +0.000 A 
ATOM     11  C   UNL     1     111.390 127.250 136.982  0.00  0.00    +0.000 A 
ATOM     12  O   UNL     1     110.685 127.288 137.409  0.00  0.00    +0.000 OA
ATOM     13  O   UNL     1     110.287 128.432 136.651  0.00  0.00    +0.000 OA
ATOM     14  O   UNL     1     112.004 129.463 134.612  0.00  0.00    +0.000 OA
BRANCH   3  15
ATOM     15  C   UNL     1     113.197 126.030 136.885  0.00  0.00    +0.000 A 
ATOM     16  C   UNL     1     113.065 125.257 136.628  0.00  0.00    +0.000 A 
ATOM     17  C   UNL     1     113.615 124.667 136.794  0.00  0.00    +0.000 A 
ATOM     18  C   UNL     1     114.300 124.848 137.218  0.00  0.00    +0.000 A 
ATOM     19  C   UNL     1     114.433 125.620 137.475  0.00  0.00    +0.000 A 
ATOM     20  C   UNL     1     113.881 126.211 137.309  0.00  0.00    +0.000 A 
ATOM     21  O   UNL     1     114.851 124.258 137.384  0.00  0.00    +0.000 OA
ATOM     22  O   UNL     1     113.483 123.895 136.537  0.00  0.00    +0.000 OA
ENDBRANCH   3  15
ENDBRANCH   1   2
BRANCH   1  27
ATOM     23  C   UNL     1     111.865 127.300 139.564  0.00  0.00    +0.000 C 
ATOM     24  C   UNL     1     111.372 126.861 140.059  0.00  0.00    +0.000 C 
ATOM     25  C   UNL     1     111.017 126.170 139.780  0.00  0.00    +0.000 C 
ATOM     26  C   UNL     1     111.155 125.918 139.008  0.00  0.00    +0.000 C 
ATOM     27  C   UNL     1     111.649 126.358 138.513  0.00  0.00    +0.000 C 
ATOM     28  O   UNL     1     112.004 127.049 138.792  0.00  0.00    +0.000 OA
ATOM     29  O   UNL     1     110.801 125.228 138.729  0.00  0.00    +0.000 OA
ATOM     30  O   UNL     1     110.523 125.732 140.275  0.00  0.00    +0.000 OA
ATOM     31  O   UNL     1     111.233 127.113 140.833  0.00  0.00    +0.000 OA
BRANCH  23  32
ATOM     32  C   UNL     1     112.220 127.991 139.844  0.00  0.00    +0.000 C 
BRANCH  32  33
ATOM     33  O   UNL     1     113.042 128.060 139.850  0.00  0.00    +0.000 OA
BRANCH  33  39
ATOM     34  C   UNL     1     113.296 130.547 138.466  0.00  0.00    +0.000 C 
ATOM     35  C   UNL     1     113.521 130.045 139.080  0.00  0.00    +0.000 C 
ATOM     36  C   UNL     1     114.099 130.286 139.619  0.00  0.00    +0.000 C 
ATOM     37  C   UNL     1     114.324 129.784 140.233  0.00  0.00    +0.000 C 
ATOM     38  C   UNL     1     113.972 129.042 140.311  0.00  0.00    +0.000 C 
ATOM     39  C   UNL     1     113.394 128.801 139.773  0.00  0.00    +0.000 C 
ATOM     40  O   UNL     1     113.169 129.304 139.158  0.00  0.00    +0.000 OA
ATOM     41  O   UNL     1     114.197 128.541 140.926  0.00  0.00    +0.000 OA
ATOM     42  O   UNL     1     114.901 130.025 140.771  0.00  0.00    +0.000 OA
ATOM     43  O   UNL     1     114.451 131.028 139.541  0.00  0.00    +0.000 OA
ENDBRANCH  33  39
ENDBRANCH  32  33
ENDBRANCH  23  32
ENDBRANCH   1  27
TORSDOF 6
ENDMDL
