MODEL 1
REMARK VINA RESULT:      -9.8      0.000      0.000
REMARK  Name = 131751472
REMARK  4 active torsions:
REMARK  status: ('A' for Active; 'I' for Inactive)
REMARK    1  A    between atoms: O_2  and  C_17
REMARK    2  A    between atoms: O_2  and  C_19
REMARK    3  A    between atoms: O_11  and  C_31
REMARK    4  A    between atoms: C_26  and  C_28
REMARK                            x       y       z     vdW  Elec       q    Type
REMARK                         _______ _______ _______ _____ _____    ______ ____
ROOT
ATOM      1  O   UNL     1     112.722 126.569 136.412  0.00  0.00    +0.000 OA
ATOM      2  O   UNL     1     111.218 124.114 136.318  0.00  0.00    +0.000 OA
ATOM      3  O   UNL     1     112.542 123.265 136.818  0.00  0.00    +0.000 OA
ATOM      4  O   UNL     1     113.962 124.051 137.119  0.00  0.00    +0.000 OA
ATOM      5  O   UNL     1     114.748 125.258 137.179  0.00  0.00    +0.000 OA
ATOM      6  C   UNL     1     111.975 125.324 136.368  0.00  0.00    +0.000 A 
ATOM      7  C   UNL     1     112.685 125.717 136.519  0.00  0.00    +0.000 A 
ATOM      8  C   UNL     1     111.928 124.506 136.468  0.00  0.00    +0.000 A 
ATOM      9  C   UNL     1     113.347 125.293 136.769  0.00  0.00    +0.000 A 
ATOM     10  C   UNL     1     112.590 124.082 136.718  0.00  0.00    +0.000 A 
ATOM     11  C   UNL     1     113.299 124.476 136.869  0.00  0.00    +0.000 A 
ATOM     12  C   UNL     1     114.092 125.691 136.929  0.00  0.00    +0.000 A 
ATOM     13  C   UNL     1     113.458 126.984 136.567  0.00  0.00    +0.000 A 
ATOM     14  C   UNL     1     114.147 126.542 136.827  0.00  0.00    +0.000 A 
ENDROOT
BRANCH  13  16
ATOM     15  O   UNL     1     113.637 130.255 136.166  0.00  0.00    +0.000 OA
ATOM     16  C   UNL     1     113.503 127.802 136.466  0.00  0.00    +0.000 A 
ATOM     17  C   UNL     1     113.221 128.306 137.056  0.00  0.00    +0.000 A 
ATOM     18  C   UNL     1     113.829 128.116 135.777  0.00  0.00    +0.000 A 
ATOM     19  C   UNL     1     113.266 129.124 136.956  0.00  0.00    +0.000 A 
ATOM     20  C   UNL     1     113.874 128.934 135.677  0.00  0.00    +0.000 A 
ATOM     21  C   UNL     1     113.592 129.438 136.266  0.00  0.00    +0.000 A 
BRANCH  19  22
ATOM     22  O   UNL     1     112.984 129.628 137.545  0.00  0.00    +0.000 OA
ATOM     23  C   UNL     1     112.312 129.422 137.977  0.00  0.00    +0.000 C 
ENDBRANCH  19  22
ENDBRANCH  13  16
BRANCH   6  24
ATOM     24  O   UNL     1     111.314 125.748 136.119  0.00  0.00    +0.000 OA
BRANCH  24  33
ATOM     25  O   UNL     1     110.854 125.831 137.469  0.00  0.00    +0.000 OA
ATOM     26  O   UNL     1     108.778 126.936 136.693  0.00  0.00    +0.000 OA
ATOM     27  O   UNL     1     109.010 126.650 138.302  0.00  0.00    +0.000 OA
ATOM     28  O   UNL     1     109.931 126.485 135.602  0.00  0.00    +0.000 OA
ATOM     29  C   UNL     1     109.471 126.568 136.952  0.00  0.00    +0.000 C 
ATOM     30  C   UNL     1     109.586 126.425 137.756  0.00  0.00    +0.000 C 
ATOM     31  C   UNL     1     110.046 126.342 136.406  0.00  0.00    +0.000 C 
ATOM     32  C   UNL     1     110.277 126.057 138.014  0.00  0.00    +0.000 C 
ATOM     33  C   UNL     1     110.738 125.974 136.665  0.00  0.00    +0.000 C 
ATOM     34  C   UNL     1     110.393 125.913 138.819  0.00  0.00    +0.000 C 
ENDBRANCH  24  33
ENDBRANCH   6  24
TORSDOF 4
ENDMDL
MODEL 2
REMARK VINA RESULT:      -9.8      1.016      3.549
REMARK  Name = 131751472
REMARK  4 active torsions:
REMARK  status: ('A' for Active; 'I' for Inactive)
REMARK    1  A    between atoms: O_2  and  C_17
REMARK    2  A    between atoms: O_2  and  C_19
REMARK    3  A    between atoms: O_11  and  C_31
REMARK    4  A    between atoms: C_26  and  C_28
REMARK                            x       y       z     vdW  Elec       q    Type
REMARK                         _______ _______ _______ _____ _____    ______ ____
ROOT
ATOM      1  O   UNL     1     112.029 125.826 136.229  0.00  0.00    +0.000 OA
ATOM      2  O   UNL     1     114.833 126.004 136.864  0.00  0.00    +0.000 OA
ATOM      3  O   UNL     1     114.858 124.407 137.276  0.00  0.00    +0.000 OA
ATOM      4  O   UNL     1     113.479 123.505 137.171  0.00  0.00    +0.000 OA
ATOM      5  O   UNL     1     112.076 123.376 136.863  0.00  0.00    +0.000 OA
ATOM      6  C   UNL     1     113.442 125.903 136.553  0.00  0.00    +0.000 A 
ATOM      7  C   UNL     1     112.753 125.452 136.500  0.00  0.00    +0.000 A 
ATOM      8  C   UNL     1     114.144 125.554 136.812  0.00  0.00    +0.000 A 
ATOM      9  C   UNL     1     112.766 124.653 136.706  0.00  0.00    +0.000 A 
ATOM     10  C   UNL     1     114.157 124.755 137.018  0.00  0.00    +0.000 A 
ATOM     11  C   UNL     1     113.467 124.305 136.965  0.00  0.00    +0.000 A 
ATOM     12  C   UNL     1     112.054 124.174 136.655  0.00  0.00    +0.000 A 
ATOM     13  C   UNL     1     111.308 125.363 136.172  0.00  0.00    +0.000 A 
ATOM     14  C   UNL     1     111.321 124.531 136.387  0.00  0.00    +0.000 A 
ENDROOT
BRANCH  13  16
ATOM     15  O   UNL     1     108.507 126.767 135.136  0.00  0.00    +0.000 OA
ATOM     16  C   UNL     1     110.608 125.714 135.913  0.00  0.00    +0.000 A 
ATOM     17  C   UNL     1     110.157 126.168 136.434  0.00  0.00    +0.000 A 
ATOM     18  C   UNL     1     110.358 125.611 135.134  0.00  0.00    +0.000 A 
ATOM     19  C   UNL     1     109.456 126.520 136.175  0.00  0.00    +0.000 A 
ATOM     20  C   UNL     1     109.658 125.962 134.875  0.00  0.00    +0.000 A 
ATOM     21  C   UNL     1     109.207 126.416 135.395  0.00  0.00    +0.000 A 
BRANCH  19  22
ATOM     22  O   UNL     1     109.005 126.974 136.696  0.00  0.00    +0.000 OA
ATOM     23  C   UNL     1     109.378 127.472 137.238  0.00  0.00    +0.000 C 
ENDBRANCH  19  22
ENDBRANCH  13  16
BRANCH   6  24
ATOM     24  O   UNL     1     113.430 126.700 136.347  0.00  0.00    +0.000 OA
BRANCH  24  33
ATOM     25  O   UNL     1     113.229 127.051 137.718  0.00  0.00    +0.000 OA
ATOM     26  O   UNL     1     113.195 129.448 137.100  0.00  0.00    +0.000 OA
ATOM     27  O   UNL     1     113.005 128.999 138.677  0.00  0.00    +0.000 OA
ATOM     28  O   UNL     1     113.407 128.298 135.935  0.00  0.00    +0.000 OA
ATOM     29  C   UNL     1     113.206 128.648 137.306  0.00  0.00    +0.000 C 
ATOM     30  C   UNL     1     113.111 128.425 138.094  0.00  0.00    +0.000 C 
ATOM     31  C   UNL     1     113.312 128.074 136.724  0.00  0.00    +0.000 C 
ATOM     32  C   UNL     1     113.123 127.626 138.299  0.00  0.00    +0.000 C 
ATOM     33  C   UNL     1     113.324 127.276 136.930  0.00  0.00    +0.000 C 
ATOM     34  C   UNL     1     113.028 127.401 139.088  0.00  0.00    +0.000 C 
ENDBRANCH  24  33
ENDBRANCH   6  24
TORSDOF 4
ENDMDL
MODEL 3
REMARK VINA RESULT:      -9.5      1.790      4.962
REMARK  Name = 131751472
REMARK  4 active torsions:
REMARK  status: ('A' for Active; 'I' for Inactive)
REMARK    1  A    between atoms: O_2  and  C_17
REMARK    2  A    between atoms: O_2  and  C_19
REMARK    3  A    between atoms: O_11  and  C_31
REMARK    4  A    between atoms: C_26  and  C_28
REMARK                            x       y       z     vdW  Elec       q    Type
REMARK                         _______ _______ _______ _____ _____    ______ ____
ROOT
ATOM      1  O   UNL     1     110.654 127.330 135.699  0.00  0.00    +0.000 OA
ATOM      2  O   UNL     1     110.398 130.051 134.788  0.00  0.00    +0.000 OA
ATOM      3  O   UNL     1     108.785 130.033 135.136  0.00  0.00    +0.000 OA
ATOM      4  O   UNL     1     108.091 128.674 135.765  0.00  0.00    +0.000 OA
ATOM      5  O   UNL     1     108.178 127.312 136.230  0.00  0.00    +0.000 OA
ATOM      6  C   UNL     1     110.511 128.702 135.243  0.00  0.00    +0.000 A 
ATOM      7  C   UNL     1     110.164 128.022 135.557  0.00  0.00    +0.000 A 
ATOM      8  C   UNL     1     110.051 129.372 135.102  0.00  0.00    +0.000 A 
ATOM      9  C   UNL     1     109.358 128.013 135.731  0.00  0.00    +0.000 A 
ATOM     10  C   UNL     1     109.245 129.363 135.276  0.00  0.00    +0.000 A 
ATOM     11  C   UNL     1     108.899 128.683 135.591  0.00  0.00    +0.000 A 
ATOM     12  C   UNL     1     108.986 127.311 136.059  0.00  0.00    +0.000 A 
ATOM     13  C   UNL     1     110.299 126.620 136.026  0.00  0.00    +0.000 A 
ATOM     14  C   UNL     1     109.459 126.610 136.207  0.00  0.00    +0.000 A 
ENDROOT
BRANCH  13  16
ATOM     15  O   UNL     1     112.148 123.944 136.584  0.00  0.00    +0.000 OA
ATOM     16  C   UNL     1     110.761 125.951 136.165  0.00  0.00    +0.000 A 
ATOM     17  C   UNL     1     111.163 125.869 136.881  0.00  0.00    +0.000 A 
ATOM     18  C   UNL     1     110.821 125.363 135.590  0.00  0.00    +0.000 A 
ATOM     19  C   UNL     1     111.626 125.200 137.021  0.00  0.00    +0.000 A 
ATOM     20  C   UNL     1     111.284 124.694 135.729  0.00  0.00    +0.000 A 
ATOM     21  C   UNL     1     111.686 124.613 136.445  0.00  0.00    +0.000 A 
BRANCH  19  22
ATOM     22  O   UNL     1     112.029 125.119 137.737  0.00  0.00    +0.000 OA
ATOM     23  C   UNL     1     112.365 125.780 138.098  0.00  0.00    +0.000 C 
ENDBRANCH  19  22
ENDBRANCH  13  16
BRANCH   6  24
ATOM     24  O   UNL     1     111.317 128.711 135.069  0.00  0.00    +0.000 OA
BRANCH  24  33
ATOM     25  O   UNL     1     111.600 129.261 136.357  0.00  0.00    +0.000 OA
ATOM     26  O   UNL     1     113.947 129.653 135.673  0.00  0.00    +0.000 OA
ATOM     27  O   UNL     1     113.447 130.073 137.189  0.00  0.00    +0.000 OA
ATOM     28  O   UNL     1     112.881 128.971 134.613  0.00  0.00    +0.000 OA
ATOM     29  C   UNL     1     113.164 129.522 135.901  0.00  0.00    +0.000 C 
ATOM     30  C   UNL     1     112.915 129.732 136.658  0.00  0.00    +0.000 C 
ATOM     31  C   UNL     1     112.632 129.182 135.371  0.00  0.00    +0.000 C 
ATOM     32  C   UNL     1     112.133 129.602 136.886  0.00  0.00    +0.000 C 
ATOM     33  C   UNL     1     111.850 129.051 135.599  0.00  0.00    +0.000 C 
ATOM     34  C   UNL     1     111.883 129.812 137.644  0.00  0.00    +0.000 C 
ENDBRANCH  24  33
ENDBRANCH   6  24
TORSDOF 4
ENDMDL
MODEL 4
REMARK VINA RESULT:      -9.5      1.296      4.302
REMARK  Name = 131751472
REMARK  4 active torsions:
REMARK  status: ('A' for Active; 'I' for Inactive)
REMARK    1  A    between atoms: O_2  and  C_17
REMARK    2  A    between atoms: O_2  and  C_19
REMARK    3  A    between atoms: O_11  and  C_31
REMARK    4  A    between atoms: C_26  and  C_28
REMARK                            x       y       z     vdW  Elec       q    Type
REMARK                         _______ _______ _______ _____ _____    ______ ____
ROOT
ATOM      1  O   UNL     1     110.899 126.095 136.760  0.00  0.00    +0.000 OA
ATOM      2  O   UNL     1     109.090 128.267 137.316  0.00  0.00    +0.000 OA
ATOM      3  O   UNL     1     108.255 127.947 135.929  0.00  0.00    +0.000 OA
ATOM      4  O   UNL     1     108.727 126.707 134.948  0.00  0.00    +0.000 OA
ATOM      5  O   UNL     1     109.611 125.612 134.634  0.00  0.00    +0.000 OA
ATOM      6  C   UNL     1     109.980 127.187 137.029  0.00  0.00    +0.000 A 
ATOM      7  C   UNL     1     110.216 126.567 136.538  0.00  0.00    +0.000 A 
ATOM      8  C   UNL     1     109.326 127.647 136.825  0.00  0.00    +0.000 A 
ATOM      9  C   UNL     1     109.799 126.407 135.845  0.00  0.00    +0.000 A 
ATOM     10  C   UNL     1     108.908 127.487 136.132  0.00  0.00    +0.000 A 
ATOM     11  C   UNL     1     109.145 126.867 135.642  0.00  0.00    +0.000 A 
ATOM     12  C   UNL     1     110.035 125.764 135.326  0.00  0.00    +0.000 A 
ATOM     13  C   UNL     1     111.150 125.448 136.254  0.00  0.00    +0.000 A 
ATOM     14  C   UNL     1     110.715 125.281 135.532  0.00  0.00    +0.000 A 
ENDROOT
BRANCH  13  16
ATOM     15  O   UNL     1     113.768 123.614 137.075  0.00  0.00    +0.000 OA
ATOM     16  C   UNL     1     111.804 124.989 136.459  0.00  0.00    +0.000 A 
ATOM     17  C   UNL     1     112.567 125.278 136.332  0.00  0.00    +0.000 A 
ATOM     18  C   UNL     1     111.697 124.242 136.792  0.00  0.00    +0.000 A 
ATOM     19  C   UNL     1     113.222 124.820 136.537  0.00  0.00    +0.000 A 
ATOM     20  C   UNL     1     112.352 123.784 136.997  0.00  0.00    +0.000 A 
ATOM     21  C   UNL     1     113.114 124.073 136.870  0.00  0.00    +0.000 A 
BRANCH  19  22
ATOM     22  O   UNL     1     113.984 125.108 136.410  0.00  0.00    +0.000 OA
ATOM     23  C   UNL     1     114.158 125.899 136.570  0.00  0.00    +0.000 C 
ENDBRANCH  19  22
ENDBRANCH  13  16
BRANCH   6  24
ATOM     24  O   UNL     1     110.397 127.346 137.721  0.00  0.00    +0.000 OA
BRANCH  24  33
ATOM     25  O   UNL     1     111.169 128.332 137.032  0.00  0.00    +0.000 OA
ATOM     26  O   UNL     1     112.309 128.921 139.149  0.00  0.00    +0.000 OA
ATOM     27  O   UNL     1     112.700 129.710 137.753  0.00  0.00    +0.000 OA
ATOM     28  O   UNL     1     111.157 127.739 139.132  0.00  0.00    +0.000 OA
ATOM     29  C   UNL     1     111.928 128.725 138.443  0.00  0.00    +0.000 C 
ATOM     30  C   UNL     1     112.124 129.119 137.746  0.00  0.00    +0.000 C 
ATOM     31  C   UNL     1     111.353 128.134 138.435  0.00  0.00    +0.000 C 
ATOM     32  C   UNL     1     111.744 128.923 137.040  0.00  0.00    +0.000 C 
ATOM     33  C   UNL     1     110.974 127.938 137.729  0.00  0.00    +0.000 C 
ATOM     34  C   UNL     1     111.940 129.318 136.342  0.00  0.00    +0.000 C 
ENDBRANCH  24  33
ENDBRANCH   6  24
TORSDOF 4
ENDMDL
MODEL 5
REMARK VINA RESULT:      -9.3      1.893      3.905
REMARK  Name = 131751472
REMARK  4 active torsions:
REMARK  status: ('A' for Active; 'I' for Inactive)
REMARK    1  A    between atoms: O_2  and  C_17
REMARK    2  A    between atoms: O_2  and  C_19
REMARK    3  A    between atoms: O_11  and  C_31
REMARK    4  A    between atoms: C_26  and  C_28
REMARK                            x       y       z     vdW  Elec       q    Type
REMARK                         _______ _______ _______ _____ _____    ______ ____
ROOT
ATOM      1  O   UNL     1     111.223 128.773 136.006  0.00  0.00    +0.000 OA
ATOM      2  O   UNL     1     108.750 127.511 136.776  0.00  0.00    +0.000 OA
ATOM      3  O   UNL     1     107.897 128.591 135.866  0.00  0.00    +0.000 OA
ATOM      4  O   UNL     1     108.689 129.766 135.020  0.00  0.00    +0.000 OA
ATOM      5  O   UNL     1     109.905 130.425 134.612  0.00  0.00    +0.000 OA
ATOM      6  C   UNL     1     109.969 128.146 136.387  0.00  0.00    +0.000 A 
ATOM      7  C   UNL     1     110.365 128.733 135.964  0.00  0.00    +0.000 A 
ATOM      8  C   UNL     1     109.146 128.098 136.354  0.00  0.00    +0.000 A 
ATOM      9  C   UNL     1     109.939 129.273 135.509  0.00  0.00    +0.000 A 
ATOM     10  C   UNL     1     108.719 128.638 135.898  0.00  0.00    +0.000 A 
ATOM     11  C   UNL     1     109.116 129.226 135.476  0.00  0.00    +0.000 A 
ATOM     12  C   UNL     1     110.341 129.890 135.065  0.00  0.00    +0.000 A 
ATOM     13  C   UNL     1     111.641 129.382 135.569  0.00  0.00    +0.000 A 
ATOM     14  C   UNL     1     111.197 129.944 135.095  0.00  0.00    +0.000 A 
ENDROOT
BRANCH  13  16
ATOM     15  O   UNL     1     114.934 129.564 135.709  0.00  0.00    +0.000 OA
ATOM     16  C   UNL     1     112.464 129.428 135.604  0.00  0.00    +0.000 A 
ATOM     17  C   UNL     1     112.830 129.824 136.228  0.00  0.00    +0.000 A 
ATOM     18  C   UNL     1     112.922 129.077 135.015  0.00  0.00    +0.000 A 
ATOM     19  C   UNL     1     113.653 129.870 136.264  0.00  0.00    +0.000 A 
ATOM     20  C   UNL     1     113.745 129.122 135.049  0.00  0.00    +0.000 A 
ATOM     21  C   UNL     1     114.111 129.519 135.674  0.00  0.00    +0.000 A 
BRANCH  19  22
ATOM     22  O   UNL     1     114.018 130.267 136.888  0.00  0.00    +0.000 OA
ATOM     23  C   UNL     1     113.671 130.944 137.205  0.00  0.00    +0.000 C 
ENDBRANCH  19  22
ENDBRANCH  13  16
BRANCH   6  24
ATOM     24  O   UNL     1     110.395 127.607 136.841  0.00  0.00    +0.000 OA
BRANCH  24  33
ATOM     25  O   UNL     1     110.377 126.671 135.762  0.00  0.00    +0.000 OA
ATOM     26  O   UNL     1     111.369 124.948 137.238  0.00  0.00    +0.000 OA
ATOM     27  O   UNL     1     111.019 124.587 135.666  0.00  0.00    +0.000 OA
ATOM     28  O   UNL     1     111.057 126.459 137.825  0.00  0.00    +0.000 OA
ATOM     29  C   UNL     1     111.038 125.523 136.745  0.00  0.00    +0.000 C 
ATOM     30  C   UNL     1     110.864 125.342 135.960  0.00  0.00    +0.000 C 
ATOM     31  C   UNL     1     110.882 126.277 137.039  0.00  0.00    +0.000 C 
ATOM     32  C   UNL     1     110.533 125.916 135.468  0.00  0.00    +0.000 C 
ATOM     33  C   UNL     1     110.552 126.851 136.547  0.00  0.00    +0.000 C 
ATOM     34  C   UNL     1     110.358 125.735 134.682  0.00  0.00    +0.000 C 
ENDBRANCH  24  33
ENDBRANCH   6  24
TORSDOF 4
ENDMDL
MODEL 6
REMARK VINA RESULT:      -9.3     10.205     13.018
REMARK  Name = 131751472
REMARK  4 active torsions:
REMARK  status: ('A' for Active; 'I' for Inactive)
REMARK    1  A    between atoms: O_2  and  C_17
REMARK    2  A    between atoms: O_2  and  C_19
REMARK    3  A    between atoms: O_11  and  C_31
REMARK    4  A    between atoms: C_26  and  C_28
REMARK                            x       y       z     vdW  Elec       q    Type
REMARK                         _______ _______ _______ _____ _____    ______ ____
ROOT
ATOM      1  O   UNL     1     104.753 124.740 147.122  0.00  0.00    +0.000 OA
ATOM      2  O   UNL     1     107.503 125.251 146.431  0.00  0.00    +0.000 OA
ATOM      3  O   UNL     1     107.923 125.237 148.026  0.00  0.00    +0.000 OA
ATOM      4  O   UNL     1     106.773 124.976 149.181  0.00  0.00    +0.000 OA
ATOM      5  O   UNL     1     105.408 124.719 149.568  0.00  0.00    +0.000 OA
ATOM      6  C   UNL     1     106.142 124.997 146.787  0.00  0.00    +0.000 A 
ATOM      7  C   UNL     1     105.568 124.867 147.364  0.00  0.00    +0.000 A 
ATOM      8  C   UNL     1     106.928 125.121 147.008  0.00  0.00    +0.000 A 
ATOM      9  C   UNL     1     105.778 124.860 148.162  0.00  0.00    +0.000 A 
ATOM     10  C   UNL     1     107.139 125.114 147.806  0.00  0.00    +0.000 A 
ATOM     11  C   UNL     1     106.563 124.983 148.382  0.00  0.00    +0.000 A 
ATOM     12  C   UNL     1     105.188 124.725 148.772  0.00  0.00    +0.000 A 
ATOM     13  C   UNL     1     104.150 124.603 147.718  0.00  0.00    +0.000 A 
ATOM     14  C   UNL     1     104.369 124.596 148.549  0.00  0.00    +0.000 A 
ENDROOT
BRANCH  13  16
ATOM     15  O   UNL     1     101.011 124.111 146.823  0.00  0.00    +0.000 OA
ATOM     16  C   UNL     1     103.365 124.480 147.495  0.00  0.00    +0.000 A 
ATOM     17  C   UNL     1     103.161 123.812 147.056  0.00  0.00    +0.000 A 
ATOM     18  C   UNL     1     102.785 125.025 147.709  0.00  0.00    +0.000 A 
ATOM     19  C   UNL     1     102.377 123.688 146.832  0.00  0.00    +0.000 A 
ATOM     20  C   UNL     1     102.000 124.902 147.485  0.00  0.00    +0.000 A 
ATOM     21  C   UNL     1     101.796 124.234 147.047  0.00  0.00    +0.000 A 
BRANCH  19  22
ATOM     22  O   UNL     1     102.173 123.020 146.394  0.00  0.00    +0.000 OA
ATOM     23  C   UNL     1     102.666 122.758 145.787  0.00  0.00    +0.000 C 
ENDBRANCH  19  22
ENDBRANCH  13  16
BRANCH   6  24
ATOM     24  O   UNL     1     105.932 125.005 145.990  0.00  0.00    +0.000 OA
BRANCH  24  33
ATOM     25  O   UNL     1     105.780 126.425 146.039  0.00  0.00    +0.000 OA
ATOM     26  O   UNL     1     105.393 126.467 143.594  0.00  0.00    +0.000 OA
ATOM     27  O   UNL     1     105.370 127.873 144.458  0.00  0.00    +0.000 OA
ATOM     28  O   UNL     1     105.675 125.033 144.361  0.00  0.00    +0.000 OA
ATOM     29  C   UNL     1     105.522 126.453 144.409  0.00  0.00    +0.000 C 
ATOM     30  C   UNL     1     105.511 127.155 144.841  0.00  0.00    +0.000 C 
ATOM     31  C   UNL     1     105.663 125.736 144.792  0.00  0.00    +0.000 C 
ATOM     32  C   UNL     1     105.639 127.141 145.655  0.00  0.00    +0.000 C 
ATOM     33  C   UNL     1     105.792 125.722 145.607  0.00  0.00    +0.000 C 
ATOM     34  C   UNL     1     105.628 127.845 146.088  0.00  0.00    +0.000 C 
ENDBRANCH  24  33
ENDBRANCH   6  24
TORSDOF 4
ENDMDL
MODEL 7
REMARK VINA RESULT:      -9.2      1.727      2.342
REMARK  Name = 131751472
REMARK  4 active torsions:
REMARK  status: ('A' for Active; 'I' for Inactive)
REMARK    1  A    between atoms: O_2  and  C_17
REMARK    2  A    between atoms: O_2  and  C_19
REMARK    3  A    between atoms: O_11  and  C_31
REMARK    4  A    between atoms: C_26  and  C_28
REMARK                            x       y       z     vdW  Elec       q    Type
REMARK                         _______ _______ _______ _____ _____    ______ ____
ROOT
ATOM      1  O   UNL     1     112.644 126.114 138.541  0.00  0.00    +0.000 OA
ATOM      2  O   UNL     1     111.192 124.353 136.784  0.00  0.00    +0.000 OA
ATOM      3  O   UNL     1     112.608 123.718 136.224  0.00  0.00    +0.000 OA
ATOM      4  O   UNL     1     114.049 124.269 136.810  0.00  0.00    +0.000 OA
ATOM      5  O   UNL     1     114.812 125.135 137.675  0.00  0.00    +0.000 OA
ATOM      6  C   UNL     1     111.924 125.221 137.651  0.00  0.00    +0.000 A 
ATOM      7  C   UNL     1     112.644 125.496 137.944  0.00  0.00    +0.000 A 
ATOM      8  C   UNL     1     111.912 124.628 137.077  0.00  0.00    +0.000 A 
ATOM      9  C   UNL     1     113.352 125.179 137.664  0.00  0.00    +0.000 A 
ATOM     10  C   UNL     1     112.620 124.310 136.797  0.00  0.00    +0.000 A 
ATOM     11  C   UNL     1     113.340 124.587 137.091  0.00  0.00    +0.000 A 
ATOM     12  C   UNL     1     114.109 125.458 137.962  0.00  0.00    +0.000 A 
ATOM     13  C   UNL     1     113.391 126.405 138.851  0.00  0.00    +0.000 A 
ATOM     14  C   UNL     1     114.128 126.075 138.559  0.00  0.00    +0.000 A 
ENDROOT
BRANCH  13  16
ATOM     15  O   UNL     1     113.427 128.778 141.144  0.00  0.00    +0.000 OA
ATOM     16  C   UNL     1     113.400 126.998 139.424  0.00  0.00    +0.000 A 
ATOM     17  C   UNL     1     113.319 127.789 139.201  0.00  0.00    +0.000 A 
ATOM     18  C   UNL     1     113.490 126.802 140.220  0.00  0.00    +0.000 A 
ATOM     19  C   UNL     1     113.328 128.383 139.775  0.00  0.00    +0.000 A 
ATOM     20  C   UNL     1     113.499 127.395 140.793  0.00  0.00    +0.000 A 
ATOM     21  C   UNL     1     113.418 128.185 140.571  0.00  0.00    +0.000 A 
BRANCH  19  22
ATOM     22  O   UNL     1     113.248 129.173 139.552  0.00  0.00    +0.000 OA
ATOM     23  C   UNL     1     112.798 129.371 138.889  0.00  0.00    +0.000 C 
ENDBRANCH  19  22
ENDBRANCH  13  16
BRANCH   6  24
ATOM     24  O   UNL     1     111.217 125.538 137.931  0.00  0.00    +0.000 OA
BRANCH  24  33
ATOM     25  O   UNL     1     111.186 126.459 136.839  0.00  0.00    +0.000 OA
ATOM     26  O   UNL     1     108.897 127.147 137.482  0.00  0.00    +0.000 OA
ATOM     27  O   UNL     1     109.630 127.838 136.175  0.00  0.00    +0.000 OA
ATOM     28  O   UNL     1     109.691 125.996 138.360  0.00  0.00    +0.000 OA
ATOM     29  C   UNL     1     109.660 126.917 137.268  0.00  0.00    +0.000 C 
ATOM     30  C   UNL     1     110.026 127.263 136.615  0.00  0.00    +0.000 C 
ATOM     31  C   UNL     1     110.057 126.343 137.706  0.00  0.00    +0.000 C 
ATOM     32  C   UNL     1     110.789 127.034 136.400  0.00  0.00    +0.000 C 
ATOM     33  C   UNL     1     110.820 126.113 137.492  0.00  0.00    +0.000 C 
ATOM     34  C   UNL     1     111.156 127.379 135.746  0.00  0.00    +0.000 C 
ENDBRANCH  24  33
ENDBRANCH   6  24
TORSDOF 4
ENDMDL
MODEL 8
REMARK VINA RESULT:      -9.2      1.617      4.218
REMARK  Name = 131751472
REMARK  4 active torsions:
REMARK  status: ('A' for Active; 'I' for Inactive)
REMARK    1  A    between atoms: O_2  and  C_17
REMARK    2  A    between atoms: O_2  and  C_19
REMARK    3  A    between atoms: O_11  and  C_31
REMARK    4  A    between atoms: C_26  and  C_28
REMARK                            x       y       z     vdW  Elec       q    Type
REMARK                         _______ _______ _______ _____ _____    ______ ____
ROOT
ATOM      1  O   UNL     1     112.515 127.256 136.151  0.00  0.00    +0.000 OA
ATOM      2  O   UNL     1     111.291 129.563 134.935  0.00  0.00    +0.000 OA
ATOM      3  O   UNL     1     109.928 128.691 134.613  0.00  0.00    +0.000 OA
ATOM      4  O   UNL     1     109.841 127.102 135.053  0.00  0.00    +0.000 OA
ATOM      5  O   UNL     1     110.419 125.925 135.654  0.00  0.00    +0.000 OA
ATOM      6  C   UNL     1     111.887 128.411 135.535  0.00  0.00    +0.000 A 
ATOM      7  C   UNL     1     111.843 127.617 135.755  0.00  0.00    +0.000 A 
ATOM      8  C   UNL     1     111.248 128.769 135.154  0.00  0.00    +0.000 A 
ATOM      9  C   UNL     1     111.161 127.181 135.594  0.00  0.00    +0.000 A 
ATOM     10  C   UNL     1     110.566 128.333 134.993  0.00  0.00    +0.000 A 
ATOM     11  C   UNL     1     110.524 127.539 135.214  0.00  0.00    +0.000 A 
ATOM     12  C   UNL     1     111.105 126.353 135.819  0.00  0.00    +0.000 A 
ATOM     13  C   UNL     1     112.476 126.430 136.383  0.00  0.00    +0.000 A 
ATOM     14  C   UNL     1     111.766 125.975 136.216  0.00  0.00    +0.000 A 
ENDROOT
BRANCH  13  16
ATOM     15  O   UNL     1     115.035 125.009 137.907  0.00  0.00    +0.000 OA
ATOM     16  C   UNL     1     113.116 126.074 136.764  0.00  0.00    +0.000 A 
ATOM     17  C   UNL     1     113.218 126.172 137.576  0.00  0.00    +0.000 A 
ATOM     18  C   UNL     1     113.653 125.621 136.333  0.00  0.00    +0.000 A 
ATOM     19  C   UNL     1     113.858 125.817 137.958  0.00  0.00    +0.000 A 
ATOM     20  C   UNL     1     114.293 125.266 136.713  0.00  0.00    +0.000 A 
ATOM     21  C   UNL     1     114.396 125.364 137.526  0.00  0.00    +0.000 A 
BRANCH  19  22
ATOM     22  O   UNL     1     113.961 125.915 138.771  0.00  0.00    +0.000 OA
ATOM     23  C   UNL     1     113.574 126.529 139.164  0.00  0.00    +0.000 C 
ENDBRANCH  19  22
ENDBRANCH  13  16
BRANCH   6  24
ATOM     24  O   UNL     1     112.567 128.847 135.696  0.00  0.00    +0.000 OA
BRANCH  24  33
ATOM     25  O   UNL     1     111.997 129.318 136.919  0.00  0.00    +0.000 OA
ATOM     26  O   UNL     1     113.825 130.974 137.134  0.00  0.00    +0.000 OA
ATOM     27  O   UNL     1     112.645 130.892 138.285  0.00  0.00    +0.000 OA
ATOM     28  O   UNL     1     113.786 129.951 135.839  0.00  0.00    +0.000 OA
ATOM     29  C   UNL     1     113.215 130.421 137.062  0.00  0.00    +0.000 C 
ATOM     30  C   UNL     1     112.626 130.381 137.637  0.00  0.00    +0.000 C 
ATOM     31  C   UNL     1     113.196 129.911 136.415  0.00  0.00    +0.000 C 
ATOM     32  C   UNL     1     112.017 129.829 137.566  0.00  0.00    +0.000 C 
ATOM     33  C   UNL     1     112.587 129.359 136.344  0.00  0.00    +0.000 C 
ATOM     34  C   UNL     1     111.427 129.789 138.142  0.00  0.00    +0.000 C 
ENDBRANCH  24  33
ENDBRANCH   6  24
TORSDOF 4
ENDMDL
MODEL 9
REMARK VINA RESULT:      -9.2      1.777      4.257
REMARK  Name = 131751472
REMARK  4 active torsions:
REMARK  status: ('A' for Active; 'I' for Inactive)
REMARK    1  A    between atoms: O_2  and  C_17
REMARK    2  A    between atoms: O_2  and  C_19
REMARK    3  A    between atoms: O_11  and  C_31
REMARK    4  A    between atoms: C_26  and  C_28
REMARK                            x       y       z     vdW  Elec       q    Type
REMARK                         _______ _______ _______ _____ _____    ______ ____
ROOT
ATOM      1  O   UNL     1     112.195 127.798 136.814  0.00  0.00    +0.000 OA
ATOM      2  O   UNL     1     111.902 130.656 137.035  0.00  0.00    +0.000 OA
ATOM      3  O   UNL     1     113.377 130.878 136.329  0.00  0.00    +0.000 OA
ATOM      4  O   UNL     1     114.273 129.573 135.860  0.00  0.00    +0.000 OA
ATOM      5  O   UNL     1     114.458 128.149 135.732  0.00  0.00    +0.000 OA
ATOM      6  C   UNL     1     112.060 129.241 136.919  0.00  0.00    +0.000 A 
ATOM      7  C   UNL     1     112.508 128.589 136.685  0.00  0.00    +0.000 A 
ATOM      8  C   UNL     1     112.350 130.004 136.800  0.00  0.00    +0.000 A 
ATOM      9  C   UNL     1     113.246 128.700 136.332  0.00  0.00    +0.000 A 
ATOM     10  C   UNL     1     113.088 130.115 136.447  0.00  0.00    +0.000 A 
ATOM     11  C   UNL     1     113.535 129.462 136.213  0.00  0.00    +0.000 A 
ATOM     12  C   UNL     1     113.721 128.028 136.084  0.00  0.00    +0.000 A 
ATOM     13  C   UNL     1     112.657 127.115 136.572  0.00  0.00    +0.000 A 
ATOM     14  C   UNL     1     113.425 127.231 136.205  0.00  0.00    +0.000 A 
ENDROOT
BRANCH  13  16
ATOM     15  O   UNL     1     111.487 124.067 137.051  0.00  0.00    +0.000 OA
ATOM     16  C   UNL     1     112.365 126.353 136.692  0.00  0.00    +0.000 A 
ATOM     17  C   UNL     1     111.833 126.026 136.153  0.00  0.00    +0.000 A 
ATOM     18  C   UNL     1     112.604 125.918 137.351  0.00  0.00    +0.000 A 
ATOM     19  C   UNL     1     111.540 125.263 136.272  0.00  0.00    +0.000 A 
ATOM     20  C   UNL     1     112.311 125.156 137.470  0.00  0.00    +0.000 A 
ATOM     21  C   UNL     1     111.779 124.829 136.931  0.00  0.00    +0.000 A 
BRANCH  19  22
ATOM     22  O   UNL     1     111.008 124.936 135.733  0.00  0.00    +0.000 OA
ATOM     23  C   UNL     1     110.455 125.418 135.355  0.00  0.00    +0.000 C 
ENDBRANCH  19  22
ENDBRANCH  13  16
BRANCH   6  24
ATOM     24  O   UNL     1     111.324 129.130 137.272  0.00  0.00    +0.000 OA
BRANCH  24  33
ATOM     25  O   UNL     1     110.675 129.238 136.003  0.00  0.00    +0.000 OA
ATOM     26  O   UNL     1     108.490 129.483 137.142  0.00  0.00    +0.000 OA
ATOM     27  O   UNL     1     108.570 129.509 135.493  0.00  0.00    +0.000 OA
ATOM     28  O   UNL     1     109.868 129.293 138.030  0.00  0.00    +0.000 OA
ATOM     29  C   UNL     1     109.219 129.401 136.762  0.00  0.00    +0.000 C 
ATOM     30  C   UNL     1     109.258 129.414 135.938  0.00  0.00    +0.000 C 
ATOM     31  C   UNL     1     109.906 129.306 137.206  0.00  0.00    +0.000 C 
ATOM     32  C   UNL     1     109.986 129.332 135.559  0.00  0.00    +0.000 C 
ATOM     33  C   UNL     1     110.634 129.225 136.827  0.00  0.00    +0.000 C 
ATOM     34  C   UNL     1     110.026 129.345 134.734  0.00  0.00    +0.000 C 
ENDBRANCH  24  33
ENDBRANCH   6  24
TORSDOF 4
ENDMDL
MODEL 10
REMARK VINA RESULT:      -9.1      1.946      4.390
REMARK  Name = 131751472
REMARK  4 active torsions:
REMARK  status: ('A' for Active; 'I' for Inactive)
REMARK    1  A    between atoms: O_2  and  C_17
REMARK    2  A    between atoms: O_2  and  C_19
REMARK    3  A    between atoms: O_11  and  C_31
REMARK    4  A    between atoms: C_26  and  C_28
REMARK                            x       y       z     vdW  Elec       q    Type
REMARK                         _______ _______ _______ _____ _____    ______ ____
ROOT
ATOM      1  O   UNL     1     112.471 127.155 137.506  0.00  0.00    +0.000 OA
ATOM      2  O   UNL     1     112.315 129.550 139.101  0.00  0.00    +0.000 OA
ATOM      3  O   UNL     1     113.304 130.339 138.041  0.00  0.00    +0.000 OA
ATOM      4  O   UNL     1     113.884 129.553 136.711  0.00  0.00    +0.000 OA
ATOM      5  O   UNL     1     113.987 128.375 135.886  0.00  0.00    +0.000 OA
ATOM      6  C   UNL     1     112.401 128.369 138.301  0.00  0.00    +0.000 A 
ATOM      7  C   UNL     1     112.691 127.976 137.636  0.00  0.00    +0.000 A 
ATOM      8  C   UNL     1     112.606 129.157 138.436  0.00  0.00    +0.000 A 
ATOM      9  C   UNL     1     113.185 128.371 137.106  0.00  0.00    +0.000 A 
ATOM     10  C   UNL     1     113.100 129.552 137.906  0.00  0.00    +0.000 A 
ATOM     11  C   UNL     1     113.389 129.158 137.241  0.00  0.00    +0.000 A 
ATOM     12  C   UNL     1     113.494 127.972 136.410  0.00  0.00    +0.000 A 
ATOM     13  C   UNL     1     112.770 126.741 136.816  0.00  0.00    +0.000 A 
ATOM     14  C   UNL     1     113.285 127.152 136.264  0.00  0.00    +0.000 A 
ENDROOT
BRANCH  13  16
ATOM     15  O   UNL     1     111.946 123.589 136.285  0.00  0.00    +0.000 OA
ATOM     16  C   UNL     1     112.564 125.953 136.683  0.00  0.00    +0.000 A 
ATOM     17  C   UNL     1     111.856 125.770 136.302  0.00  0.00    +0.000 A 
ATOM     18  C   UNL     1     113.066 125.347 136.931  0.00  0.00    +0.000 A 
ATOM     19  C   UNL     1     111.649 124.982 136.169  0.00  0.00    +0.000 A 
ATOM     20  C   UNL     1     112.860 124.560 136.798  0.00  0.00    +0.000 A 
ATOM     21  C   UNL     1     112.152 124.377 136.417  0.00  0.00    +0.000 A 
BRANCH  19  22
ATOM     22  O   UNL     1     110.941 124.800 135.787  0.00  0.00    +0.000 OA
ATOM     23  C   UNL     1     110.516 125.392 135.400  0.00  0.00    +0.000 C 
ENDBRANCH  19  22
ENDBRANCH  13  16
BRANCH   6  24
ATOM     24  O   UNL     1     111.907 127.974 138.830  0.00  0.00    +0.000 OA
BRANCH  24  33
ATOM     25  O   UNL     1     113.028 127.702 139.674  0.00  0.00    +0.000 OA
ATOM     26  O   UNL     1     111.568 126.396 141.189  0.00  0.00    +0.000 OA
ATOM     27  O   UNL     1     113.175 126.560 141.528  0.00  0.00    +0.000 OA
ATOM     28  O   UNL     1     110.935 127.104 139.839  0.00  0.00    +0.000 OA
ATOM     29  C   UNL     1     112.055 126.832 140.684  0.00  0.00    +0.000 C 
ATOM     30  C   UNL     1     112.858 126.913 140.854  0.00  0.00    +0.000 C 
ATOM     31  C   UNL     1     111.738 127.185 140.010  0.00  0.00    +0.000 C 
ATOM     32  C   UNL     1     113.344 127.349 140.349  0.00  0.00    +0.000 C 
ATOM     33  C   UNL     1     112.225 127.620 139.505  0.00  0.00    +0.000 C 
ATOM     34  C   UNL     1     114.148 127.430 140.519  0.00  0.00    +0.000 C 
ENDBRANCH  24  33
ENDBRANCH   6  24
TORSDOF 4
ENDMDL
