MODEL 1
REMARK VINA RESULT:      -9.6      0.000      0.000
REMARK  Name = 5378180
REMARK  3 active torsions:
REMARK  status: ('A' for Active; 'I' for Inactive)
REMARK    1  A    between atoms: C_13  and  C_16
REMARK    2  A    between atoms: C_15  and  C_17
REMARK    3  A    between atoms: C_24  and  C_26
REMARK                            x       y       z     vdW  Elec       q    Type
REMARK                         _______ _______ _______ _____ _____    ______ ____
ROOT
ATOM      1  O   UNL     1     105.050 125.068 147.348  0.00  0.00    +0.000 OA
ATOM      2  O   UNL     1     107.773 125.725 146.671  0.00  0.00    +0.000 OA
ATOM      3  O   UNL     1     107.194 124.602 149.236  0.00  0.00    +0.000 OA
ATOM      4  O   UNL     1     105.844 124.260 149.612  0.00  0.00    +0.000 OA
ATOM      5  C   UNL     1     106.427 125.395 147.019  0.00  0.00    +0.000 A 
ATOM      6  C   UNL     1     105.882 125.098 147.563  0.00  0.00    +0.000 A 
ATOM      7  C   UNL     1     107.227 125.428 147.215  0.00  0.00    +0.000 A 
ATOM      8  C   UNL     1     106.138 124.834 148.301  0.00  0.00    +0.000 A 
ATOM      9  C   UNL     1     107.483 125.163 147.954  0.00  0.00    +0.000 A 
ATOM     10  C   UNL     1     106.938 124.867 148.496  0.00  0.00    +0.000 A 
ATOM     11  C   UNL     1     105.579 124.522 148.876  0.00  0.00    +0.000 A 
ATOM     12  C   UNL     1     104.478 124.760 147.909  0.00  0.00    +0.000 A 
ATOM     13  C   UNL     1     104.744 124.485 148.678  0.00  0.00    +0.000 A 
ENDROOT
BRANCH   5  20
ATOM     14  O   UNL     1     105.865 126.420 146.198  0.00  0.00    +0.000 OA
ATOM     15  O   UNL     1     106.528 124.399 145.708  0.00  0.00    +0.000 OA
ATOM     16  O   UNL     1     106.016 124.928 144.231  0.00  0.00    +0.000 OA
ATOM     17  O   UNL     1     105.404 126.451 144.065  0.00  0.00    +0.000 OA
ATOM     18  C   UNL     1     106.221 125.162 145.625  0.00  0.00    +0.000 C 
ATOM     19  C   UNL     1     105.966 125.426 144.887  0.00  0.00    +0.000 C 
ATOM     20  C   UNL     1     106.171 125.659 146.282  0.00  0.00    +0.000 C 
ATOM     21  C   UNL     1     105.660 126.187 144.804  0.00  0.00    +0.000 C 
ATOM     22  C   UNL     1     105.610 126.684 145.460  0.00  0.00    +0.000 C 
BRANCH  22  24
ATOM     23  O   UNL     1     105.377 127.989 145.997  0.00  0.00    +0.000 OA
ATOM     24  C   UNL     1     105.304 127.446 145.378  0.00  0.00    +0.000 C 
ENDBRANCH  22  24
ENDBRANCH   5  20
BRANCH  12  26
ATOM     25  O   UNL     1     101.276 124.634 147.117  0.00  0.00    +0.000 OA
ATOM     26  C   UNL     1     103.678 124.728 147.711  0.00  0.00    +0.000 A 
ATOM     27  C   UNL     1     103.385 124.092 147.276  0.00  0.00    +0.000 A 
ATOM     28  C   UNL     1     103.170 125.333 147.949  0.00  0.00    +0.000 A 
ATOM     29  C   UNL     1     102.585 124.060 147.078  0.00  0.00    +0.000 A 
ATOM     30  C   UNL     1     102.369 125.302 147.751  0.00  0.00    +0.000 A 
ATOM     31  C   UNL     1     102.077 124.665 147.315  0.00  0.00    +0.000 A 
ENDBRANCH  12  26
TORSDOF 3
ENDMDL
MODEL 2
REMARK VINA RESULT:      -9.6     10.769     13.006
REMARK  Name = 5378180
REMARK  3 active torsions:
REMARK  status: ('A' for Active; 'I' for Inactive)
REMARK    1  A    between atoms: C_13  and  C_16
REMARK    2  A    between atoms: C_15  and  C_17
REMARK    3  A    between atoms: C_24  and  C_26
REMARK                            x       y       z     vdW  Elec       q    Type
REMARK                         _______ _______ _______ _____ _____    ______ ____
ROOT
ATOM      1  O   UNL     1     112.631 126.543 136.590  0.00  0.00    +0.000 OA
ATOM      2  O   UNL     1     111.447 123.934 136.893  0.00  0.00    +0.000 OA
ATOM      3  O   UNL     1     114.293 124.181 136.785  0.00  0.00    +0.000 OA
ATOM      4  O   UNL     1     114.924 125.470 136.633  0.00  0.00    +0.000 OA
ATOM      5  C   UNL     1     112.047 125.223 136.743  0.00  0.00    +0.000 A 
ATOM      6  C   UNL     1     112.721 125.693 136.675  0.00  0.00    +0.000 A 
ATOM      7  C   UNL     1     112.122 124.405 136.825  0.00  0.00    +0.000 A 
ATOM      8  C   UNL     1     113.470 125.346 136.689  0.00  0.00    +0.000 A 
ATOM      9  C   UNL     1     112.870 124.058 136.839  0.00  0.00    +0.000 A 
ATOM     10  C   UNL     1     113.544 124.529 136.771  0.00  0.00    +0.000 A 
ATOM     11  C   UNL     1     114.180 125.825 136.619  0.00  0.00    +0.000 A 
ATOM     12  C   UNL     1     113.329 127.038 136.518  0.00  0.00    +0.000 A 
ATOM     13  C   UNL     1     114.109 126.677 136.533  0.00  0.00    +0.000 A 
ENDROOT
BRANCH   5  20
ATOM     14  O   UNL     1     110.941 125.748 136.008  0.00  0.00    +0.000 OA
ATOM     15  O   UNL     1     111.268 125.558 138.158  0.00  0.00    +0.000 OA
ATOM     16  O   UNL     1     109.771 126.251 138.130  0.00  0.00    +0.000 OA
ATOM     17  O   UNL     1     109.053 126.610 136.687  0.00  0.00    +0.000 OA
ATOM     18  C   UNL     1     110.909 125.737 137.436  0.00  0.00    +0.000 C 
ATOM     19  C   UNL     1     110.161 126.084 137.422  0.00  0.00    +0.000 C 
ATOM     20  C   UNL     1     111.300 125.569 136.729  0.00  0.00    +0.000 C 
ATOM     21  C   UNL     1     109.803 126.263 136.701  0.00  0.00    +0.000 C 
ATOM     22  C   UNL     1     110.192 126.095 135.994  0.00  0.00    +0.000 C 
BRANCH  22  24
ATOM     23  O   UNL     1     109.978 125.799 134.612  0.00  0.00    +0.000 OA
ATOM     24  C   UNL     1     109.835 126.274 135.273  0.00  0.00    +0.000 C 
ENDBRANCH  22  24
ENDBRANCH   5  20
BRANCH  12  26
ATOM     25  O   UNL     1     113.021 130.308 136.191  0.00  0.00    +0.000 OA
ATOM     26  C   UNL     1     113.252 127.856 136.436  0.00  0.00    +0.000 A 
ATOM     27  C   UNL     1     113.236 128.196 135.685  0.00  0.00    +0.000 A 
ATOM     28  C   UNL     1     113.191 128.333 137.106  0.00  0.00    +0.000 A 
ATOM     29  C   UNL     1     113.159 129.013 135.604  0.00  0.00    +0.000 A 
ATOM     30  C   UNL     1     113.114 129.151 137.025  0.00  0.00    +0.000 A 
ATOM     31  C   UNL     1     113.098 129.491 136.273  0.00  0.00    +0.000 A 
ENDBRANCH  12  26
TORSDOF 3
ENDMDL
MODEL 3
REMARK VINA RESULT:      -9.5     11.158     13.402
REMARK  Name = 5378180
REMARK  3 active torsions:
REMARK  status: ('A' for Active; 'I' for Inactive)
REMARK    1  A    between atoms: C_13  and  C_16
REMARK    2  A    between atoms: C_15  and  C_17
REMARK    3  A    between atoms: C_24  and  C_26
REMARK                            x       y       z     vdW  Elec       q    Type
REMARK                         _______ _______ _______ _____ _____    ______ ____
ROOT
ATOM      1  O   UNL     1     112.320 127.061 136.230  0.00  0.00    +0.000 OA
ATOM      2  O   UNL     1     111.775 124.303 136.862  0.00  0.00    +0.000 OA
ATOM      3  O   UNL     1     110.125 125.662 134.964  0.00  0.00    +0.000 OA
ATOM      4  O   UNL     1     110.365 127.042 134.621  0.00  0.00    +0.000 OA
ATOM      5  C   UNL     1     112.035 125.671 136.540  0.00  0.00    +0.000 A 
ATOM      6  C   UNL     1     111.846 126.353 136.116  0.00  0.00    +0.000 A 
ATOM      7  C   UNL     1     111.586 124.986 136.438  0.00  0.00    +0.000 A 
ATOM      8  C   UNL     1     111.210 126.350 135.591  0.00  0.00    +0.000 A 
ATOM      9  C   UNL     1     110.950 124.983 135.913  0.00  0.00    +0.000 A 
ATOM     10  C   UNL     1     110.762 125.665 135.490  0.00  0.00    +0.000 A 
ATOM     11  C   UNL     1     111.004 127.055 135.144  0.00  0.00    +0.000 A 
ATOM     12  C   UNL     1     112.129 127.774 135.792  0.00  0.00    +0.000 A 
ATOM     13  C   UNL     1     111.466 127.771 135.245  0.00  0.00    +0.000 A 
ENDROOT
BRANCH   5  20
ATOM     14  O   UNL     1     112.578 125.982 137.824  0.00  0.00    +0.000 OA
ATOM     15  O   UNL     1     113.493 125.061 136.070  0.00  0.00    +0.000 OA
ATOM     16  O   UNL     1     114.766 125.067 137.120  0.00  0.00    +0.000 OA
ATOM     17  O   UNL     1     114.580 125.683 138.640  0.00  0.00    +0.000 OA
ATOM     18  C   UNL     1     113.400 125.369 136.830  0.00  0.00    +0.000 C 
ATOM     19  C   UNL     1     114.036 125.372 137.356  0.00  0.00    +0.000 C 
ATOM     20  C   UNL     1     112.670 125.674 137.064  0.00  0.00    +0.000 C 
ATOM     21  C   UNL     1     113.943 125.680 138.114  0.00  0.00    +0.000 C 
ATOM     22  C   UNL     1     113.214 125.985 138.349  0.00  0.00    +0.000 C 
BRANCH  22  24
ATOM     23  O   UNL     1     112.441 126.117 139.544  0.00  0.00    +0.000 OA
ATOM     24  C   UNL     1     113.120 126.293 139.109  0.00  0.00    +0.000 C 
ENDBRANCH  22  24
ENDBRANCH   5  20
BRANCH  12  26
ATOM     25  O   UNL     1     113.929 130.510 136.204  0.00  0.00    +0.000 OA
ATOM     26  C   UNL     1     112.579 128.458 135.895  0.00  0.00    +0.000 A 
ATOM     27  C   UNL     1     112.331 129.040 136.425  0.00  0.00    +0.000 A 
ATOM     28  C   UNL     1     113.277 128.561 135.468  0.00  0.00    +0.000 A 
ATOM     29  C   UNL     1     112.780 129.724 136.528  0.00  0.00    +0.000 A 
ATOM     30  C   UNL     1     113.728 129.245 135.571  0.00  0.00    +0.000 A 
ATOM     31  C   UNL     1     113.479 129.826 136.101  0.00  0.00    +0.000 A 
ENDBRANCH  12  26
TORSDOF 3
ENDMDL
MODEL 4
REMARK VINA RESULT:      -9.5     11.480     12.617
REMARK  Name = 5378180
REMARK  3 active torsions:
REMARK  status: ('A' for Active; 'I' for Inactive)
REMARK    1  A    between atoms: C_13  and  C_16
REMARK    2  A    between atoms: C_15  and  C_17
REMARK    3  A    between atoms: C_24  and  C_26
REMARK                            x       y       z     vdW  Elec       q    Type
REMARK                         _______ _______ _______ _____ _____    ______ ____
ROOT
ATOM      1  O   UNL     1     111.857 126.024 136.606  0.00  0.00    +0.000 OA
ATOM      2  O   UNL     1     114.580 125.859 137.534  0.00  0.00    +0.000 OA
ATOM      3  O   UNL     1     113.210 123.470 136.766  0.00  0.00    +0.000 OA
ATOM      4  O   UNL     1     111.847 123.511 136.297  0.00  0.00    +0.000 OA
ATOM      5  C   UNL     1     113.229 125.927 137.072  0.00  0.00    +0.000 A 
ATOM      6  C   UNL     1     112.551 125.551 136.790  0.00  0.00    +0.000 A 
ATOM      7  C   UNL     1     113.901 125.483 137.252  0.00  0.00    +0.000 A 
ATOM      8  C   UNL     1     112.545 124.733 136.688  0.00  0.00    +0.000 A 
ATOM      9  C   UNL     1     113.895 124.665 137.150  0.00  0.00    +0.000 A 
ATOM     10  C   UNL     1     113.217 124.290 136.868  0.00  0.00    +0.000 A 
ATOM     11  C   UNL     1     111.844 124.330 136.396  0.00  0.00    +0.000 A 
ATOM     12  C   UNL     1     111.148 125.639 136.312  0.00  0.00    +0.000 A 
ATOM     13  C   UNL     1     111.141 124.786 136.206  0.00  0.00    +0.000 A 
ENDROOT
BRANCH   5  20
ATOM     14  O   UNL     1     113.385 127.240 136.531  0.00  0.00    +0.000 OA
ATOM     15  O   UNL     1     112.943 126.575 138.562  0.00  0.00    +0.000 OA
ATOM     16  O   UNL     1     112.955 128.212 138.765  0.00  0.00    +0.000 OA
ATOM     17  O   UNL     1     113.255 129.202 137.479  0.00  0.00    +0.000 OA
ATOM     18  C   UNL     1     113.092 127.070 137.918  0.00  0.00    +0.000 C 
ATOM     19  C   UNL     1     113.099 127.888 138.020  0.00  0.00    +0.000 C 
ATOM     20  C   UNL     1     113.236 126.745 137.174  0.00  0.00    +0.000 C 
ATOM     21  C   UNL     1     113.248 128.382 137.377  0.00  0.00    +0.000 C 
ATOM     22  C   UNL     1     113.391 128.059 136.633  0.00  0.00    +0.000 C 
BRANCH  22  24
ATOM     23  O   UNL     1     114.190 128.406 135.499  0.00  0.00    +0.000 OA
ATOM     24  C   UNL     1     113.541 128.553 135.989  0.00  0.00    +0.000 C 
ENDBRANCH  22  24
ENDBRANCH   5  20
BRANCH  12  26
ATOM     25  O   UNL     1     108.464 127.422 135.596  0.00  0.00    +0.000 OA
ATOM     26  C   UNL     1     110.477 126.084 136.133  0.00  0.00    +0.000 A 
ATOM     27  C   UNL     1     110.335 126.323 135.357  0.00  0.00    +0.000 A 
ATOM     28  C   UNL     1     109.948 126.292 136.731  0.00  0.00    +0.000 A 
ATOM     29  C   UNL     1     109.665 126.769 135.177  0.00  0.00    +0.000 A 
ATOM     30  C   UNL     1     109.277 126.738 136.552  0.00  0.00    +0.000 A 
ATOM     31  C   UNL     1     109.135 126.976 135.775  0.00  0.00    +0.000 A 
ENDBRANCH  12  26
TORSDOF 3
ENDMDL
MODEL 5
REMARK VINA RESULT:      -9.4      9.783     12.103
REMARK  Name = 5378180
REMARK  3 active torsions:
REMARK  status: ('A' for Active; 'I' for Inactive)
REMARK    1  A    between atoms: C_13  and  C_16
REMARK    2  A    between atoms: C_15  and  C_17
REMARK    3  A    between atoms: C_24  and  C_26
REMARK                            x       y       z     vdW  Elec       q    Type
REMARK                         _______ _______ _______ _____ _____    ______ ____
ROOT
ATOM      1  O   UNL     1     112.274 126.039 137.146  0.00  0.00    +0.000 OA
ATOM      2  O   UNL     1     113.822 126.584 139.515  0.00  0.00    +0.000 OA
ATOM      3  O   UNL     1     114.932 124.936 137.459  0.00  0.00    +0.000 OA
ATOM      4  O   UNL     1     114.189 124.640 136.259  0.00  0.00    +0.000 OA
ATOM      5  C   UNL     1     113.065 126.306 138.335  0.00  0.00    +0.000 A 
ATOM      6  C   UNL     1     112.998 125.939 137.600  0.00  0.00    +0.000 A 
ATOM      7  C   UNL     1     113.755 126.217 138.778  0.00  0.00    +0.000 A 
ATOM      8  C   UNL     1     113.620 125.482 137.308  0.00  0.00    +0.000 A 
ATOM      9  C   UNL     1     114.377 125.760 138.486  0.00  0.00    +0.000 A 
ATOM     10  C   UNL     1     114.309 125.393 137.751  0.00  0.00    +0.000 A 
ATOM     11  C   UNL     1     113.562 125.095 136.543  0.00  0.00    +0.000 A 
ATOM     12  C   UNL     1     112.198 125.659 136.380  0.00  0.00    +0.000 A 
ATOM     13  C   UNL     1     112.846 125.184 136.076  0.00  0.00    +0.000 A 
ENDROOT
BRANCH   5  20
ATOM     14  O   UNL     1     111.808 126.399 139.007  0.00  0.00    +0.000 OA
ATOM     15  O   UNL     1     113.093 127.946 138.158  0.00  0.00    +0.000 OA
ATOM     16  O   UNL     1     111.849 128.859 138.742  0.00  0.00    +0.000 OA
ATOM     17  O   UNL     1     110.577 128.133 139.502  0.00  0.00    +0.000 OA
ATOM     18  C   UNL     1     112.457 127.582 138.539  0.00  0.00    +0.000 C 
ATOM     19  C   UNL     1     111.835 128.039 138.830  0.00  0.00    +0.000 C 
ATOM     20  C   UNL     1     112.444 126.762 138.627  0.00  0.00    +0.000 C 
ATOM     21  C   UNL     1     111.200 127.675 139.210  0.00  0.00    +0.000 C 
ATOM     22  C   UNL     1     111.186 126.856 139.299  0.00  0.00    +0.000 C 
BRANCH  22  24
ATOM     23  O   UNL     1     110.662 125.774 140.072  0.00  0.00    +0.000 OA
ATOM     24  C   UNL     1     110.551 126.492 139.679  0.00  0.00    +0.000 C 
ENDBRANCH  22  24
ENDBRANCH   5  20
BRANCH  12  26
ATOM     25  O   UNL     1     109.435 126.024 134.612  0.00  0.00    +0.000 OA
ATOM     26  C   UNL     1     111.507 125.750 135.938  0.00  0.00    +0.000 A 
ATOM     27  C   UNL     1     110.909 125.186 135.987  0.00  0.00    +0.000 A 
ATOM     28  C   UNL     1     111.415 126.407 135.447  0.00  0.00    +0.000 A 
ATOM     29  C   UNL     1     110.218 125.277 135.545  0.00  0.00    +0.000 A 
ATOM     30  C   UNL     1     110.724 126.499 135.005  0.00  0.00    +0.000 A 
ATOM     31  C   UNL     1     110.126 125.933 135.054  0.00  0.00    +0.000 A 
ENDBRANCH  12  26
TORSDOF 3
ENDMDL
MODEL 6
REMARK VINA RESULT:      -9.3     11.680     12.917
REMARK  Name = 5378180
REMARK  3 active torsions:
REMARK  status: ('A' for Active; 'I' for Inactive)
REMARK    1  A    between atoms: C_13  and  C_16
REMARK    2  A    between atoms: C_15  and  C_17
REMARK    3  A    between atoms: C_24  and  C_26
REMARK                            x       y       z     vdW  Elec       q    Type
REMARK                         _______ _______ _______ _____ _____    ______ ____
ROOT
ATOM      1  O   UNL     1     110.534 127.529 136.079  0.00  0.00    +0.000 OA
ATOM      2  O   UNL     1     110.477 130.404 135.888  0.00  0.00    +0.000 OA
ATOM      3  O   UNL     1     108.021 128.942 135.816  0.00  0.00    +0.000 OA
ATOM      4  O   UNL     1     108.008 127.502 135.909  0.00  0.00    +0.000 OA
ATOM      5  C   UNL     1     110.492 128.978 135.982  0.00  0.00    +0.000 A 
ATOM      6  C   UNL     1     110.087 128.259 136.001  0.00  0.00    +0.000 A 
ATOM      7  C   UNL     1     110.072 129.684 135.907  0.00  0.00    +0.000 A 
ATOM      8  C   UNL     1     109.264 128.247 135.946  0.00  0.00    +0.000 A 
ATOM      9  C   UNL     1     109.249 129.672 135.852  0.00  0.00    +0.000 A 
ATOM     10  C   UNL     1     108.846 128.954 135.872  0.00  0.00    +0.000 A 
ATOM     11  C   UNL     1     108.831 127.504 135.965  0.00  0.00    +0.000 A 
ATOM     12  C   UNL     1     110.119 126.778 136.100  0.00  0.00    +0.000 A 
ATOM     13  C   UNL     1     109.262 126.765 136.042  0.00  0.00    +0.000 A 
ENDROOT
BRANCH   5  20
ATOM     14  O   UNL     1     111.679 128.953 136.776  0.00  0.00    +0.000 OA
ATOM     15  O   UNL     1     111.408 129.074 134.614  0.00  0.00    +0.000 OA
ATOM     16  O   UNL     1     113.054 129.098 134.724  0.00  0.00    +0.000 OA
ATOM     17  O   UNL     1     113.784 129.026 136.203  0.00  0.00    +0.000 OA
ATOM     18  C   UNL     1     111.773 129.038 135.353  0.00  0.00    +0.000 C 
ATOM     19  C   UNL     1     112.596 129.050 135.409  0.00  0.00    +0.000 C 
ATOM     20  C   UNL     1     111.314 128.990 136.037  0.00  0.00    +0.000 C 
ATOM     21  C   UNL     1     112.960 129.014 136.147  0.00  0.00    +0.000 C 
ATOM     22  C   UNL     1     112.502 128.965 136.831  0.00  0.00    +0.000 C 
BRANCH  22  24
ATOM     23  O   UNL     1     112.444 129.139 138.249  0.00  0.00    +0.000 OA
ATOM     24  C   UNL     1     112.866 128.929 137.571  0.00  0.00    +0.000 C 
ENDBRANCH  22  24
ENDBRANCH   5  20
BRANCH  12  26
ATOM     25  O   UNL     1     111.804 123.956 136.397  0.00  0.00    +0.000 OA
ATOM     26  C   UNL     1     110.540 126.072 136.174  0.00  0.00    +0.000 A 
ATOM     27  C   UNL     1     110.749 125.793 136.921  0.00  0.00    +0.000 A 
ATOM     28  C   UNL     1     110.753 125.646 135.501  0.00  0.00    +0.000 A 
ATOM     29  C   UNL     1     111.170 125.088 136.996  0.00  0.00    +0.000 A 
ATOM     30  C   UNL     1     111.174 124.940 135.574  0.00  0.00    +0.000 A 
ATOM     31  C   UNL     1     111.383 124.661 136.322  0.00  0.00    +0.000 A 
ENDBRANCH  12  26
TORSDOF 3
ENDMDL
MODEL 7
REMARK VINA RESULT:      -9.2      9.149     11.639
REMARK  Name = 5378180
REMARK  3 active torsions:
REMARK  status: ('A' for Active; 'I' for Inactive)
REMARK    1  A    between atoms: C_13  and  C_16
REMARK    2  A    between atoms: C_15  and  C_17
REMARK    3  A    between atoms: C_24  and  C_26
REMARK                            x       y       z     vdW  Elec       q    Type
REMARK                         _______ _______ _______ _____ _____    ______ ____
ROOT
ATOM      1  O   UNL     1     112.634 126.203 138.467  0.00  0.00    +0.000 OA
ATOM      2  O   UNL     1     111.057 124.640 136.632  0.00  0.00    +0.000 OA
ATOM      3  O   UNL     1     113.887 124.255 136.732  0.00  0.00    +0.000 OA
ATOM      4  O   UNL     1     114.712 125.018 137.637  0.00  0.00    +0.000 OA
ATOM      5  C   UNL     1     111.851 125.409 137.538  0.00  0.00    +0.000 A 
ATOM      6  C   UNL     1     112.587 125.601 137.856  0.00  0.00    +0.000 A 
ATOM      7  C   UNL     1     111.794 124.832 136.951  0.00  0.00    +0.000 A 
ATOM      8  C   UNL     1     113.266 125.216 137.587  0.00  0.00    +0.000 A 
ATOM      9  C   UNL     1     112.472 124.448 136.682  0.00  0.00    +0.000 A 
ATOM     10  C   UNL     1     113.208 124.640 137.001  0.00  0.00    +0.000 A 
ATOM     11  C   UNL     1     114.039 125.408 137.911  0.00  0.00    +0.000 A 
ATOM     12  C   UNL     1     113.398 126.408 138.802  0.00  0.00    +0.000 A 
ATOM     13  C   UNL     1     114.105 126.007 138.523  0.00  0.00    +0.000 A 
ENDROOT
BRANCH   5  20
ATOM     14  O   UNL     1     110.806 125.545 138.502  0.00  0.00    +0.000 OA
ATOM     15  O   UNL     1     111.227 126.674 136.682  0.00  0.00    +0.000 OA
ATOM     16  O   UNL     1     109.870 127.443 137.219  0.00  0.00    +0.000 OA
ATOM     17  O   UNL     1     109.136 126.947 138.612  0.00  0.00    +0.000 OA
ATOM     18  C   UNL     1     110.860 126.426 137.379  0.00  0.00    +0.000 C 
ATOM     19  C   UNL     1     110.182 126.810 137.647  0.00  0.00    +0.000 C 
ATOM     20  C   UNL     1     111.173 125.793 137.806  0.00  0.00    +0.000 C 
ATOM     21  C   UNL     1     109.815 126.562 138.343  0.00  0.00    +0.000 C 
ATOM     22  C   UNL     1     110.127 125.930 138.770  0.00  0.00    +0.000 C 
BRANCH  22  24
ATOM     23  O   UNL     1     110.197 125.277 140.040  0.00  0.00    +0.000 OA
ATOM     24  C   UNL     1     109.761 125.681 139.467  0.00  0.00    +0.000 C 
ENDBRANCH  22  24
ENDBRANCH   5  20
BRANCH  12  26
ATOM     25  O   UNL     1     113.617 128.716 141.151  0.00  0.00    +0.000 OA
ATOM     26  C   UNL     1     113.453 126.985 139.389  0.00  0.00    +0.000 A 
ATOM     27  C   UNL     1     113.462 127.783 139.184  0.00  0.00    +0.000 A 
ATOM     28  C   UNL     1     113.499 126.763 140.183  0.00  0.00    +0.000 A 
ATOM     29  C   UNL     1     113.517 128.360 139.771  0.00  0.00    +0.000 A 
ATOM     30  C   UNL     1     113.553 127.340 140.771  0.00  0.00    +0.000 A 
ATOM     31  C   UNL     1     113.563 128.139 140.564  0.00  0.00    +0.000 A 
ENDBRANCH  12  26
TORSDOF 3
ENDMDL
MODEL 8
REMARK VINA RESULT:      -9.2      1.640      3.047
REMARK  Name = 5378180
REMARK  3 active torsions:
REMARK  status: ('A' for Active; 'I' for Inactive)
REMARK    1  A    between atoms: C_13  and  C_16
REMARK    2  A    between atoms: C_15  and  C_17
REMARK    3  A    between atoms: C_24  and  C_26
REMARK                            x       y       z     vdW  Elec       q    Type
REMARK                         _______ _______ _______ _____ _____    ______ ____
ROOT
ATOM      1  O   UNL     1     104.235 125.734 147.245  0.00  0.00    +0.000 OA
ATOM      2  O   UNL     1     104.590 123.624 145.315  0.00  0.00    +0.000 OA
ATOM      3  O   UNL     1     102.393 123.504 147.141  0.00  0.00    +0.000 OA
ATOM      4  O   UNL     1     102.181 124.541 148.121  0.00  0.00    +0.000 OA
ATOM      5  C   UNL     1     104.402 124.664 146.277  0.00  0.00    +0.000 A 
ATOM      6  C   UNL     1     103.974 124.991 146.902  0.00  0.00    +0.000 A 
ATOM      7  C   UNL     1     104.161 123.951 145.941  0.00  0.00    +0.000 A 
ATOM      8  C   UNL     1     103.304 124.604 147.190  0.00  0.00    +0.000 A 
ATOM      9  C   UNL     1     103.491 123.565 146.228  0.00  0.00    +0.000 A 
ATOM     10  C   UNL     1     103.063 123.891 146.853  0.00  0.00    +0.000 A 
ATOM     11  C   UNL     1     102.850 124.935 147.840  0.00  0.00    +0.000 A 
ATOM     12  C   UNL     1     103.793 126.080 147.895  0.00  0.00    +0.000 A 
ATOM     13  C   UNL     1     103.096 125.677 148.195  0.00  0.00    +0.000 A 
ENDROOT
BRANCH   5  20
ATOM     14  O   UNL     1     104.993 125.650 145.428  0.00  0.00    +0.000 OA
ATOM     15  O   UNL     1     105.899 124.239 146.825  0.00  0.00    +0.000 OA
ATOM     16  O   UNL     1     107.238 125.012 146.250  0.00  0.00    +0.000 OA
ATOM     17  O   UNL     1     107.081 126.211 145.126  0.00  0.00    +0.000 OA
ATOM     18  C   UNL     1     105.820 124.839 146.263  0.00  0.00    +0.000 C 
ATOM     19  C   UNL     1     106.490 125.225 145.975  0.00  0.00    +0.000 C 
ATOM     20  C   UNL     1     105.071 125.051 145.990  0.00  0.00    +0.000 C 
ATOM     21  C   UNL     1     106.410 125.824 145.414  0.00  0.00    +0.000 C 
ATOM     22  C   UNL     1     105.663 126.036 145.140  0.00  0.00    +0.000 C 
BRANCH  22  24
ATOM     23  O   UNL     1     105.210 126.478 143.858  0.00  0.00    +0.000 OA
ATOM     24  C   UNL     1     105.583 126.635 144.578  0.00  0.00    +0.000 C 
ENDBRANCH  22  24
ENDBRANCH   5  20
BRANCH  12  26
ATOM     25  O   UNL     1     104.768 128.933 149.236  0.00  0.00    +0.000 OA
ATOM     26  C   UNL     1     104.037 126.793 148.230  0.00  0.00    +0.000 A 
ATOM     27  C   UNL     1     103.710 127.504 147.971  0.00  0.00    +0.000 A 
ATOM     28  C   UNL     1     104.608 126.795 148.826  0.00  0.00    +0.000 A 
ATOM     29  C   UNL     1     103.953 128.218 148.306  0.00  0.00    +0.000 A 
ATOM     30  C   UNL     1     104.852 127.509 149.162  0.00  0.00    +0.000 A 
ATOM     31  C   UNL     1     104.524 128.220 148.901  0.00  0.00    +0.000 A 
ENDBRANCH  12  26
TORSDOF 3
ENDMDL
MODEL 9
REMARK VINA RESULT:      -9.1      9.441     12.209
REMARK  Name = 5378180
REMARK  3 active torsions:
REMARK  status: ('A' for Active; 'I' for Inactive)
REMARK    1  A    between atoms: C_13  and  C_16
REMARK    2  A    between atoms: C_15  and  C_17
REMARK    3  A    between atoms: C_24  and  C_26
REMARK                            x       y       z     vdW  Elec       q    Type
REMARK                         _______ _______ _______ _____ _____    ______ ____
ROOT
ATOM      1  O   UNL     1     111.536 126.116 137.008  0.00  0.00    +0.000 OA
ATOM      2  O   UNL     1     109.189 127.684 137.588  0.00  0.00    +0.000 OA
ATOM      3  O   UNL     1     109.271 126.108 135.205  0.00  0.00    +0.000 OA
ATOM      4  O   UNL     1     110.427 125.309 134.879  0.00  0.00    +0.000 OA
ATOM      5  C   UNL     1     110.347 126.902 137.289  0.00  0.00    +0.000 A 
ATOM      6  C   UNL     1     110.746 126.379 136.791  0.00  0.00    +0.000 A 
ATOM      7  C   UNL     1     109.589 127.160 137.091  0.00  0.00    +0.000 A 
ATOM      8  C   UNL     1     110.388 126.114 136.097  0.00  0.00    +0.000 A 
ATOM      9  C   UNL     1     109.231 126.896 136.396  0.00  0.00    +0.000 A 
ATOM     10  C   UNL     1     109.630 126.373 135.900  0.00  0.00    +0.000 A 
ATOM     11  C   UNL     1     110.794 125.569 135.571  0.00  0.00    +0.000 A 
ATOM     12  C   UNL     1     111.957 125.571 136.495  0.00  0.00    +0.000 A 
ATOM     13  C   UNL     1     111.583 125.296 135.772  0.00  0.00    +0.000 A 
ENDROOT
BRANCH   5  20
ATOM     14  O   UNL     1     110.676 126.704 138.665  0.00  0.00    +0.000 OA
ATOM     15  O   UNL     1     111.124 128.357 137.312  0.00  0.00    +0.000 OA
ATOM     16  O   UNL     1     111.841 128.887 138.701  0.00  0.00    +0.000 OA
ATOM     17  O   UNL     1     111.781 127.961 140.066  0.00  0.00    +0.000 OA
ATOM     18  C   UNL     1     111.094 127.894 137.995  0.00  0.00    +0.000 C 
ATOM     19  C   UNL     1     111.452 128.159 138.689  0.00  0.00    +0.000 C 
ATOM     20  C   UNL     1     110.705 127.166 137.982  0.00  0.00    +0.000 C 
ATOM     21  C   UNL     1     111.422 127.696 139.371  0.00  0.00    +0.000 C 
ATOM     22  C   UNL     1     111.034 126.969 139.359  0.00  0.00    +0.000 C 
BRANCH  22  24
ATOM     23  O   UNL     1     110.722 125.730 140.000  0.00  0.00    +0.000 OA
ATOM     24  C   UNL     1     111.004 126.505 140.041  0.00  0.00    +0.000 C 
ENDBRANCH  22  24
ENDBRANCH   5  20
BRANCH  12  26
ATOM     25  O   UNL     1     114.989 124.543 137.294  0.00  0.00    +0.000 OA
ATOM     26  C   UNL     1     112.715 125.314 136.694  0.00  0.00    +0.000 A 
ATOM     27  C   UNL     1     112.818 124.588 137.072  0.00  0.00    +0.000 A 
ATOM     28  C   UNL     1     113.370 125.783 136.517  0.00  0.00    +0.000 A 
ATOM     29  C   UNL     1     113.576 124.331 137.271  0.00  0.00    +0.000 A 
ATOM     30  C   UNL     1     114.128 125.527 136.716  0.00  0.00    +0.000 A 
ATOM     31  C   UNL     1     114.231 124.800 137.094  0.00  0.00    +0.000 A 
ENDBRANCH  12  26
TORSDOF 3
ENDMDL
