MODEL 1
REMARK VINA RESULT:      -8.3      0.000      0.000
REMARK  Name = 42607832
REMARK  2 active torsions:
REMARK  status: ('A' for Active; 'I' for Inactive)
REMARK    1  A    between atoms: O_2  and  C_11
REMARK    2  A    between atoms: C_5  and  C_9
REMARK                            x       y       z     vdW  Elec       q    Type
REMARK                         _______ _______ _______ _____ _____    ______ ____
ROOT
ATOM      1  O   UNL     1     112.096 125.612 136.122  0.00  0.00    +0.000 OA
ATOM      2  O   UNL     1     111.926 123.261 136.878  0.00  0.00    +0.000 OA
ATOM      3  O   UNL     1     114.903 125.679 136.893  0.00  0.00    +0.000 OA
ATOM      4  C   UNL     1     111.379 125.209 136.057  0.00  0.00    +0.000 C 
ATOM      5  C   UNL     1     111.322 124.425 136.309  0.00  0.00    +0.000 C 
ATOM      6  C   UNL     1     112.699 124.449 136.691  0.00  0.00    +0.000 A 
ATOM      7  C   UNL     1     112.755 125.232 136.438  0.00  0.00    +0.000 A 
ATOM      8  C   UNL     1     111.983 124.045 136.626  0.00  0.00    +0.000 C 
ATOM      9  C   UNL     1     113.497 125.663 136.501  0.00  0.00    +0.000 A 
ATOM     10  C   UNL     1     113.380 124.042 137.022  0.00  0.00    +0.000 A 
ATOM     11  C   UNL     1     114.188 125.273 136.830  0.00  0.00    +0.000 A 
ATOM     12  C   UNL     1     114.129 124.457 137.092  0.00  0.00    +0.000 A 
ENDROOT
BRANCH   4  13
ATOM     13  C   UNL     1     110.719 125.588 135.740  0.00  0.00    +0.000 A 
ATOM     14  C   UNL     1     110.554 125.527 134.934  0.00  0.00    +0.000 A 
ATOM     15  C   UNL     1     110.222 126.029 136.230  0.00  0.00    +0.000 A 
ATOM     16  C   UNL     1     109.894 125.907 134.618  0.00  0.00    +0.000 A 
ATOM     17  C   UNL     1     109.561 126.410 135.913  0.00  0.00    +0.000 A 
ATOM     18  C   UNL     1     109.398 126.348 135.107  0.00  0.00    +0.000 A 
ENDBRANCH   4  13
BRANCH   9  19
ATOM     19  O   UNL     1     113.543 126.447 136.246  0.00  0.00    +0.000 OA
ATOM     20  C   UNL     1     113.787 127.037 136.769  0.00  0.00    +0.000 C 
ENDBRANCH   9  19
TORSDOF 2
ENDMDL
MODEL 2
REMARK VINA RESULT:      -7.8     11.461     12.488
REMARK  Name = 42607832
REMARK  2 active torsions:
REMARK  status: ('A' for Active; 'I' for Inactive)
REMARK    1  A    between atoms: O_2  and  C_11
REMARK    2  A    between atoms: C_5  and  C_9
REMARK                            x       y       z     vdW  Elec       q    Type
REMARK                         _______ _______ _______ _____ _____    ______ ____
ROOT
ATOM      1  O   UNL     1     106.489 125.056 146.878  0.00  0.00    +0.000 OA
ATOM      2  O   UNL     1     107.284 127.348 146.388  0.00  0.00    +0.000 OA
ATOM      3  O   UNL     1     105.205 124.922 144.268  0.00  0.00    +0.000 OA
ATOM      4  C   UNL     1     106.935 125.466 147.439  0.00  0.00    +0.000 C 
ATOM      5  C   UNL     1     107.200 126.230 147.275  0.00  0.00    +0.000 C 
ATOM      6  C   UNL     1     106.573 126.173 145.992  0.00  0.00    +0.000 A 
ATOM      7  C   UNL     1     106.308 125.409 146.156  0.00  0.00    +0.000 A 
ATOM      8  C   UNL     1     107.019 126.584 146.551  0.00  0.00    +0.000 C 
ATOM      9  C   UNL     1     105.842 124.971 145.580  0.00  0.00    +0.000 A 
ATOM     10  C   UNL     1     106.391 126.552 145.242  0.00  0.00    +0.000 A 
ATOM     11  C   UNL     1     105.651 125.334 144.826  0.00  0.00    +0.000 A 
ATOM     12  C   UNL     1     105.927 126.130 144.656  0.00  0.00    +0.000 A 
ENDROOT
BRANCH   4  13
ATOM     13  C   UNL     1     107.115 125.113 148.161  0.00  0.00    +0.000 A 
ATOM     14  C   UNL     1     106.533 125.035 148.740  0.00  0.00    +0.000 A 
ATOM     15  C   UNL     1     107.879 124.837 148.306  0.00  0.00    +0.000 A 
ATOM     16  C   UNL     1     106.714 124.682 149.463  0.00  0.00    +0.000 A 
ATOM     17  C   UNL     1     108.061 124.484 149.029  0.00  0.00    +0.000 A 
ATOM     18  C   UNL     1     107.478 124.406 149.608  0.00  0.00    +0.000 A 
ENDBRANCH   4  13
BRANCH   9  19
ATOM     19  O   UNL     1     105.582 124.208 145.753  0.00  0.00    +0.000 OA
ATOM     20  C   UNL     1     104.786 124.011 145.652  0.00  0.00    +0.000 C 
ENDBRANCH   9  19
TORSDOF 2
ENDMDL
MODEL 3
REMARK VINA RESULT:      -7.8      1.422      3.587
REMARK  Name = 42607832
REMARK  2 active torsions:
REMARK  status: ('A' for Active; 'I' for Inactive)
REMARK    1  A    between atoms: O_2  and  C_11
REMARK    2  A    between atoms: C_5  and  C_9
REMARK                            x       y       z     vdW  Elec       q    Type
REMARK                         _______ _______ _______ _____ _____    ______ ____
ROOT
ATOM      1  O   UNL     1     112.412 126.315 136.162  0.00  0.00    +0.000 OA
ATOM      2  O   UNL     1     110.852 124.424 135.821  0.00  0.00    +0.000 OA
ATOM      3  O   UNL     1     110.596 128.095 134.743  0.00  0.00    +0.000 OA
ATOM      4  C   UNL     1     112.601 125.567 136.454  0.00  0.00    +0.000 C 
ATOM      5  C   UNL     1     112.081 124.937 136.341  0.00  0.00    +0.000 C 
ATOM      6  C   UNL     1     111.184 125.803 135.643  0.00  0.00    +0.000 A 
ATOM      7  C   UNL     1     111.704 126.433 135.757  0.00  0.00    +0.000 A 
ATOM      8  C   UNL     1     111.372 125.054 135.934  0.00  0.00    +0.000 C 
ATOM      9  C   UNL     1     111.519 127.217 135.457  0.00  0.00    +0.000 A 
ATOM     10  C   UNL     1     110.442 125.913 135.222  0.00  0.00    +0.000 A 
ATOM     11  C   UNL     1     110.782 127.346 135.034  0.00  0.00    +0.000 A 
ATOM     12  C   UNL     1     110.241 126.690 134.915  0.00  0.00    +0.000 A 
ENDROOT
BRANCH   4  13
ATOM     13  C   UNL     1     113.309 125.449 136.860  0.00  0.00    +0.000 A 
ATOM     14  C   UNL     1     113.354 125.611 137.668  0.00  0.00    +0.000 A 
ATOM     15  C   UNL     1     113.972 125.168 136.458  0.00  0.00    +0.000 A 
ATOM     16  C   UNL     1     114.062 125.493 138.073  0.00  0.00    +0.000 A 
ATOM     17  C   UNL     1     114.682 125.050 136.864  0.00  0.00    +0.000 A 
ATOM     18  C   UNL     1     114.726 125.212 137.671  0.00  0.00    +0.000 A 
ENDBRANCH   4  13
BRANCH   9  19
ATOM     19  O   UNL     1     112.045 127.841 135.576  0.00  0.00    +0.000 OA
ATOM     20  C   UNL     1     111.776 128.552 135.898  0.00  0.00    +0.000 C 
ENDBRANCH   9  19
TORSDOF 2
ENDMDL
MODEL 4
REMARK VINA RESULT:      -7.8     12.769     13.858
REMARK  Name = 42607832
REMARK  2 active torsions:
REMARK  status: ('A' for Active; 'I' for Inactive)
REMARK    1  A    between atoms: O_2  and  C_11
REMARK    2  A    between atoms: C_5  and  C_9
REMARK                            x       y       z     vdW  Elec       q    Type
REMARK                         _______ _______ _______ _____ _____    ______ ____
ROOT
ATOM      1  O   UNL     1     105.406 124.504 147.491  0.00  0.00    +0.000 OA
ATOM      2  O   UNL     1     103.956 125.734 149.075  0.00  0.00    +0.000 OA
ATOM      3  O   UNL     1     103.088 123.825 145.865  0.00  0.00    +0.000 OA
ATOM      4  C   UNL     1     105.737 124.873 148.151  0.00  0.00    +0.000 C 
ATOM      5  C   UNL     1     105.254 125.283 148.679  0.00  0.00    +0.000 C 
ATOM      6  C   UNL     1     104.110 124.955 147.887  0.00  0.00    +0.000 A 
ATOM      7  C   UNL     1     104.593 124.545 147.359  0.00  0.00    +0.000 A 
ATOM      8  C   UNL     1     104.440 125.324 148.547  0.00  0.00    +0.000 C 
ATOM      9  C   UNL     1     104.261 124.156 146.668  0.00  0.00    +0.000 A 
ATOM     10  C   UNL     1     103.261 125.005 147.760  0.00  0.00    +0.000 A 
ATOM     11  C   UNL     1     103.415 124.195 146.525  0.00  0.00    +0.000 A 
ATOM     12  C   UNL     1     102.912 124.622 147.075  0.00  0.00    +0.000 A 
ENDROOT
BRANCH   4  13
ATOM     13  C   UNL     1     106.550 124.832 148.283  0.00  0.00    +0.000 A 
ATOM     14  C   UNL     1     107.071 125.224 147.777  0.00  0.00    +0.000 A 
ATOM     15  C   UNL     1     106.842 124.399 148.921  0.00  0.00    +0.000 A 
ATOM     16  C   UNL     1     107.883 125.183 147.909  0.00  0.00    +0.000 A 
ATOM     17  C   UNL     1     107.656 124.358 149.053  0.00  0.00    +0.000 A 
ATOM     18  C   UNL     1     108.176 124.750 148.547  0.00  0.00    +0.000 A 
ENDBRANCH   4  13
BRANCH   9  19
ATOM     19  O   UNL     1     104.752 123.748 146.146  0.00  0.00    +0.000 OA
ATOM     20  C   UNL     1     104.697 123.887 145.334  0.00  0.00    +0.000 C 
ENDBRANCH   9  19
TORSDOF 2
ENDMDL
MODEL 5
REMARK VINA RESULT:      -7.8      1.568      3.790
REMARK  Name = 42607832
REMARK  2 active torsions:
REMARK  status: ('A' for Active; 'I' for Inactive)
REMARK    1  A    between atoms: O_2  and  C_11
REMARK    2  A    between atoms: C_5  and  C_9
REMARK                            x       y       z     vdW  Elec       q    Type
REMARK                         _______ _______ _______ _____ _____    ______ ____
ROOT
ATOM      1  O   UNL     1     110.935 125.900 136.790  0.00  0.00    +0.000 OA
ATOM      2  O   UNL     1     109.809 125.552 134.614  0.00  0.00    +0.000 OA
ATOM      3  O   UNL     1     109.061 128.032 137.442  0.00  0.00    +0.000 OA
ATOM      4  C   UNL     1     111.210 125.320 136.272  0.00  0.00    +0.000 C 
ATOM      5  C   UNL     1     110.834 125.204 135.547  0.00  0.00    +0.000 C 
ATOM      6  C   UNL     1     109.910 126.248 135.858  0.00  0.00    +0.000 A 
ATOM      7  C   UNL     1     110.286 126.364 136.583  0.00  0.00    +0.000 A 
ATOM      8  C   UNL     1     110.184 125.668 135.339  0.00  0.00    +0.000 C 
ATOM      9  C   UNL     1     110.009 126.966 137.132  0.00  0.00    +0.000 A 
ATOM     10  C   UNL     1     109.233 126.726 135.631  0.00  0.00    +0.000 A 
ATOM     11  C   UNL     1     109.333 127.453 136.922  0.00  0.00    +0.000 A 
ATOM     12  C   UNL     1     108.943 127.332 136.166  0.00  0.00    +0.000 A 
ENDROOT
BRANCH   4  13
ATOM     13  C   UNL     1     111.859 124.855 136.479  0.00  0.00    +0.000 A 
ATOM     14  C   UNL     1     112.625 125.143 136.369  0.00  0.00    +0.000 A 
ATOM     15  C   UNL     1     111.743 124.103 136.797  0.00  0.00    +0.000 A 
ATOM     16  C   UNL     1     113.274 124.679 136.576  0.00  0.00    +0.000 A 
ATOM     17  C   UNL     1     112.393 123.638 137.004  0.00  0.00    +0.000 A 
ATOM     18  C   UNL     1     113.158 123.926 136.893  0.00  0.00    +0.000 A 
ENDBRANCH   4  13
BRANCH   9  19
ATOM     19  O   UNL     1     110.391 127.075 137.855  0.00  0.00    +0.000 OA
ATOM     20  C   UNL     1     110.605 127.834 138.098  0.00  0.00    +0.000 C 
ENDBRANCH   9  19
TORSDOF 2
ENDMDL
MODEL 6
REMARK VINA RESULT:      -7.7     12.101     12.805
REMARK  Name = 42607832
REMARK  2 active torsions:
REMARK  status: ('A' for Active; 'I' for Inactive)
REMARK    1  A    between atoms: O_2  and  C_11
REMARK    2  A    between atoms: C_5  and  C_9
REMARK                            x       y       z     vdW  Elec       q    Type
REMARK                         _______ _______ _______ _____ _____    ______ ____
ROOT
ATOM      1  O   UNL     1     105.599 124.452 147.394  0.00  0.00    +0.000 OA
ATOM      2  O   UNL     1     106.768 125.729 145.625  0.00  0.00    +0.000 OA
ATOM      3  O   UNL     1     107.938 124.656 149.116  0.00  0.00    +0.000 OA
ATOM      4  C   UNL     1     105.217 124.612 146.680  0.00  0.00    +0.000 C 
ATOM      5  C   UNL     1     105.607 125.038 146.091  0.00  0.00    +0.000 C 
ATOM      6  C   UNL     1     106.759 125.143 146.929  0.00  0.00    +0.000 A 
ATOM      7  C   UNL     1     106.370 124.717 147.518  0.00  0.00    +0.000 A 
ATOM      8  C   UNL     1     106.379 125.303 146.215  0.00  0.00    +0.000 C 
ATOM      9  C   UNL     1     106.757 124.544 148.266  0.00  0.00    +0.000 A 
ATOM     10  C   UNL     1     107.563 125.425 147.046  0.00  0.00    +0.000 A 
ATOM     11  C   UNL     1     107.559 124.818 148.401  0.00  0.00    +0.000 A 
ATOM     12  C   UNL     1     107.965 125.261 147.787  0.00  0.00    +0.000 A 
ENDROOT
BRANCH   4  13
ATOM     13  C   UNL     1     104.446 124.347 146.556  0.00  0.00    +0.000 A 
ATOM     14  C   UNL     1     104.311 123.656 146.126  0.00  0.00    +0.000 A 
ATOM     15  C   UNL     1     103.809 124.774 146.861  0.00  0.00    +0.000 A 
ATOM     16  C   UNL     1     103.541 123.391 146.002  0.00  0.00    +0.000 A 
ATOM     17  C   UNL     1     103.037 124.508 146.737  0.00  0.00    +0.000 A 
ATOM     18  C   UNL     1     102.904 123.817 146.307  0.00  0.00    +0.000 A 
ENDBRANCH   4  13
BRANCH   9  19
ATOM     19  O   UNL     1     106.359 124.118 148.850  0.00  0.00    +0.000 OA
ATOM     20  C   UNL     1     106.288 124.429 149.611  0.00  0.00    +0.000 C 
ENDBRANCH   9  19
TORSDOF 2
ENDMDL
MODEL 7
REMARK VINA RESULT:      -7.6      1.017      3.235
REMARK  Name = 42607832
REMARK  2 active torsions:
REMARK  status: ('A' for Active; 'I' for Inactive)
REMARK    1  A    between atoms: O_2  and  C_11
REMARK    2  A    between atoms: C_5  and  C_9
REMARK                            x       y       z     vdW  Elec       q    Type
REMARK                         _______ _______ _______ _____ _____    ______ ____
ROOT
ATOM      1  O   UNL     1     112.906 126.262 136.393  0.00  0.00    +0.000 OA
ATOM      2  O   UNL     1     114.756 125.143 137.598  0.00  0.00    +0.000 OA
ATOM      3  O   UNL     1     111.513 123.718 136.129  0.00  0.00    +0.000 OA
ATOM      4  C   UNL     1     113.552 126.702 136.656  0.00  0.00    +0.000 C 
ATOM      5  C   UNL     1     114.169 126.330 137.058  0.00  0.00    +0.000 C 
ATOM      6  C   UNL     1     113.493 125.077 136.933  0.00  0.00    +0.000 A 
ATOM      7  C   UNL     1     112.876 125.450 136.532  0.00  0.00    +0.000 A 
ATOM      8  C   UNL     1     114.139 125.516 137.197  0.00  0.00    +0.000 C 
ATOM      9  C   UNL     1     112.197 125.002 136.252  0.00  0.00    +0.000 A 
ATOM     10  C   UNL     1     113.473 124.231 137.084  0.00  0.00    +0.000 A 
ATOM     11  C   UNL     1     112.161 124.156 136.394  0.00  0.00    +0.000 A 
ATOM     12  C   UNL     1     112.803 123.767 136.812  0.00  0.00    +0.000 A 
ENDROOT
BRANCH   4  13
ATOM     13  C   UNL     1     113.582 127.515 136.518  0.00  0.00    +0.000 A 
ATOM     14  C   UNL     1     113.232 128.038 137.051  0.00  0.00    +0.000 A 
ATOM     15  C   UNL     1     113.963 127.805 135.846  0.00  0.00    +0.000 A 
ATOM     16  C   UNL     1     113.262 128.850 136.913  0.00  0.00    +0.000 A 
ATOM     17  C   UNL     1     113.993 128.618 135.707  0.00  0.00    +0.000 A 
ATOM     18  C   UNL     1     113.642 129.140 136.241  0.00  0.00    +0.000 A 
ENDBRANCH   4  13
BRANCH   9  19
ATOM     19  O   UNL     1     111.585 125.384 135.852  0.00  0.00    +0.000 OA
ATOM     20  C   UNL     1     110.804 125.281 136.097  0.00  0.00    +0.000 C 
ENDBRANCH   9  19
TORSDOF 2
ENDMDL
MODEL 8
REMARK VINA RESULT:      -7.6     10.552     12.295
REMARK  Name = 42607832
REMARK  2 active torsions:
REMARK  status: ('A' for Active; 'I' for Inactive)
REMARK    1  A    between atoms: O_2  and  C_11
REMARK    2  A    between atoms: C_5  and  C_9
REMARK                            x       y       z     vdW  Elec       q    Type
REMARK                         _______ _______ _______ _____ _____    ______ ____
ROOT
ATOM      1  O   UNL     1     102.586 130.691 141.520  0.00  0.00    +0.000 OA
ATOM      2  O   UNL     1     103.658 130.211 143.698  0.00  0.00    +0.000 OA
ATOM      3  O   UNL     1     103.788 128.297 140.378  0.00  0.00    +0.000 OA
ATOM      4  C   UNL     1     102.467 131.200 142.158  0.00  0.00    +0.000 C 
ATOM      5  C   UNL     1     102.824 131.040 142.884  0.00  0.00    +0.000 C 
ATOM      6  C   UNL     1     103.418 129.863 142.333  0.00  0.00    +0.000 A 
ATOM      7  C   UNL     1     103.061 130.023 141.606  0.00  0.00    +0.000 A 
ATOM      8  C   UNL     1     103.300 130.371 142.972  0.00  0.00    +0.000 C 
ATOM      9  C   UNL     1     103.177 129.501 140.933  0.00  0.00    +0.000 A 
ATOM     10  C   UNL     1     103.916 129.170 142.436  0.00  0.00    +0.000 A 
ATOM     11  C   UNL     1     103.671 128.804 141.018  0.00  0.00    +0.000 A 
ATOM     12  C   UNL     1     104.043 128.637 141.774  0.00  0.00    +0.000 A 
ENDROOT
BRANCH   4  13
ATOM     13  C   UNL     1     101.991 131.868 142.071  0.00  0.00    +0.000 A 
ATOM     14  C   UNL     1     101.186 131.827 142.244  0.00  0.00    +0.000 A 
ATOM     15  C   UNL     1     102.321 132.578 141.811  0.00  0.00    +0.000 A 
ATOM     16  C   UNL     1     100.710 132.495 142.157  0.00  0.00    +0.000 A 
ATOM     17  C   UNL     1     101.846 133.247 141.724  0.00  0.00    +0.000 A 
ATOM     18  C   UNL     1     101.040 133.205 141.897  0.00  0.00    +0.000 A 
ENDBRANCH   4  13
BRANCH   9  19
ATOM     19  O   UNL     1     102.815 129.669 140.211  0.00  0.00    +0.000 OA
ATOM     20  C   UNL     1     102.351 129.097 139.839  0.00  0.00    +0.000 C 
ENDBRANCH   9  19
TORSDOF 2
ENDMDL
MODEL 9
REMARK VINA RESULT:      -7.6      1.995      3.838
REMARK  Name = 42607832
REMARK  2 active torsions:
REMARK  status: ('A' for Active; 'I' for Inactive)
REMARK    1  A    between atoms: O_2  and  C_11
REMARK    2  A    between atoms: C_5  and  C_9
REMARK                            x       y       z     vdW  Elec       q    Type
REMARK                         _______ _______ _______ _____ _____    ______ ____
ROOT
ATOM      1  O   UNL     1     112.793 125.851 138.238  0.00  0.00    +0.000 OA
ATOM      2  O   UNL     1     115.035 125.043 137.570  0.00  0.00    +0.000 OA
ATOM      3  O   UNL     1     111.544 123.958 136.411  0.00  0.00    +0.000 OA
ATOM      4  C   UNL     1     113.469 126.183 138.576  0.00  0.00    +0.000 C 
ATOM      5  C   UNL     1     114.216 125.914 138.354  0.00  0.00    +0.000 C 
ATOM      6  C   UNL     1     113.612 124.982 137.455  0.00  0.00    +0.000 A 
ATOM      7  C   UNL     1     112.865 125.251 137.677  0.00  0.00    +0.000 A 
ATOM      8  C   UNL     1     114.288 125.313 137.792  0.00  0.00    +0.000 C 
ATOM      9  C   UNL     1     112.153 124.913 137.332  0.00  0.00    +0.000 A 
ATOM     10  C   UNL     1     113.699 124.356 136.871  0.00  0.00    +0.000 A 
ATOM     11  C   UNL     1     112.222 124.288 136.748  0.00  0.00    +0.000 A 
ATOM     12  C   UNL     1     113.000 124.007 136.516  0.00  0.00    +0.000 A 
ENDROOT
BRANCH   4  13
ATOM     13  C   UNL     1     113.397 126.784 139.137  0.00  0.00    +0.000 A 
ATOM     14  C   UNL     1     113.408 126.601 139.941  0.00  0.00    +0.000 A 
ATOM     15  C   UNL     1     113.315 127.567 138.893  0.00  0.00    +0.000 A 
ATOM     16  C   UNL     1     113.337 127.202 140.502  0.00  0.00    +0.000 A 
ATOM     17  C   UNL     1     113.243 128.169 139.454  0.00  0.00    +0.000 A 
ATOM     18  C   UNL     1     113.254 127.986 140.258  0.00  0.00    +0.000 A 
ENDBRANCH   4  13
BRANCH   9  19
ATOM     19  O   UNL     1     111.410 125.189 137.561  0.00  0.00    +0.000 OA
ATOM     20  C   UNL     1     110.873 125.448 136.991  0.00  0.00    +0.000 C 
ENDBRANCH   9  19
TORSDOF 2
ENDMDL
MODEL 10
REMARK VINA RESULT:      -7.6     10.406     12.081
REMARK  Name = 42607832
REMARK  2 active torsions:
REMARK  status: ('A' for Active; 'I' for Inactive)
REMARK    1  A    between atoms: O_2  and  C_11
REMARK    2  A    between atoms: C_5  and  C_9
REMARK                            x       y       z     vdW  Elec       q    Type
REMARK                         _______ _______ _______ _____ _____    ______ ____
ROOT
ATOM      1  O   UNL     1     102.819 130.553 142.098  0.00  0.00    +0.000 OA
ATOM      2  O   UNL     1     102.614 129.530 139.853  0.00  0.00    +0.000 OA
ATOM      3  O   UNL     1     104.717 128.490 142.887  0.00  0.00    +0.000 OA
ATOM      4  C   UNL     1     102.319 130.891 141.535  0.00  0.00    +0.000 C 
ATOM      5  C   UNL     1     102.251 130.550 140.787  0.00  0.00    +0.000 C 
ATOM      6  C   UNL     1     103.182 129.534 141.165  0.00  0.00    +0.000 A 
ATOM      7  C   UNL     1     103.250 129.875 141.913  0.00  0.00    +0.000 A 
ATOM      8  C   UNL     1     102.682 129.871 140.602  0.00  0.00    +0.000 C 
ATOM      9  C   UNL     1     103.767 129.532 142.509  0.00  0.00    +0.000 A 
ATOM     10  C   UNL     1     103.626 128.827 140.961  0.00  0.00    +0.000 A 
ATOM     11  C   UNL     1     104.218 128.826 142.322  0.00  0.00    +0.000 A 
ATOM     12  C   UNL     1     104.147 128.471 141.543  0.00  0.00    +0.000 A 
ENDROOT
BRANCH   4  13
ATOM     13  C   UNL     1     101.889 131.569 141.719  0.00  0.00    +0.000 A 
ATOM     14  C   UNL     1     101.142 131.504 142.064  0.00  0.00    +0.000 A 
ATOM     15  C   UNL     1     102.204 132.315 141.560  0.00  0.00    +0.000 A 
ATOM     16  C   UNL     1     100.711 132.182 142.248  0.00  0.00    +0.000 A 
ATOM     17  C   UNL     1     101.773 132.994 141.745  0.00  0.00    +0.000 A 
ATOM     18  C   UNL     1     101.027 132.927 142.089  0.00  0.00    +0.000 A 
ENDBRANCH   4  13
BRANCH   9  19
ATOM     19  O   UNL     1     103.828 129.880 143.254  0.00  0.00    +0.000 OA
ATOM     20  C   UNL     1     104.572 130.044 143.573  0.00  0.00    +0.000 C 
ENDBRANCH   9  19
TORSDOF 2
ENDMDL
