MODEL 1
REMARK VINA RESULT:      -9.5      0.000      0.000
REMARK  Name = 42607523
REMARK  8 active torsions:
REMARK  status: ('A' for Active; 'I' for Inactive)
REMARK    1  A    between atoms: O_1  and  C_14
REMARK    2  A    between atoms: O_1  and  C_16
REMARK    3  A    between atoms: O_8  and  C_23
REMARK    4  A    between atoms: O_8  and  C_26
REMARK    5  A    between atoms: C_22  and  C_25
REMARK    6  A    between atoms: C_27  and  C_31
REMARK    7  A    between atoms: C_31  and  C_33
REMARK    8  A    between atoms: C_34  and  C_35
REMARK                            x       y       z     vdW  Elec       q    Type
REMARK                         _______ _______ _______ _____ _____    ______ ____
ROOT
ATOM      1  O   UNL     1     113.481 129.566 138.679  0.00  0.00    +0.000 OA
ATOM      2  O   UNL     1     111.582 130.800 139.674  0.00  0.00    +0.000 OA
ATOM      3  O   UNL     1     111.456 130.182 138.150  0.00  0.00    +0.000 OA
ATOM      4  C   UNL     1     112.911 130.286 139.773  0.00  0.00    +0.000 C 
ATOM      5  C   UNL     1     112.215 130.389 139.343  0.00  0.00    +0.000 C 
ATOM      6  C   UNL     1     113.544 129.875 139.442  0.00  0.00    +0.000 C 
ATOM      7  C   UNL     1     112.152 130.080 138.581  0.00  0.00    +0.000 C 
ATOM      8  C   UNL     1     112.785 129.668 138.248  0.00  0.00    +0.000 C 
ATOM      9  C   UNL     1     114.241 129.772 139.872  0.00  0.00    +0.000 C 
ENDROOT
BRANCH   4  10
ATOM     10  O   UNL     1     112.974 130.595 140.535  0.00  0.00    +0.000 OA
BRANCH  10  15
ATOM     11  O   UNL     1     112.544 129.356 141.102  0.00  0.00    +0.000 OA
ATOM     12  O   UNL     1     112.712 131.347 141.981  0.00  0.00    +0.000 OA
ATOM     13  O   UNL     1     112.151 130.483 143.270  0.00  0.00    +0.000 OA
ATOM     14  O   UNL     1     111.852 128.869 143.113  0.00  0.00    +0.000 OA
ATOM     15  C   UNL     1     112.694 130.164 141.180  0.00  0.00    +0.000 C 
ATOM     16  C   UNL     1     112.563 130.540 141.903  0.00  0.00    +0.000 C 
ATOM     17  C   UNL     1     112.282 130.108 142.547  0.00  0.00    +0.000 C 
ATOM     18  C   UNL     1     112.132 129.301 142.469  0.00  0.00    +0.000 C 
ATOM     19  C   UNL     1     112.264 128.925 141.747  0.00  0.00    +0.000 C 
BRANCH  19  21
ATOM     20  O   UNL     1     111.442 127.860 141.263  0.00  0.00    +0.000 OA
ATOM     21  C   UNL     1     112.114 128.117 141.668  0.00  0.00    +0.000 C 
ENDBRANCH  19  21
ENDBRANCH  10  15
ENDBRANCH   4  10
BRANCH   8  22
ATOM     22  O   UNL     1     112.722 129.359 137.486  0.00  0.00    +0.000 OA
BRANCH  22  24
ATOM     23  O   UNL     1     114.512 131.269 136.342  0.00  0.00    +0.000 OA
ATOM     24  C   UNL     1     113.278 129.563 136.912  0.00  0.00    +0.000 A 
ATOM     25  C   UNL     1     113.494 129.014 136.334  0.00  0.00    +0.000 A 
ATOM     26  C   UNL     1     113.618 130.315 136.914  0.00  0.00    +0.000 A 
ATOM     27  C   UNL     1     114.050 129.218 135.759  0.00  0.00    +0.000 A 
ATOM     28  C   UNL     1     114.173 130.518 136.339  0.00  0.00    +0.000 A 
ATOM     29  C   UNL     1     114.389 129.970 135.762  0.00  0.00    +0.000 A 
BRANCH  25  31
ATOM     30  O   UNL     1     112.385 128.159 136.052  0.00  0.00    +0.000 OA
ATOM     31  C   UNL     1     113.155 128.262 136.331  0.00  0.00    +0.000 C 
BRANCH  31  32
ATOM     32  C   UNL     1     113.584 127.614 136.607  0.00  0.00    +0.000 C 
ATOM     33  C   UNL     1     113.294 126.851 136.497  0.00  0.00    +0.000 C 
BRANCH  33  35
ATOM     34  O   UNL     1     115.013 124.259 137.600  0.00  0.00    +0.000 OA
ATOM     35  C   UNL     1     113.724 126.203 136.772  0.00  0.00    +0.000 A 
ATOM     36  C   UNL     1     113.687 125.991 137.569  0.00  0.00    +0.000 A 
ATOM     37  C   UNL     1     114.192 125.765 136.251  0.00  0.00    +0.000 A 
ATOM     38  C   UNL     1     114.117 125.343 137.845  0.00  0.00    +0.000 A 
ATOM     39  C   UNL     1     114.621 125.117 136.527  0.00  0.00    +0.000 A 
ATOM     40  C   UNL     1     114.583 124.907 137.324  0.00  0.00    +0.000 A 
ENDBRANCH  33  35
ENDBRANCH  31  32
ENDBRANCH  25  31
ENDBRANCH  22  24
ENDBRANCH   8  22
TORSDOF 8
ENDMDL
MODEL 2
REMARK VINA RESULT:      -9.5      2.429      4.255
REMARK  Name = 42607523
REMARK  8 active torsions:
REMARK  status: ('A' for Active; 'I' for Inactive)
REMARK    1  A    between atoms: O_1  and  C_14
REMARK    2  A    between atoms: O_1  and  C_16
REMARK    3  A    between atoms: O_8  and  C_23
REMARK    4  A    between atoms: O_8  and  C_26
REMARK    5  A    between atoms: C_22  and  C_25
REMARK    6  A    between atoms: C_27  and  C_31
REMARK    7  A    between atoms: C_31  and  C_33
REMARK    8  A    between atoms: C_34  and  C_35
REMARK                            x       y       z     vdW  Elec       q    Type
REMARK                         _______ _______ _______ _____ _____    ______ ____
ROOT
ATOM      1  O   UNL     1     112.025 126.369 138.239  0.00  0.00    +0.000 OA
ATOM      2  O   UNL     1     112.363 127.086 140.583  0.00  0.00    +0.000 OA
ATOM      3  O   UNL     1     113.387 127.617 139.402  0.00  0.00    +0.000 OA
ATOM      4  C   UNL     1     111.626 126.343 139.610  0.00  0.00    +0.000 C 
ATOM      5  C   UNL     1     112.250 126.847 139.802  0.00  0.00    +0.000 C 
ATOM      6  C   UNL     1     111.514 126.104 138.829  0.00  0.00    +0.000 C 
ATOM      7  C   UNL     1     112.762 127.112 139.212  0.00  0.00    +0.000 C 
ATOM      8  C   UNL     1     112.650 126.873 138.429  0.00  0.00    +0.000 C 
ATOM      9  C   UNL     1     110.889 125.600 138.637  0.00  0.00    +0.000 C 
ENDROOT
BRANCH   4  10
ATOM     10  O   UNL     1     111.114 126.078 140.200  0.00  0.00    +0.000 OA
BRANCH  10  15
ATOM     11  O   UNL     1     110.328 127.262 140.051  0.00  0.00    +0.000 OA
ATOM     12  O   UNL     1     110.066 125.526 141.348  0.00  0.00    +0.000 OA
ATOM     13  O   UNL     1     108.755 126.434 141.773  0.00  0.00    +0.000 OA
ATOM     14  O   UNL     1     108.494 127.893 141.050  0.00  0.00    +0.000 OA
ATOM     15  C   UNL     1     110.459 126.531 140.413  0.00  0.00    +0.000 C 
ATOM     16  C   UNL     1     109.935 126.255 140.987  0.00  0.00    +0.000 C 
ATOM     17  C   UNL     1     109.280 126.710 141.199  0.00  0.00    +0.000 C 
ATOM     18  C   UNL     1     109.149 127.439 140.838  0.00  0.00    +0.000 C 
ATOM     19  C   UNL     1     109.673 127.715 140.264  0.00  0.00    +0.000 C 
BRANCH  19  21
ATOM     20  O   UNL     1     109.289 128.476 139.116  0.00  0.00    +0.000 OA
ATOM     21  C   UNL     1     109.543 128.445 139.901  0.00  0.00    +0.000 C 
ENDBRANCH  19  21
ENDBRANCH  10  15
ENDBRANCH   4  10
BRANCH   8  22
ATOM     22  O   UNL     1     113.161 127.138 137.839  0.00  0.00    +0.000 OA
BRANCH  22  24
ATOM     23  O   UNL     1     114.603 124.678 137.658  0.00  0.00    +0.000 OA
ATOM     24  C   UNL     1     113.595 126.596 137.395  0.00  0.00    +0.000 A 
ATOM     25  C   UNL     1     113.741 126.740 136.596  0.00  0.00    +0.000 A 
ATOM     26  C   UNL     1     113.882 125.908 137.749  0.00  0.00    +0.000 A 
ATOM     27  C   UNL     1     114.174 126.196 136.151  0.00  0.00    +0.000 A 
ATOM     28  C   UNL     1     114.315 125.365 137.304  0.00  0.00    +0.000 A 
ATOM     29  C   UNL     1     114.462 125.509 136.505  0.00  0.00    +0.000 A 
BRANCH  25  31
ATOM     30  O   UNL     1     112.667 127.465 135.992  0.00  0.00    +0.000 OA
ATOM     31  C   UNL     1     113.454 127.427 136.241  0.00  0.00    +0.000 C 
BRANCH  31  32
ATOM     32  C   UNL     1     113.952 128.076 136.135  0.00  0.00    +0.000 C 
ATOM     33  C   UNL     1     113.718 128.700 135.649  0.00  0.00    +0.000 C 
BRANCH  33  35
ATOM     34  O   UNL     1     115.710 131.296 135.224  0.00  0.00    +0.000 OA
ATOM     35  C   UNL     1     114.216 129.349 135.543  0.00  0.00    +0.000 A 
ATOM     36  C   UNL     1     114.685 129.403 134.867  0.00  0.00    +0.000 A 
ATOM     37  C   UNL     1     114.244 129.945 136.114  0.00  0.00    +0.000 A 
ATOM     38  C   UNL     1     115.183 130.052 134.761  0.00  0.00    +0.000 A 
ATOM     39  C   UNL     1     114.742 130.594 136.007  0.00  0.00    +0.000 A 
ATOM     40  C   UNL     1     115.212 130.647 135.331  0.00  0.00    +0.000 A 
ENDBRANCH  33  35
ENDBRANCH  31  32
ENDBRANCH  25  31
ENDBRANCH  22  24
ENDBRANCH   8  22
TORSDOF 8
ENDMDL
MODEL 3
REMARK VINA RESULT:      -9.4      3.135      4.599
REMARK  Name = 42607523
REMARK  8 active torsions:
REMARK  status: ('A' for Active; 'I' for Inactive)
REMARK    1  A    between atoms: O_1  and  C_14
REMARK    2  A    between atoms: O_1  and  C_16
REMARK    3  A    between atoms: O_8  and  C_23
REMARK    4  A    between atoms: O_8  and  C_26
REMARK    5  A    between atoms: C_22  and  C_25
REMARK    6  A    between atoms: C_27  and  C_31
REMARK    7  A    between atoms: C_31  and  C_33
REMARK    8  A    between atoms: C_34  and  C_35
REMARK                            x       y       z     vdW  Elec       q    Type
REMARK                         _______ _______ _______ _____ _____    ______ ____
ROOT
ATOM      1  O   UNL     1     111.102 128.443 136.953  0.00  0.00    +0.000 OA
ATOM      2  O   UNL     1     109.561 129.768 138.365  0.00  0.00    +0.000 OA
ATOM      3  O   UNL     1     109.348 128.139 138.215  0.00  0.00    +0.000 OA
ATOM      4  C   UNL     1     110.696 129.699 137.498  0.00  0.00    +0.000 C 
ATOM      5  C   UNL     1     110.075 129.327 137.894  0.00  0.00    +0.000 C 
ATOM      6  C   UNL     1     111.209 129.258 137.028  0.00  0.00    +0.000 C 
ATOM      7  C   UNL     1     109.968 128.512 137.819  0.00  0.00    +0.000 C 
ATOM      8  C   UNL     1     110.482 128.070 137.349  0.00  0.00    +0.000 C 
ATOM      9  C   UNL     1     111.830 129.630 136.632  0.00  0.00    +0.000 C 
ENDROOT
BRANCH   4  10
ATOM     10  O   UNL     1     110.803 130.514 137.573  0.00  0.00    +0.000 OA
BRANCH  10  15
ATOM     11  O   UNL     1     109.973 130.729 136.429  0.00  0.00    +0.000 OA
ATOM     12  O   UNL     1     110.949 132.145 137.773  0.00  0.00    +0.000 OA
ATOM     13  O   UNL     1     110.193 133.176 136.730  0.00  0.00    +0.000 OA
ATOM     14  O   UNL     1     109.291 132.575 135.487  0.00  0.00    +0.000 OA
ATOM     15  C   UNL     1     110.425 131.029 137.052  0.00  0.00    +0.000 C 
ATOM     16  C   UNL     1     110.498 131.845 137.152  0.00  0.00    +0.000 C 
ATOM     17  C   UNL     1     110.120 132.360 136.630  0.00  0.00    +0.000 C 
ATOM     18  C   UNL     1     109.669 132.060 136.008  0.00  0.00    +0.000 C 
ATOM     19  C   UNL     1     109.595 131.244 135.908  0.00  0.00    +0.000 C 
BRANCH  19  21
ATOM     20  O   UNL     1     108.420 130.578 135.442  0.00  0.00    +0.000 OA
ATOM     21  C   UNL     1     109.144 130.943 135.287  0.00  0.00    +0.000 C 
ENDBRANCH  19  21
ENDBRANCH  10  15
ENDBRANCH   4  10
BRANCH   8  22
ATOM     22  O   UNL     1     110.375 127.255 137.274  0.00  0.00    +0.000 OA
BRANCH  22  24
ATOM     23  O   UNL     1     109.355 127.450 134.612  0.00  0.00    +0.000 OA
ATOM     24  C   UNL     1     110.254 126.922 136.529  0.00  0.00    +0.000 A 
ATOM     25  C   UNL     1     110.522 126.158 136.371  0.00  0.00    +0.000 A 
ATOM     26  C   UNL     1     109.865 127.352 135.942  0.00  0.00    +0.000 A 
ATOM     27  C   UNL     1     110.401 125.824 135.625  0.00  0.00    +0.000 A 
ATOM     28  C   UNL     1     109.744 127.019 135.198  0.00  0.00    +0.000 A 
ATOM     29  C   UNL     1     110.012 126.255 135.040  0.00  0.00    +0.000 A 
BRANCH  25  31
ATOM     30  O   UNL     1     110.479 125.385 137.572  0.00  0.00    +0.000 OA
ATOM     31  C   UNL     1     110.911 125.727 136.957  0.00  0.00    +0.000 C 
BRANCH  31  32
ATOM     32  C   UNL     1     111.731 125.638 136.928  0.00  0.00    +0.000 C 
ATOM     33  C   UNL     1     112.100 125.075 137.404  0.00  0.00    +0.000 C 
BRANCH  33  35
ATOM     34  O   UNL     1     115.379 124.717 137.290  0.00  0.00    +0.000 OA
ATOM     35  C   UNL     1     112.920 124.986 137.375  0.00  0.00    +0.000 A 
ATOM     36  C   UNL     1     113.253 124.372 136.936  0.00  0.00    +0.000 A 
ATOM     37  C   UNL     1     113.407 125.510 137.787  0.00  0.00    +0.000 A 
ATOM     38  C   UNL     1     114.073 124.283 136.907  0.00  0.00    +0.000 A 
ATOM     39  C   UNL     1     114.227 125.420 137.759  0.00  0.00    +0.000 A 
ATOM     40  C   UNL     1     114.559 124.807 137.319  0.00  0.00    +0.000 A 
ENDBRANCH  33  35
ENDBRANCH  31  32
ENDBRANCH  25  31
ENDBRANCH  22  24
ENDBRANCH   8  22
TORSDOF 8
ENDMDL
MODEL 4
REMARK VINA RESULT:      -9.3      2.708      4.415
REMARK  Name = 42607523
REMARK  8 active torsions:
REMARK  status: ('A' for Active; 'I' for Inactive)
REMARK    1  A    between atoms: O_1  and  C_14
REMARK    2  A    between atoms: O_1  and  C_16
REMARK    3  A    between atoms: O_8  and  C_23
REMARK    4  A    between atoms: O_8  and  C_26
REMARK    5  A    between atoms: C_22  and  C_25
REMARK    6  A    between atoms: C_27  and  C_31
REMARK    7  A    between atoms: C_31  and  C_33
REMARK    8  A    between atoms: C_34  and  C_35
REMARK                            x       y       z     vdW  Elec       q    Type
REMARK                         _______ _______ _______ _____ _____    ______ ____
ROOT
ATOM      1  O   UNL     1     110.866 128.476 136.758  0.00  0.00    +0.000 OA
ATOM      2  O   UNL     1     110.532 130.431 135.278  0.00  0.00    +0.000 OA
ATOM      3  O   UNL     1     112.053 129.856 135.554  0.00  0.00    +0.000 OA
ATOM      4  C   UNL     1     109.994 129.415 136.127  0.00  0.00    +0.000 C 
ATOM      5  C   UNL     1     110.643 129.780 135.771  0.00  0.00    +0.000 C 
ATOM      6  C   UNL     1     110.105 128.764 136.620  0.00  0.00    +0.000 C 
ATOM      7  C   UNL     1     111.404 129.492 135.909  0.00  0.00    +0.000 C 
ATOM      8  C   UNL     1     111.516 128.840 136.403  0.00  0.00    +0.000 C 
ATOM      9  C   UNL     1     109.456 128.399 136.976  0.00  0.00    +0.000 C 
ENDROOT
BRANCH   4  10
ATOM     10  O   UNL     1     109.233 129.702 135.989  0.00  0.00    +0.000 OA
BRANCH  10  15
ATOM     11  O   UNL     1     109.308 130.523 137.156  0.00  0.00    +0.000 OA
ATOM     12  O   UNL     1     107.892 130.527 135.494  0.00  0.00    +0.000 OA
ATOM     13  O   UNL     1     107.297 131.761 136.414  0.00  0.00    +0.000 OA
ATOM     14  O   UNL     1     108.042 132.169 137.828  0.00  0.00    +0.000 OA
ATOM     15  C   UNL     1     108.935 130.319 136.448  0.00  0.00    +0.000 C 
ATOM     16  C   UNL     1     108.264 130.731 136.201  0.00  0.00    +0.000 C 
ATOM     17  C   UNL     1     107.967 131.348 136.662  0.00  0.00    +0.000 C 
ATOM     18  C   UNL     1     108.339 131.552 137.368  0.00  0.00    +0.000 C 
ATOM     19  C   UNL     1     109.009 131.140 137.616  0.00  0.00    +0.000 C 
BRANCH  19  21
ATOM     20  O   UNL     1     110.081 131.783 138.308  0.00  0.00    +0.000 OA
ATOM     21  C   UNL     1     109.382 131.344 138.322  0.00  0.00    +0.000 C 
ENDBRANCH  19  21
ENDBRANCH  10  15
ENDBRANCH   4  10
BRANCH   8  22
ATOM     22  O   UNL     1     112.276 128.553 136.541  0.00  0.00    +0.000 OA
BRANCH  22  24
ATOM     23  O   UNL     1     112.470 129.652 139.171  0.00  0.00    +0.000 OA
ATOM     24  C   UNL     1     112.569 128.515 137.311  0.00  0.00    +0.000 A 
ATOM     25  C   UNL     1     113.059 127.891 137.536  0.00  0.00    +0.000 A 
ATOM     26  C   UNL     1     112.373 129.102 137.857  0.00  0.00    +0.000 A 
ATOM     27  C   UNL     1     113.353 127.853 138.307  0.00  0.00    +0.000 A 
ATOM     28  C   UNL     1     112.666 129.065 138.626  0.00  0.00    +0.000 A 
ATOM     29  C   UNL     1     113.156 128.441 138.851  0.00  0.00    +0.000 A 
BRANCH  25  31
ATOM     30  O   UNL     1     113.771 127.475 136.369  0.00  0.00    +0.000 OA
ATOM     31  C   UNL     1     113.256 127.304 136.991  0.00  0.00    +0.000 C 
BRANCH  31  32
ATOM     32  C   UNL     1     112.939 126.546 137.068  0.00  0.00    +0.000 C 
ATOM     33  C   UNL     1     113.213 125.934 136.588  0.00  0.00    +0.000 C 
BRANCH  33  35
ATOM     34  O   UNL     1     111.945 122.903 136.895  0.00  0.00    +0.000 OA
ATOM     35  C   UNL     1     112.896 125.177 136.665  0.00  0.00    +0.000 A 
ATOM     36  C   UNL     1     113.352 124.569 136.986  0.00  0.00    +0.000 A 
ATOM     37  C   UNL     1     112.122 125.026 136.420  0.00  0.00    +0.000 A 
ATOM     38  C   UNL     1     113.035 123.811 137.063  0.00  0.00    +0.000 A 
ATOM     39  C   UNL     1     111.805 124.268 136.497  0.00  0.00    +0.000 A 
ATOM     40  C   UNL     1     112.262 123.661 136.819  0.00  0.00    +0.000 A 
ENDBRANCH  33  35
ENDBRANCH  31  32
ENDBRANCH  25  31
ENDBRANCH  22  24
ENDBRANCH   8  22
TORSDOF 8
ENDMDL
MODEL 5
REMARK VINA RESULT:      -9.2      1.748      1.968
REMARK  Name = 42607523
REMARK  8 active torsions:
REMARK  status: ('A' for Active; 'I' for Inactive)
REMARK    1  A    between atoms: O_1  and  C_14
REMARK    2  A    between atoms: O_1  and  C_16
REMARK    3  A    between atoms: O_8  and  C_23
REMARK    4  A    between atoms: O_8  and  C_26
REMARK    5  A    between atoms: C_22  and  C_25
REMARK    6  A    between atoms: C_27  and  C_31
REMARK    7  A    between atoms: C_31  and  C_33
REMARK    8  A    between atoms: C_34  and  C_35
REMARK                            x       y       z     vdW  Elec       q    Type
REMARK                         _______ _______ _______ _____ _____    ______ ____
ROOT
ATOM      1  O   UNL     1     112.485 129.866 137.934  0.00  0.00    +0.000 OA
ATOM      2  O   UNL     1     110.442 131.246 137.720  0.00  0.00    +0.000 OA
ATOM      3  O   UNL     1     111.061 130.477 136.398  0.00  0.00    +0.000 OA
ATOM      4  C   UNL     1     111.495 130.710 138.524  0.00  0.00    +0.000 C 
ATOM      5  C   UNL     1     111.123 130.786 137.792  0.00  0.00    +0.000 C 
ATOM      6  C   UNL     1     112.176 130.251 138.596  0.00  0.00    +0.000 C 
ATOM      7  C   UNL     1     111.432 130.402 137.131  0.00  0.00    +0.000 C 
ATOM      8  C   UNL     1     112.114 129.942 137.202  0.00  0.00    +0.000 C 
ATOM      9  C   UNL     1     112.549 130.175 139.328  0.00  0.00    +0.000 C 
ENDROOT
BRANCH   4  10
ATOM     10  O   UNL     1     111.186 131.095 139.185  0.00  0.00    +0.000 OA
BRANCH  10  15
ATOM     11  O   UNL     1     110.413 129.943 139.529  0.00  0.00    +0.000 OA
ATOM     12  O   UNL     1     110.282 132.010 140.218  0.00  0.00    +0.000 OA
ATOM     13  O   UNL     1     109.056 131.316 141.078  0.00  0.00    +0.000 OA
ATOM     14  O   UNL     1     108.736 129.707 140.905  0.00  0.00    +0.000 OA
ATOM     15  C   UNL     1     110.574 130.748 139.616  0.00  0.00    +0.000 C 
ATOM     16  C   UNL     1     110.121 131.206 140.132  0.00  0.00    +0.000 C 
ATOM     17  C   UNL     1     109.509 130.858 140.562  0.00  0.00    +0.000 C 
ATOM     18  C   UNL     1     109.348 130.054 140.476  0.00  0.00    +0.000 C 
ATOM     19  C   UNL     1     109.801 129.597 139.959  0.00  0.00    +0.000 C 
BRANCH  19  21
ATOM     20  O   UNL     1     109.251 128.520 139.198  0.00  0.00    +0.000 OA
ATOM     21  C   UNL     1     109.641 128.792 139.873  0.00  0.00    +0.000 C 
ENDBRANCH  19  21
ENDBRANCH  10  15
ENDBRANCH   4  10
BRANCH   8  22
ATOM     22  O   UNL     1     112.423 129.557 136.540  0.00  0.00    +0.000 OA
BRANCH  22  24
ATOM     23  O   UNL     1     114.540 131.439 136.170  0.00  0.00    +0.000 OA
ATOM     24  C   UNL     1     113.186 129.732 136.282  0.00  0.00    +0.000 A 
ATOM     25  C   UNL     1     113.654 129.140 135.949  0.00  0.00    +0.000 A 
ATOM     26  C   UNL     1     113.482 130.499 136.355  0.00  0.00    +0.000 A 
ATOM     27  C   UNL     1     114.418 129.314 135.689  0.00  0.00    +0.000 A 
ATOM     28  C   UNL     1     114.245 130.673 136.096  0.00  0.00    +0.000 A 
ATOM     29  C   UNL     1     114.713 130.081 135.763  0.00  0.00    +0.000 A 
BRANCH  25  31
ATOM     30  O   UNL     1     112.700 128.229 135.398  0.00  0.00    +0.000 OA
ATOM     31  C   UNL     1     113.359 128.373 135.874  0.00  0.00    +0.000 C 
BRANCH  31  32
ATOM     32  C   UNL     1     113.722 127.750 136.276  0.00  0.00    +0.000 C 
ATOM     33  C   UNL     1     113.432 126.983 136.195  0.00  0.00    +0.000 C 
BRANCH  33  35
ATOM     34  O   UNL     1     114.883 124.492 137.801  0.00  0.00    +0.000 OA
ATOM     35  C   UNL     1     113.795 126.360 136.596  0.00  0.00    +0.000 A 
ATOM     36  C   UNL     1     113.593 126.201 137.380  0.00  0.00    +0.000 A 
ATOM     37  C   UNL     1     114.360 125.896 136.214  0.00  0.00    +0.000 A 
ATOM     38  C   UNL     1     113.956 125.579 137.782  0.00  0.00    +0.000 A 
ATOM     39  C   UNL     1     114.722 125.273 136.615  0.00  0.00    +0.000 A 
ATOM     40  C   UNL     1     114.520 125.115 137.399  0.00  0.00    +0.000 A 
ENDBRANCH  33  35
ENDBRANCH  31  32
ENDBRANCH  25  31
ENDBRANCH  22  24
ENDBRANCH   8  22
TORSDOF 8
ENDMDL
MODEL 6
REMARK VINA RESULT:      -9.2      2.398      4.404
REMARK  Name = 42607523
REMARK  8 active torsions:
REMARK  status: ('A' for Active; 'I' for Inactive)
REMARK    1  A    between atoms: O_1  and  C_14
REMARK    2  A    between atoms: O_1  and  C_16
REMARK    3  A    between atoms: O_8  and  C_23
REMARK    4  A    between atoms: O_8  and  C_26
REMARK    5  A    between atoms: C_22  and  C_25
REMARK    6  A    between atoms: C_27  and  C_31
REMARK    7  A    between atoms: C_31  and  C_33
REMARK    8  A    between atoms: C_34  and  C_35
REMARK                            x       y       z     vdW  Elec       q    Type
REMARK                         _______ _______ _______ _____ _____    ______ ____
ROOT
ATOM      1  O   UNL     1     111.520 128.812 138.660  0.00  0.00    +0.000 OA
ATOM      2  O   UNL     1     109.157 129.194 139.287  0.00  0.00    +0.000 OA
ATOM      3  O   UNL     1     109.984 127.918 139.927  0.00  0.00    +0.000 OA
ATOM      4  C   UNL     1     110.319 129.577 138.549  0.00  0.00    +0.000 C 
ATOM      5  C   UNL     1     109.944 129.067 139.078  0.00  0.00    +0.000 C 
ATOM      6  C   UNL     1     111.106 129.450 138.340  0.00  0.00    +0.000 C 
ATOM      7  C   UNL     1     110.358 128.429 139.398  0.00  0.00    +0.000 C 
ATOM      8  C   UNL     1     111.146 128.301 139.189  0.00  0.00    +0.000 C 
ATOM      9  C   UNL     1     111.481 129.960 137.811  0.00  0.00    +0.000 C 
ENDROOT
BRANCH   4  10
ATOM     10  O   UNL     1     109.905 130.215 138.229  0.00  0.00    +0.000 OA
BRANCH  10  15
ATOM     11  O   UNL     1     109.490 129.399 137.132  0.00  0.00    +0.000 OA
ATOM     12  O   UNL     1     108.973 131.453 137.661  0.00  0.00    +0.000 OA
ATOM     13  O   UNL     1     108.093 131.255 136.279  0.00  0.00    +0.000 OA
ATOM     14  O   UNL     1     108.144 129.821 135.467  0.00  0.00    +0.000 OA
ATOM     15  C   UNL     1     109.465 130.117 137.538  0.00  0.00    +0.000 C 
ATOM     16  C   UNL     1     108.999 130.736 137.254  0.00  0.00    +0.000 C 
ATOM     17  C   UNL     1     108.558 130.637 136.563  0.00  0.00    +0.000 C 
ATOM     18  C   UNL     1     108.584 129.920 136.157  0.00  0.00    +0.000 C 
ATOM     19  C   UNL     1     109.050 129.301 136.441  0.00  0.00    +0.000 C 
BRANCH  19  21
ATOM     20  O   UNL     1     108.626 127.944 136.300  0.00  0.00    +0.000 OA
ATOM     21  C   UNL     1     109.075 128.583 136.035  0.00  0.00    +0.000 C 
ENDBRANCH  19  21
ENDBRANCH  10  15
ENDBRANCH   4  10
BRANCH   8  22
ATOM     22  O   UNL     1     111.560 127.663 139.509  0.00  0.00    +0.000 OA
BRANCH  22  24
ATOM     23  O   UNL     1     113.055 129.291 141.319  0.00  0.00    +0.000 OA
ATOM     24  C   UNL     1     112.241 127.795 139.955  0.00  0.00    +0.000 A 
ATOM     25  C   UNL     1     112.856 127.245 139.942  0.00  0.00    +0.000 A 
ATOM     26  C   UNL     1     112.308 128.477 140.414  0.00  0.00    +0.000 A 
ATOM     27  C   UNL     1     113.538 127.378 140.388  0.00  0.00    +0.000 A 
ATOM     28  C   UNL     1     112.989 128.610 140.860  0.00  0.00    +0.000 A 
ATOM     29  C   UNL     1     113.603 128.060 140.847  0.00  0.00    +0.000 A 
BRANCH  25  31
ATOM     30  O   UNL     1     112.228 125.990 139.675  0.00  0.00    +0.000 OA
ATOM     31  C   UNL     1     112.790 126.563 139.483  0.00  0.00    +0.000 C 
BRANCH  31  32
ATOM     32  C   UNL     1     113.285 126.454 138.832  0.00  0.00    +0.000 C 
ATOM     33  C   UNL     1     113.253 125.750 138.403  0.00  0.00    +0.000 C 
BRANCH  33  35
ATOM     34  O   UNL     1     115.234 125.312 135.801  0.00  0.00    +0.000 OA
ATOM     35  C   UNL     1     113.748 125.641 137.753  0.00  0.00    +0.000 A 
ATOM     36  C   UNL     1     114.349 125.077 137.782  0.00  0.00    +0.000 A 
ATOM     37  C   UNL     1     113.642 126.095 137.072  0.00  0.00    +0.000 A 
ATOM     38  C   UNL     1     114.845 124.967 137.131  0.00  0.00    +0.000 A 
ATOM     39  C   UNL     1     114.137 125.986 136.421  0.00  0.00    +0.000 A 
ATOM     40  C   UNL     1     114.739 125.422 136.452  0.00  0.00    +0.000 A 
ENDBRANCH  33  35
ENDBRANCH  31  32
ENDBRANCH  25  31
ENDBRANCH  22  24
ENDBRANCH   8  22
TORSDOF 8
ENDMDL
MODEL 7
REMARK VINA RESULT:      -9.2      2.989      4.938
REMARK  Name = 42607523
REMARK  8 active torsions:
REMARK  status: ('A' for Active; 'I' for Inactive)
REMARK    1  A    between atoms: O_1  and  C_14
REMARK    2  A    between atoms: O_1  and  C_16
REMARK    3  A    between atoms: O_8  and  C_23
REMARK    4  A    between atoms: O_8  and  C_26
REMARK    5  A    between atoms: C_22  and  C_25
REMARK    6  A    between atoms: C_27  and  C_31
REMARK    7  A    between atoms: C_31  and  C_33
REMARK    8  A    between atoms: C_34  and  C_35
REMARK                            x       y       z     vdW  Elec       q    Type
REMARK                         _______ _______ _______ _____ _____    ______ ____
ROOT
ATOM      1  O   UNL     1     110.829 127.928 137.135  0.00  0.00    +0.000 OA
ATOM      2  O   UNL     1     108.497 128.005 136.313  0.00  0.00    +0.000 OA
ATOM      3  O   UNL     1     108.987 126.767 137.288  0.00  0.00    +0.000 OA
ATOM      4  C   UNL     1     109.807 128.573 136.374  0.00  0.00    +0.000 C 
ATOM      5  C   UNL     1     109.274 127.980 136.587  0.00  0.00    +0.000 C 
ATOM      6  C   UNL     1     110.584 128.547 136.648  0.00  0.00    +0.000 C 
ATOM      7  C   UNL     1     109.519 127.361 137.075  0.00  0.00    +0.000 C 
ATOM      8  C   UNL     1     110.297 127.335 137.349  0.00  0.00    +0.000 C 
ATOM      9  C   UNL     1     111.117 129.140 136.435  0.00  0.00    +0.000 C 
ENDROOT
BRANCH   4  10
ATOM     10  O   UNL     1     109.561 129.191 135.887  0.00  0.00    +0.000 OA
BRANCH  10  15
ATOM     11  O   UNL     1     109.252 130.019 137.010  0.00  0.00    +0.000 OA
ATOM     12  O   UNL     1     108.592 130.125 134.933  0.00  0.00    +0.000 OA
ATOM     13  O   UNL     1     107.798 131.420 135.579  0.00  0.00    +0.000 OA
ATOM     14  O   UNL     1     107.974 131.779 137.179  0.00  0.00    +0.000 OA
ATOM     15  C   UNL     1     109.164 129.839 136.209  0.00  0.00    +0.000 C 
ATOM     16  C   UNL     1     108.679 130.305 135.732  0.00  0.00    +0.000 C 
ATOM     17  C   UNL     1     108.283 130.953 136.056  0.00  0.00    +0.000 C 
ATOM     18  C   UNL     1     108.371 131.133 136.856  0.00  0.00    +0.000 C 
ATOM     19  C   UNL     1     108.855 130.666 137.333  0.00  0.00    +0.000 C 
BRANCH  19  21
ATOM     20  O   UNL     1     108.550 130.396 138.702  0.00  0.00    +0.000 OA
ATOM     21  C   UNL     1     108.944 130.846 138.133  0.00  0.00    +0.000 C 
ENDBRANCH  19  21
ENDBRANCH  10  15
ENDBRANCH   4  10
BRANCH   8  22
ATOM     22  O   UNL     1     110.543 126.716 137.836  0.00  0.00    +0.000 OA
BRANCH  22  24
ATOM     23  O   UNL     1     110.678 128.351 140.176  0.00  0.00    +0.000 OA
ATOM     24  C   UNL     1     110.868 126.879 138.576  0.00  0.00    +0.000 A 
ATOM     25  C   UNL     1     111.453 126.386 138.886  0.00  0.00    +0.000 A 
ATOM     26  C   UNL     1     110.611 127.534 139.006  0.00  0.00    +0.000 A 
ATOM     27  C   UNL     1     111.779 126.548 139.627  0.00  0.00    +0.000 A 
ATOM     28  C   UNL     1     110.936 127.696 139.746  0.00  0.00    +0.000 A 
ATOM     29  C   UNL     1     111.520 127.203 140.057  0.00  0.00    +0.000 A 
BRANCH  25  31
ATOM     30  O   UNL     1     111.264 125.037 138.454  0.00  0.00    +0.000 OA
ATOM     31  C   UNL     1     111.711 125.731 138.457  0.00  0.00    +0.000 C 
BRANCH  31  32
ATOM     32  C   UNL     1     112.417 125.768 138.031  0.00  0.00    +0.000 C 
ATOM     33  C   UNL     1     112.739 125.083 137.706  0.00  0.00    +0.000 C 
BRANCH  33  35
ATOM     34  O   UNL     1     115.561 125.233 136.002  0.00  0.00    +0.000 OA
ATOM     35  C   UNL     1     113.444 125.120 137.280  0.00  0.00    +0.000 A 
ATOM     36  C   UNL     1     114.149 124.865 137.624  0.00  0.00    +0.000 A 
ATOM     37  C   UNL     1     113.446 125.414 136.508  0.00  0.00    +0.000 A 
ATOM     38  C   UNL     1     114.854 124.902 137.198  0.00  0.00    +0.000 A 
ATOM     39  C   UNL     1     114.151 125.452 136.082  0.00  0.00    +0.000 A 
ATOM     40  C   UNL     1     114.855 125.196 136.428  0.00  0.00    +0.000 A 
ENDBRANCH  33  35
ENDBRANCH  31  32
ENDBRANCH  25  31
ENDBRANCH  22  24
ENDBRANCH   8  22
TORSDOF 8
ENDMDL
MODEL 8
REMARK VINA RESULT:      -9.1      2.403      4.470
REMARK  Name = 42607523
REMARK  8 active torsions:
REMARK  status: ('A' for Active; 'I' for Inactive)
REMARK    1  A    between atoms: O_1  and  C_14
REMARK    2  A    between atoms: O_1  and  C_16
REMARK    3  A    between atoms: O_8  and  C_23
REMARK    4  A    between atoms: O_8  and  C_26
REMARK    5  A    between atoms: C_22  and  C_25
REMARK    6  A    between atoms: C_27  and  C_31
REMARK    7  A    between atoms: C_31  and  C_33
REMARK    8  A    between atoms: C_34  and  C_35
REMARK                            x       y       z     vdW  Elec       q    Type
REMARK                         _______ _______ _______ _____ _____    ______ ____
ROOT
ATOM      1  O   UNL     1     111.399 128.886 137.349  0.00  0.00    +0.000 OA
ATOM      2  O   UNL     1     109.050 129.572 137.720  0.00  0.00    +0.000 OA
ATOM      3  O   UNL     1     109.884 128.803 138.918  0.00  0.00    +0.000 OA
ATOM      4  C   UNL     1     110.199 129.499 136.874  0.00  0.00    +0.000 C 
ATOM      5  C   UNL     1     109.832 129.343 137.597  0.00  0.00    +0.000 C 
ATOM      6  C   UNL     1     110.981 129.271 136.750  0.00  0.00    +0.000 C 
ATOM      7  C   UNL     1     110.250 128.959 138.196  0.00  0.00    +0.000 C 
ATOM      8  C   UNL     1     111.033 128.730 138.072  0.00  0.00    +0.000 C 
ATOM      9  C   UNL     1     111.348 129.427 136.027  0.00  0.00    +0.000 C 
ENDROOT
BRANCH   4  10
ATOM     10  O   UNL     1     109.782 129.884 136.275  0.00  0.00    +0.000 OA
BRANCH  10  15
ATOM     11  O   UNL     1     110.296 131.144 136.710  0.00  0.00    +0.000 OA
ATOM     12  O   UNL     1     108.734 130.659 135.263  0.00  0.00    +0.000 OA
ATOM     13  O   UNL     1     108.724 132.308 135.192  0.00  0.00    +0.000 OA
ATOM     14  O   UNL     1     109.761 133.180 136.132  0.00  0.00    +0.000 OA
ATOM     15  C   UNL     1     109.776 130.708 136.239  0.00  0.00    +0.000 C 
ATOM     16  C   UNL     1     109.253 131.095 135.733  0.00  0.00    +0.000 C 
ATOM     17  C   UNL     1     109.248 131.920 135.698  0.00  0.00    +0.000 C 
ATOM     18  C   UNL     1     109.766 132.356 136.168  0.00  0.00    +0.000 C 
ATOM     19  C   UNL     1     110.290 131.968 136.674  0.00  0.00    +0.000 C 
BRANCH  19  21
ATOM     20  O   UNL     1     110.654 132.499 137.949  0.00  0.00    +0.000 OA
ATOM     21  C   UNL     1     110.809 132.404 137.144  0.00  0.00    +0.000 C 
ENDBRANCH  19  21
ENDBRANCH  10  15
ENDBRANCH   4  10
BRANCH   8  22
ATOM     22  O   UNL     1     111.450 128.346 138.671  0.00  0.00    +0.000 OA
BRANCH  22  24
ATOM     23  O   UNL     1     112.966 130.650 139.415  0.00  0.00    +0.000 OA
ATOM     24  C   UNL     1     112.142 128.679 138.971  0.00  0.00    +0.000 A 
ATOM     25  C   UNL     1     112.769 128.193 139.199  0.00  0.00    +0.000 A 
ATOM     26  C   UNL     1     112.209 129.498 139.043  0.00  0.00    +0.000 A 
ATOM     27  C   UNL     1     113.462 128.527 139.499  0.00  0.00    +0.000 A 
ATOM     28  C   UNL     1     112.900 129.832 139.343  0.00  0.00    +0.000 A 
ATOM     29  C   UNL     1     113.527 129.346 139.571  0.00  0.00    +0.000 A 
BRANCH  25  31
ATOM     30  O   UNL     1     112.259 126.946 139.676  0.00  0.00    +0.000 OA
ATOM     31  C   UNL     1     112.704 127.374 139.127  0.00  0.00    +0.000 C 
BRANCH  31  32
ATOM     32  C   UNL     1     113.082 126.982 138.508  0.00  0.00    +0.000 C 
ATOM     33  C   UNL     1     113.138 126.160 138.513  0.00  0.00    +0.000 C 
BRANCH  33  35
ATOM     34  O   UNL     1     114.654 124.592 136.037  0.00  0.00    +0.000 OA
ATOM     35  C   UNL     1     113.517 125.768 137.894  0.00  0.00    +0.000 A 
ATOM     36  C   UNL     1     113.131 125.666 137.172  0.00  0.00    +0.000 A 
ATOM     37  C   UNL     1     114.283 125.477 137.997  0.00  0.00    +0.000 A 
ATOM     38  C   UNL     1     113.510 125.275 136.553  0.00  0.00    +0.000 A 
ATOM     39  C   UNL     1     114.662 125.085 137.378  0.00  0.00    +0.000 A 
ATOM     40  C   UNL     1     114.275 124.984 136.656  0.00  0.00    +0.000 A 
ENDBRANCH  33  35
ENDBRANCH  31  32
ENDBRANCH  25  31
ENDBRANCH  22  24
ENDBRANCH   8  22
TORSDOF 8
ENDMDL
MODEL 9
REMARK VINA RESULT:      -9.1      2.183      3.965
REMARK  Name = 42607523
REMARK  8 active torsions:
REMARK  status: ('A' for Active; 'I' for Inactive)
REMARK    1  A    between atoms: O_1  and  C_14
REMARK    2  A    between atoms: O_1  and  C_16
REMARK    3  A    between atoms: O_8  and  C_23
REMARK    4  A    between atoms: O_8  and  C_26
REMARK    5  A    between atoms: C_22  and  C_25
REMARK    6  A    between atoms: C_27  and  C_31
REMARK    7  A    between atoms: C_31  and  C_33
REMARK    8  A    between atoms: C_34  and  C_35
REMARK                            x       y       z     vdW  Elec       q    Type
REMARK                         _______ _______ _______ _____ _____    ______ ____
ROOT
ATOM      1  O   UNL     1     111.848 128.802 138.001  0.00  0.00    +0.000 OA
ATOM      2  O   UNL     1     112.060 130.863 139.354  0.00  0.00    +0.000 OA
ATOM      3  O   UNL     1     112.284 129.387 140.058  0.00  0.00    +0.000 OA
ATOM      4  C   UNL     1     111.807 130.226 138.100  0.00  0.00    +0.000 C 
ATOM      5  C   UNL     1     111.989 130.176 138.904  0.00  0.00    +0.000 C 
ATOM      6  C   UNL     1     111.736 129.540 137.650  0.00  0.00    +0.000 C 
ATOM      7  C   UNL     1     112.101 129.438 139.255  0.00  0.00    +0.000 C 
ATOM      8  C   UNL     1     112.030 128.751 138.804  0.00  0.00    +0.000 C 
ATOM      9  C   UNL     1     111.553 129.590 136.846  0.00  0.00    +0.000 C 
ENDROOT
BRANCH   4  10
ATOM     10  O   UNL     1     111.695 130.964 137.748  0.00  0.00    +0.000 OA
BRANCH  10  15
ATOM     11  O   UNL     1     110.317 130.948 138.127  0.00  0.00    +0.000 OA
ATOM     12  O   UNL     1     111.550 132.541 137.287  0.00  0.00    +0.000 OA
ATOM     13  O   UNL     1     110.100 133.315 137.435  0.00  0.00    +0.000 OA
ATOM     14  O   UNL     1     108.796 132.510 138.044  0.00  0.00    +0.000 OA
ATOM     15  C   UNL     1     110.970 131.351 137.822  0.00  0.00    +0.000 C 
ATOM     16  C   UNL     1     110.898 132.140 137.591  0.00  0.00    +0.000 C 
ATOM     17  C   UNL     1     110.173 132.526 137.666  0.00  0.00    +0.000 C 
ATOM     18  C   UNL     1     109.520 132.124 137.970  0.00  0.00    +0.000 C 
ATOM     19  C   UNL     1     109.593 131.336 138.201  0.00  0.00    +0.000 C 
BRANCH  19  21
ATOM     20  O   UNL     1     108.573 130.344 138.058  0.00  0.00    +0.000 OA
ATOM     21  C   UNL     1     108.940 130.933 138.506  0.00  0.00    +0.000 C 
ENDBRANCH  19  21
ENDBRANCH  10  15
ENDBRANCH   4  10
BRANCH   8  22
ATOM     22  O   UNL     1     112.142 128.013 139.156  0.00  0.00    +0.000 OA
BRANCH  22  24
ATOM     23  O   UNL     1     109.384 127.285 138.992  0.00  0.00    +0.000 OA
ATOM     24  C   UNL     1     111.559 127.434 139.093  0.00  0.00    +0.000 A 
ATOM     25  C   UNL     1     111.772 126.638 139.049  0.00  0.00    +0.000 A 
ATOM     26  C   UNL     1     110.763 127.649 139.074  0.00  0.00    +0.000 A 
ATOM     27  C   UNL     1     111.188 126.057 138.985  0.00  0.00    +0.000 A 
ATOM     28  C   UNL     1     110.180 127.070 139.011  0.00  0.00    +0.000 A 
ATOM     29  C   UNL     1     110.392 126.274 138.966  0.00  0.00    +0.000 A 
BRANCH  25  31
ATOM     30  O   UNL     1     112.982 126.436 139.781  0.00  0.00    +0.000 OA
ATOM     31  C   UNL     1     112.567 126.421 139.067  0.00  0.00    +0.000 C 
BRANCH  31  32
ATOM     32  C   UNL     1     112.949 126.189 138.374  0.00  0.00    +0.000 C 
ATOM     33  C   UNL     1     113.714 125.883 138.406  0.00  0.00    +0.000 C 
BRANCH  33  35
ATOM     34  O   UNL     1     115.239 124.955 135.631  0.00  0.00    +0.000 OA
ATOM     35  C   UNL     1     114.095 125.651 137.713  0.00  0.00    +0.000 A 
ATOM     36  C   UNL     1     114.130 126.165 137.069  0.00  0.00    +0.000 A 
ATOM     37  C   UNL     1     114.442 124.903 137.662  0.00  0.00    +0.000 A 
ATOM     38  C   UNL     1     114.512 125.933 136.375  0.00  0.00    +0.000 A 
ATOM     39  C   UNL     1     114.823 124.671 136.969  0.00  0.00    +0.000 A 
ATOM     40  C   UNL     1     114.858 125.187 136.325  0.00  0.00    +0.000 A 
ENDBRANCH  33  35
ENDBRANCH  31  32
ENDBRANCH  25  31
ENDBRANCH  22  24
ENDBRANCH   8  22
TORSDOF 8
ENDMDL
MODEL 10
REMARK VINA RESULT:      -9.1      3.184      5.439
REMARK  Name = 42607523
REMARK  8 active torsions:
REMARK  status: ('A' for Active; 'I' for Inactive)
REMARK    1  A    between atoms: O_1  and  C_14
REMARK    2  A    between atoms: O_1  and  C_16
REMARK    3  A    between atoms: O_8  and  C_23
REMARK    4  A    between atoms: O_8  and  C_26
REMARK    5  A    between atoms: C_22  and  C_25
REMARK    6  A    between atoms: C_27  and  C_31
REMARK    7  A    between atoms: C_31  and  C_33
REMARK    8  A    between atoms: C_34  and  C_35
REMARK                            x       y       z     vdW  Elec       q    Type
REMARK                         _______ _______ _______ _____ _____    ______ ____
ROOT
ATOM      1  O   UNL     1     110.607 127.624 136.832  0.00  0.00    +0.000 OA
ATOM      2  O   UNL     1     108.239 127.965 136.199  0.00  0.00    +0.000 OA
ATOM      3  O   UNL     1     108.659 126.700 137.172  0.00  0.00    +0.000 OA
ATOM      4  C   UNL     1     109.608 128.370 136.134  0.00  0.00    +0.000 C 
ATOM      5  C   UNL     1     109.028 127.851 136.410  0.00  0.00    +0.000 C 
ATOM      6  C   UNL     1     110.397 128.256 136.345  0.00  0.00    +0.000 C 
ATOM      7  C   UNL     1     109.238 127.219 136.896  0.00  0.00    +0.000 C 
ATOM      8  C   UNL     1     110.028 127.105 137.108  0.00  0.00    +0.000 C 
ATOM      9  C   UNL     1     110.977 128.774 136.070  0.00  0.00    +0.000 C 
ENDROOT
BRANCH   4  10
ATOM     10  O   UNL     1     109.398 129.002 135.648  0.00  0.00    +0.000 OA
BRANCH  10  15
ATOM     11  O   UNL     1     109.239 129.840 136.794  0.00  0.00    +0.000 OA
ATOM     12  O   UNL     1     108.774 130.192 134.690  0.00  0.00    +0.000 OA
ATOM     13  O   UNL     1     108.303 131.626 135.358  0.00  0.00    +0.000 OA
ATOM     14  O   UNL     1     108.455 131.868 136.982  0.00  0.00    +0.000 OA
ATOM     15  C   UNL     1     109.162 129.719 135.981  0.00  0.00    +0.000 C 
ATOM     16  C   UNL     1     108.850 130.314 135.502  0.00  0.00    +0.000 C 
ATOM     17  C   UNL     1     108.615 131.031 135.836  0.00  0.00    +0.000 C 
ATOM     18  C   UNL     1     108.691 131.152 136.648  0.00  0.00    +0.000 C 
ATOM     19  C   UNL     1     109.003 130.557 137.127  0.00  0.00    +0.000 C 
BRANCH  19  21
ATOM     20  O   UNL     1     108.587 130.273 138.464  0.00  0.00    +0.000 OA
ATOM     21  C   UNL     1     109.079 130.678 137.939  0.00  0.00    +0.000 C 
ENDBRANCH  19  21
ENDBRANCH  10  15
ENDBRANCH   4  10
BRANCH   8  22
ATOM     22  O   UNL     1     110.238 126.473 137.594  0.00  0.00    +0.000 OA
BRANCH  22  24
ATOM     23  O   UNL     1     111.194 124.837 135.456  0.00  0.00    +0.000 OA
ATOM     24  C   UNL     1     110.750 125.890 137.315  0.00  0.00    +0.000 A 
ATOM     25  C   UNL     1     111.296 125.542 137.825  0.00  0.00    +0.000 A 
ATOM     26  C   UNL     1     110.716 125.655 136.525  0.00  0.00    +0.000 A 
ATOM     27  C   UNL     1     111.809 124.958 137.546  0.00  0.00    +0.000 A 
ATOM     28  C   UNL     1     111.228 125.072 136.245  0.00  0.00    +0.000 A 
ATOM     29  C   UNL     1     111.774 124.724 136.756  0.00  0.00    +0.000 A 
BRANCH  25  31
ATOM     30  O   UNL     1     110.769 125.499 139.153  0.00  0.00    +0.000 OA
ATOM     31  C   UNL     1     111.331 125.776 138.615  0.00  0.00    +0.000 C 
BRANCH  31  32
ATOM     32  C   UNL     1     111.926 126.288 138.869  0.00  0.00    +0.000 C 
ATOM     33  C   UNL     1     112.038 126.423 139.674  0.00  0.00    +0.000 C 
BRANCH  33  35
ATOM     34  O   UNL     1     114.421 128.469 140.688  0.00  0.00    +0.000 OA
ATOM     35  C   UNL     1     112.634 126.934 139.928  0.00  0.00    +0.000 A 
ATOM     36  C   UNL     1     113.363 126.633 140.169  0.00  0.00    +0.000 A 
ATOM     37  C   UNL     1     112.501 127.749 139.940  0.00  0.00    +0.000 A 
ATOM     38  C   UNL     1     113.958 127.144 140.423  0.00  0.00    +0.000 A 
ATOM     39  C   UNL     1     113.096 128.261 140.193  0.00  0.00    +0.000 A 
ATOM     40  C   UNL     1     113.825 127.958 140.434  0.00  0.00    +0.000 A 
ENDBRANCH  33  35
ENDBRANCH  31  32
ENDBRANCH  25  31
ENDBRANCH  22  24
ENDBRANCH   8  22
TORSDOF 8
ENDMDL
