MODEL 1
REMARK VINA RESULT:      -7.7      0.000      0.000
REMARK  Name = 129848680
REMARK  7 active torsions:
REMARK  status: ('A' for Active; 'I' for Inactive)
REMARK    1  A    between atoms: O_2  and  C_12
REMARK    2  A    between atoms: O_3  and  C_13
REMARK    3  A    between atoms: O_4  and  C_15
REMARK    4  A    between atoms: O_5  and  C_17
REMARK    5  A    between atoms: O_7  and  C_21
REMARK    6  A    between atoms: O_8  and  C_22
REMARK    7  A    between atoms: C_11  and  C_16
REMARK                            x       y       z     vdW  Elec       q    Type
REMARK                         _______ _______ _______ _____ _____    ______ ____
ROOT
ATOM      1  O   UNL     1     104.474 124.115 146.798  0.00  0.00    +0.000 OA
ATOM      2  O   UNL     1     102.922 125.384 148.249  0.00  0.00    +0.000 OA
ATOM      3  C   UNL     1     103.144 124.408 147.230  0.00  0.00    +0.000 A 
ATOM      4  C   UNL     1     103.662 123.985 146.746  0.00  0.00    +0.000 A 
ATOM      5  C   UNL     1     104.770 124.669 147.335  0.00  0.00    +0.000 A 
ATOM      6  C   UNL     1     102.295 124.281 147.184  0.00  0.00    +0.000 A 
ATOM      7  C   UNL     1     104.252 125.092 147.818  0.00  0.00    +0.000 A 
ATOM      8  C   UNL     1     103.439 124.961 147.765  0.00  0.00    +0.000 A 
ATOM      9  C   UNL     1     103.366 123.406 146.184  0.00  0.00    +0.000 A 
ATOM     10  C   UNL     1     101.981 123.707 146.628  0.00  0.00    +0.000 A 
ATOM     11  C   UNL     1     102.520 123.266 146.124  0.00  0.00    +0.000 A 
ENDROOT
BRANCH   5  12
ATOM     12  C   UNL     1     105.583 124.799 147.387  0.00  0.00    +0.000 A 
ATOM     13  C   UNL     1     105.967 125.245 146.809  0.00  0.00    +0.000 A 
ATOM     14  C   UNL     1     106.011 124.481 148.017  0.00  0.00    +0.000 A 
ATOM     15  C   UNL     1     106.781 125.374 146.863  0.00  0.00    +0.000 A 
ATOM     16  C   UNL     1     107.209 125.058 147.492  0.00  0.00    +0.000 A 
ATOM     17  C   UNL     1     106.824 124.611 148.069  0.00  0.00    +0.000 A 
BRANCH  15  18
ATOM     18  O   UNL     1     107.166 125.821 146.285  0.00  0.00    +0.000 OA
ATOM     19  C   UNL     1     106.733 126.165 145.673  0.00  0.00    +0.000 C 
ENDBRANCH  15  18
BRANCH  16  20
ATOM     20  O   UNL     1     108.022 125.187 147.545  0.00  0.00    +0.000 OA
ATOM     21  C   UNL     1     108.458 124.831 148.147  0.00  0.00    +0.000 C 
ENDBRANCH  16  20
ENDBRANCH   5  12
BRANCH   6  22
ATOM     22  O   UNL     1     101.785 124.709 147.672  0.00  0.00    +0.000 OA
ATOM     23  C   UNL     1     101.454 124.350 148.337  0.00  0.00    +0.000 C 
ENDBRANCH   6  22
BRANCH   7  24
ATOM     24  O   UNL     1     104.548 125.645 148.354  0.00  0.00    +0.000 OA
ATOM     25  C   UNL     1     104.059 126.246 148.637  0.00  0.00    +0.000 C 
ENDBRANCH   7  24
BRANCH   9  26
ATOM     26  O   UNL     1     103.891 122.988 145.704  0.00  0.00    +0.000 OA
ATOM     27  C   UNL     1     103.660 122.752 144.948  0.00  0.00    +0.000 C 
ENDBRANCH   9  26
BRANCH  10  28
ATOM     28  O   UNL     1     101.168 123.578 146.578  0.00  0.00    +0.000 OA
ATOM     29  C   UNL     1     100.838 123.288 145.880  0.00  0.00    +0.000 C 
ENDBRANCH  10  28
TORSDOF 7
ENDMDL
MODEL 2
REMARK VINA RESULT:      -7.5     12.854     14.399
REMARK  Name = 129848680
REMARK  7 active torsions:
REMARK  status: ('A' for Active; 'I' for Inactive)
REMARK    1  A    between atoms: O_2  and  C_12
REMARK    2  A    between atoms: O_3  and  C_13
REMARK    3  A    between atoms: O_4  and  C_15
REMARK    4  A    between atoms: O_5  and  C_17
REMARK    5  A    between atoms: O_7  and  C_21
REMARK    6  A    between atoms: O_8  and  C_22
REMARK    7  A    between atoms: C_11  and  C_16
REMARK                            x       y       z     vdW  Elec       q    Type
REMARK                         _______ _______ _______ _____ _____    ______ ____
ROOT
ATOM      1  O   UNL     1     113.431 127.333 136.372  0.00  0.00    +0.000 OA
ATOM      2  O   UNL     1     111.066 127.341 135.643  0.00  0.00    +0.000 OA
ATOM      3  C   UNL     1     112.194 126.644 136.173  0.00  0.00    +0.000 A 
ATOM      4  C   UNL     1     112.983 126.641 136.416  0.00  0.00    +0.000 A 
ATOM      5  C   UNL     1     113.090 128.028 136.085  0.00  0.00    +0.000 A 
ATOM      6  C   UNL     1     111.718 125.930 136.213  0.00  0.00    +0.000 A 
ATOM      7  C   UNL     1     112.301 128.030 135.842  0.00  0.00    +0.000 A 
ATOM      8  C   UNL     1     111.854 127.338 135.886  0.00  0.00    +0.000 A 
ATOM      9  C   UNL     1     113.349 125.924 136.717  0.00  0.00    +0.000 A 
ATOM     10  C   UNL     1     112.067 125.204 136.511  0.00  0.00    +0.000 A 
ATOM     11  C   UNL     1     112.888 125.201 136.765  0.00  0.00    +0.000 A 
ENDROOT
BRANCH   5  12
ATOM     12  C   UNL     1     113.538 128.719 136.042  0.00  0.00    +0.000 A 
ATOM     13  C   UNL     1     113.583 129.224 136.693  0.00  0.00    +0.000 A 
ATOM     14  C   UNL     1     113.942 128.905 135.346  0.00  0.00    +0.000 A 
ATOM     15  C   UNL     1     114.031 129.915 136.648  0.00  0.00    +0.000 A 
ATOM     16  C   UNL     1     114.435 130.101 135.953  0.00  0.00    +0.000 A 
ATOM     17  C   UNL     1     114.390 129.596 135.303  0.00  0.00    +0.000 A 
BRANCH  15  18
ATOM     18  O   UNL     1     114.076 130.420 137.299  0.00  0.00    +0.000 OA
ATOM     19  C   UNL     1     113.814 130.165 138.038  0.00  0.00    +0.000 C 
ENDBRANCH  15  18
BRANCH  16  20
ATOM     20  O   UNL     1     114.883 130.792 135.909  0.00  0.00    +0.000 OA
ATOM     21  C   UNL     1     115.301 130.970 135.220  0.00  0.00    +0.000 C 
ENDBRANCH  16  20
ENDBRANCH   5  12
BRANCH   6  22
ATOM     22  O   UNL     1     110.930 125.943 135.968  0.00  0.00    +0.000 OA
ATOM     23  C   UNL     1     110.729 125.676 135.213  0.00  0.00    +0.000 C 
ENDBRANCH   6  22
BRANCH   7  24
ATOM     24  O   UNL     1     111.961 128.724 135.555  0.00  0.00    +0.000 OA
ATOM     25  C   UNL     1     111.167 128.888 135.708  0.00  0.00    +0.000 C 
ENDBRANCH   7  24
BRANCH   9  26
ATOM     26  O   UNL     1     114.138 125.931 136.958  0.00  0.00    +0.000 OA
ATOM     27  C   UNL     1     114.530 125.220 137.107  0.00  0.00    +0.000 C 
ENDBRANCH   9  26
BRANCH  10  28
ATOM     28  O   UNL     1     111.617 124.514 136.554  0.00  0.00    +0.000 OA
ATOM     29  C   UNL     1     111.842 123.905 137.062  0.00  0.00    +0.000 C 
ENDBRANCH  10  28
TORSDOF 7
ENDMDL
MODEL 3
REMARK VINA RESULT:      -7.1      1.089      2.659
REMARK  Name = 129848680
REMARK  7 active torsions:
REMARK  status: ('A' for Active; 'I' for Inactive)
REMARK    1  A    between atoms: O_2  and  C_12
REMARK    2  A    between atoms: O_3  and  C_13
REMARK    3  A    between atoms: O_4  and  C_15
REMARK    4  A    between atoms: O_5  and  C_17
REMARK    5  A    between atoms: O_7  and  C_21
REMARK    6  A    between atoms: O_8  and  C_22
REMARK    7  A    between atoms: C_11  and  C_16
REMARK                            x       y       z     vdW  Elec       q    Type
REMARK                         _______ _______ _______ _____ _____    ______ ____
ROOT
ATOM      1  O   UNL     1     104.030 124.824 147.412  0.00  0.00    +0.000 OA
ATOM      2  O   UNL     1     102.943 123.065 146.052  0.00  0.00    +0.000 OA
ATOM      3  C   UNL     1     103.049 123.795 147.276  0.00  0.00    +0.000 A 
ATOM      4  C   UNL     1     103.411 124.381 147.729  0.00  0.00    +0.000 A 
ATOM      5  C   UNL     1     104.287 124.681 146.641  0.00  0.00    +0.000 A 
ATOM      6  C   UNL     1     102.402 123.326 147.595  0.00  0.00    +0.000 A 
ATOM      7  C   UNL     1     103.925 124.094 146.188  0.00  0.00    +0.000 A 
ATOM      8  C   UNL     1     103.306 123.652 146.506  0.00  0.00    +0.000 A 
ATOM      9  C   UNL     1     103.152 124.540 148.533  0.00  0.00    +0.000 A 
ATOM     10  C   UNL     1     102.130 123.471 148.397  0.00  0.00    +0.000 A 
ATOM     11  C   UNL     1     102.507 124.082 148.869  0.00  0.00    +0.000 A 
ENDROOT
BRANCH   5  12
ATOM     12  C   UNL     1     104.907 125.124 146.324  0.00  0.00    +0.000 A 
ATOM     13  C   UNL     1     105.686 124.951 146.532  0.00  0.00    +0.000 A 
ATOM     14  C   UNL     1     104.746 125.741 145.800  0.00  0.00    +0.000 A 
ATOM     15  C   UNL     1     106.305 125.396 146.214  0.00  0.00    +0.000 A 
ATOM     16  C   UNL     1     106.145 126.011 145.690  0.00  0.00    +0.000 A 
ATOM     17  C   UNL     1     105.365 126.184 145.483  0.00  0.00    +0.000 A 
BRANCH  15  18
ATOM     18  O   UNL     1     107.085 125.223 146.422  0.00  0.00    +0.000 OA
ATOM     19  C   UNL     1     107.275 125.052 147.206  0.00  0.00    +0.000 C 
ENDBRANCH  15  18
BRANCH  16  20
ATOM     20  O   UNL     1     106.764 126.456 145.373  0.00  0.00    +0.000 OA
ATOM     21  C   UNL     1     106.605 127.057 144.832  0.00  0.00    +0.000 C 
ENDBRANCH  16  20
ENDBRANCH   5  12
BRANCH   6  22
ATOM     22  O   UNL     1     102.046 122.742 147.134  0.00  0.00    +0.000 OA
ATOM     23  C   UNL     1     101.352 122.910 146.720  0.00  0.00    +0.000 C 
ENDBRANCH   6  22
BRANCH   7  24
ATOM     24  O   UNL     1     104.182 123.951 145.418  0.00  0.00    +0.000 OA
ATOM     25  C   UNL     1     104.079 123.205 145.080  0.00  0.00    +0.000 C 
ENDBRANCH   7  24
BRANCH   9  26
ATOM     26  O   UNL     1     103.520 125.128 148.979  0.00  0.00    +0.000 OA
ATOM     27  C   UNL     1     103.120 125.479 149.610  0.00  0.00    +0.000 C 
ENDBRANCH   9  26
BRANCH  10  28
ATOM     28  O   UNL     1     101.511 123.027 148.712  0.00  0.00    +0.000 OA
ATOM     29  C   UNL     1     101.487 122.864 149.520  0.00  0.00    +0.000 C 
ENDBRANCH  10  28
TORSDOF 7
ENDMDL
MODEL 4
REMARK VINA RESULT:      -7.1     11.480     13.829
REMARK  Name = 129848680
REMARK  7 active torsions:
REMARK  status: ('A' for Active; 'I' for Inactive)
REMARK    1  A    between atoms: O_2  and  C_12
REMARK    2  A    between atoms: O_3  and  C_13
REMARK    3  A    between atoms: O_4  and  C_15
REMARK    4  A    between atoms: O_5  and  C_17
REMARK    5  A    between atoms: O_7  and  C_21
REMARK    6  A    between atoms: O_8  and  C_22
REMARK    7  A    between atoms: C_11  and  C_16
REMARK                            x       y       z     vdW  Elec       q    Type
REMARK                         _______ _______ _______ _____ _____    ______ ____
ROOT
ATOM      1  O   UNL     1     112.893 127.486 136.635  0.00  0.00    +0.000 OA
ATOM      2  O   UNL     1     111.914 128.496 138.671  0.00  0.00    +0.000 OA
ATOM      3  C   UNL     1     112.724 128.611 137.501  0.00  0.00    +0.000 A 
ATOM      4  C   UNL     1     113.051 128.274 136.822  0.00  0.00    +0.000 A 
ATOM      5  C   UNL     1     112.408 127.035 137.127  0.00  0.00    +0.000 A 
ATOM      6  C   UNL     1     112.882 129.431 137.706  0.00  0.00    +0.000 A 
ATOM      7  C   UNL     1     112.082 127.371 137.806  0.00  0.00    +0.000 A 
ATOM      8  C   UNL     1     112.240 128.160 137.992  0.00  0.00    +0.000 A 
ATOM      9  C   UNL     1     113.557 128.734 136.301  0.00  0.00    +0.000 A 
ATOM     10  C   UNL     1     113.386 129.905 137.197  0.00  0.00    +0.000 A 
ATOM     11  C   UNL     1     113.725 129.555 136.490  0.00  0.00    +0.000 A 
ENDROOT
BRANCH   5  12
ATOM     12  C   UNL     1     112.250 126.247 136.940  0.00  0.00    +0.000 A 
ATOM     13  C   UNL     1     111.658 126.062 136.397  0.00  0.00    +0.000 A 
ATOM     14  C   UNL     1     112.686 125.643 137.297  0.00  0.00    +0.000 A 
ATOM     15  C   UNL     1     111.501 125.274 136.211  0.00  0.00    +0.000 A 
ATOM     16  C   UNL     1     111.936 124.671 136.567  0.00  0.00    +0.000 A 
ATOM     17  C   UNL     1     112.528 124.856 137.110  0.00  0.00    +0.000 A 
BRANCH  15  18
ATOM     18  O   UNL     1     110.908 125.089 135.667  0.00  0.00    +0.000 OA
ATOM     19  C   UNL     1     110.575 125.683 135.201  0.00  0.00    +0.000 C 
ENDBRANCH  15  18
BRANCH  16  20
ATOM     20  O   UNL     1     111.779 123.883 136.380  0.00  0.00    +0.000 OA
ATOM     21  C   UNL     1     112.109 123.278 136.833  0.00  0.00    +0.000 C 
ENDBRANCH  16  20
ENDBRANCH   5  12
BRANCH   6  22
ATOM     22  O   UNL     1     112.551 129.759 138.387  0.00  0.00    +0.000 OA
ATOM     23  C   UNL     1     112.988 129.783 139.087  0.00  0.00    +0.000 C 
ENDBRANCH   6  22
BRANCH   7  24
ATOM     24  O   UNL     1     111.598 126.920 138.298  0.00  0.00    +0.000 OA
ATOM     25  C   UNL     1     110.951 127.270 138.673  0.00  0.00    +0.000 C 
ENDBRANCH   7  24
BRANCH   9  26
ATOM     26  O   UNL     1     113.879 128.389 135.624  0.00  0.00    +0.000 OA
ATOM     27  C   UNL     1     114.518 128.746 135.243  0.00  0.00    +0.000 C 
ENDBRANCH   9  26
BRANCH  10  28
ATOM     28  O   UNL     1     113.542 130.693 137.386  0.00  0.00    +0.000 OA
ATOM     29  C   UNL     1     113.663 131.246 136.786  0.00  0.00    +0.000 C 
ENDBRANCH  10  28
TORSDOF 7
ENDMDL
MODEL 5
REMARK VINA RESULT:      -7.0      2.372      4.426
REMARK  Name = 129848680
REMARK  7 active torsions:
REMARK  status: ('A' for Active; 'I' for Inactive)
REMARK    1  A    between atoms: O_2  and  C_12
REMARK    2  A    between atoms: O_3  and  C_13
REMARK    3  A    between atoms: O_4  and  C_15
REMARK    4  A    between atoms: O_5  and  C_17
REMARK    5  A    between atoms: O_7  and  C_21
REMARK    6  A    between atoms: O_8  and  C_22
REMARK    7  A    between atoms: C_11  and  C_16
REMARK                            x       y       z     vdW  Elec       q    Type
REMARK                         _______ _______ _______ _____ _____    ______ ____
ROOT
ATOM      1  O   UNL     1     106.698 126.406 145.791  0.00  0.00    +0.000 OA
ATOM      2  O   UNL     1     105.403 124.780 144.448  0.00  0.00    +0.000 OA
ATOM      3  C   UNL     1     106.098 126.024 144.552  0.00  0.00    +0.000 A 
ATOM      4  C   UNL     1     106.530 126.566 145.000  0.00  0.00    +0.000 A 
ATOM      5  C   UNL     1     106.434 125.703 146.135  0.00  0.00    +0.000 A 
ATOM      6  C   UNL     1     105.917 126.179 143.726  0.00  0.00    +0.000 A 
ATOM      7  C   UNL     1     106.002 125.162 145.687  0.00  0.00    +0.000 A 
ATOM      8  C   UNL     1     105.834 125.322 144.895  0.00  0.00    +0.000 A 
ATOM      9  C   UNL     1     106.810 127.301 144.653  0.00  0.00    +0.000 A 
ATOM     10  C   UNL     1     106.189 126.908 143.362  0.00  0.00    +0.000 A 
ATOM     11  C   UNL     1     106.638 127.473 143.829  0.00  0.00    +0.000 A 
ENDROOT
BRANCH   5  12
ATOM     12  C   UNL     1     106.602 125.544 146.927  0.00  0.00    +0.000 A 
ATOM     13  C   UNL     1     106.120 125.851 147.522  0.00  0.00    +0.000 A 
ATOM     14  C   UNL     1     107.253 125.076 147.124  0.00  0.00    +0.000 A 
ATOM     15  C   UNL     1     106.289 125.691 148.313  0.00  0.00    +0.000 A 
ATOM     16  C   UNL     1     106.939 125.224 148.510  0.00  0.00    +0.000 A 
ATOM     17  C   UNL     1     107.421 124.917 147.915  0.00  0.00    +0.000 A 
BRANCH  15  18
ATOM     18  O   UNL     1     105.807 125.999 148.908  0.00  0.00    +0.000 OA
ATOM     19  C   UNL     1     105.348 126.668 148.763  0.00  0.00    +0.000 C 
ENDBRANCH  15  18
BRANCH  16  20
ATOM     20  O   UNL     1     107.108 125.064 149.302  0.00  0.00    +0.000 OA
ATOM     21  C   UNL     1     107.696 124.520 149.496  0.00  0.00    +0.000 C 
ENDBRANCH  16  20
ENDBRANCH   5  12
BRANCH   6  22
ATOM     22  O   UNL     1     105.485 125.631 143.286  0.00  0.00    +0.000 OA
ATOM     23  C   UNL     1     105.878 125.071 142.825  0.00  0.00    +0.000 C 
ENDBRANCH   6  22
BRANCH   7  24
ATOM     24  O   UNL     1     105.738 124.460 146.031  0.00  0.00    +0.000 OA
ATOM     25  C   UNL     1     104.981 124.179 145.865  0.00  0.00    +0.000 C 
ENDBRANCH   7  24
BRANCH   9  26
ATOM     26  O   UNL     1     107.241 127.836 145.109  0.00  0.00    +0.000 OA
ATOM     27  C   UNL     1     107.442 128.574 144.798  0.00  0.00    +0.000 C 
ENDBRANCH   9  26
BRANCH  10  28
ATOM     28  O   UNL     1     106.020 127.066 142.571  0.00  0.00    +0.000 OA
ATOM     29  C   UNL     1     105.916 127.844 142.317  0.00  0.00    +0.000 C 
ENDBRANCH  10  28
TORSDOF 7
ENDMDL
MODEL 6
REMARK VINA RESULT:      -6.9     12.702     14.542
REMARK  Name = 129848680
REMARK  7 active torsions:
REMARK  status: ('A' for Active; 'I' for Inactive)
REMARK    1  A    between atoms: O_2  and  C_12
REMARK    2  A    between atoms: O_3  and  C_13
REMARK    3  A    between atoms: O_4  and  C_15
REMARK    4  A    between atoms: O_5  and  C_17
REMARK    5  A    between atoms: O_7  and  C_21
REMARK    6  A    between atoms: O_8  and  C_22
REMARK    7  A    between atoms: C_11  and  C_16
REMARK                            x       y       z     vdW  Elec       q    Type
REMARK                         _______ _______ _______ _____ _____    ______ ____
ROOT
ATOM      1  O   UNL     1     111.988 128.987 135.546  0.00  0.00    +0.000 OA
ATOM      2  O   UNL     1     112.271 126.614 136.188  0.00  0.00    +0.000 OA
ATOM      3  C   UNL     1     111.431 127.689 135.765  0.00  0.00    +0.000 A 
ATOM      4  C   UNL     1     111.337 128.481 135.551  0.00  0.00    +0.000 A 
ATOM      5  C   UNL     1     112.734 128.702 135.755  0.00  0.00    +0.000 A 
ATOM      6  C   UNL     1     110.760 127.152 135.775  0.00  0.00    +0.000 A 
ATOM      7  C   UNL     1     112.828 127.911 135.969  0.00  0.00    +0.000 A 
ATOM      8  C   UNL     1     112.176 127.405 135.974  0.00  0.00    +0.000 A 
ATOM      9  C   UNL     1     110.565 128.789 135.332  0.00  0.00    +0.000 A 
ATOM     10  C   UNL     1     109.981 127.443 135.558  0.00  0.00    +0.000 A 
ATOM     11  C   UNL     1     109.883 128.267 135.336  0.00  0.00    +0.000 A 
ENDROOT
BRANCH   5  12
ATOM     12  C   UNL     1     113.385 129.209 135.750  0.00  0.00    +0.000 A 
ATOM     13  C   UNL     1     113.546 129.681 136.407  0.00  0.00    +0.000 A 
ATOM     14  C   UNL     1     113.874 129.244 135.086  0.00  0.00    +0.000 A 
ATOM     15  C   UNL     1     114.198 130.187 136.400  0.00  0.00    +0.000 A 
ATOM     16  C   UNL     1     114.687 130.222 135.738  0.00  0.00    +0.000 A 
ATOM     17  C   UNL     1     114.525 129.751 135.080  0.00  0.00    +0.000 A 
BRANCH  15  18
ATOM     18  O   UNL     1     114.360 130.659 137.058  0.00  0.00    +0.000 OA
ATOM     19  C   UNL     1     113.801 130.734 137.660  0.00  0.00    +0.000 C 
ENDBRANCH  15  18
BRANCH  16  20
ATOM     20  O   UNL     1     115.338 130.729 135.731  0.00  0.00    +0.000 OA
ATOM     21  C   UNL     1     115.710 130.914 135.019  0.00  0.00    +0.000 C 
ENDBRANCH  16  20
ENDBRANCH   5  12
BRANCH   6  22
ATOM     22  O   UNL     1     110.864 126.362 135.990  0.00  0.00    +0.000 OA
ATOM     23  C   UNL     1     110.947 125.784 135.407  0.00  0.00    +0.000 C 
ENDBRANCH   6  22
BRANCH   7  24
ATOM     24  O   UNL     1     113.573 127.627 136.178  0.00  0.00    +0.000 OA
ATOM     25  C   UNL     1     113.642 127.015 136.727  0.00  0.00    +0.000 C 
ENDBRANCH   7  24
BRANCH   9  26
ATOM     26  O   UNL     1     110.480 129.582 135.119  0.00  0.00    +0.000 OA
ATOM     27  C   UNL     1     109.832 129.821 134.668  0.00  0.00    +0.000 C 
ENDBRANCH   9  26
BRANCH  10  28
ATOM     28  O   UNL     1     109.332 126.934 135.564  0.00  0.00    +0.000 OA
ATOM     29  C   UNL     1     108.599 127.203 135.831  0.00  0.00    +0.000 C 
ENDBRANCH  10  28
TORSDOF 7
ENDMDL
MODEL 7
REMARK VINA RESULT:      -6.8     12.584     13.702
REMARK  Name = 129848680
REMARK  7 active torsions:
REMARK  status: ('A' for Active; 'I' for Inactive)
REMARK    1  A    between atoms: O_2  and  C_12
REMARK    2  A    between atoms: O_3  and  C_13
REMARK    3  A    between atoms: O_4  and  C_15
REMARK    4  A    between atoms: O_5  and  C_17
REMARK    5  A    between atoms: O_7  and  C_21
REMARK    6  A    between atoms: O_8  and  C_22
REMARK    7  A    between atoms: C_11  and  C_16
REMARK                            x       y       z     vdW  Elec       q    Type
REMARK                         _______ _______ _______ _____ _____    ______ ____
ROOT
ATOM      1  O   UNL     1     111.967 127.032 137.031  0.00  0.00    +0.000 OA
ATOM      2  O   UNL     1     110.813 127.663 134.934  0.00  0.00    +0.000 OA
ATOM      3  C   UNL     1     111.393 128.032 136.186  0.00  0.00    +0.000 A 
ATOM      4  C   UNL     1     111.778 127.822 136.885  0.00  0.00    +0.000 A 
ATOM      5  C   UNL     1     111.770 126.452 136.477  0.00  0.00    +0.000 A 
ATOM      6  C   UNL     1     111.192 128.852 136.023  0.00  0.00    +0.000 A 
ATOM      7  C   UNL     1     111.386 126.663 135.778  0.00  0.00    +0.000 A 
ATOM      8  C   UNL     1     111.198 127.453 135.633  0.00  0.00    +0.000 A 
ATOM      9  C   UNL     1     111.987 128.417 137.469  0.00  0.00    +0.000 A 
ATOM     10  C   UNL     1     111.393 129.460 136.596  0.00  0.00    +0.000 A 
ATOM     11  C   UNL     1     111.794 129.241 137.323  0.00  0.00    +0.000 A 
ENDROOT
BRANCH   5  12
ATOM     12  C   UNL     1     111.959 125.663 136.623  0.00  0.00    +0.000 A 
ATOM     13  C   UNL     1     112.706 125.373 136.425  0.00  0.00    +0.000 A 
ATOM     14  C   UNL     1     111.400 125.162 136.967  0.00  0.00    +0.000 A 
ATOM     15  C   UNL     1     112.893 124.583 136.571  0.00  0.00    +0.000 A 
ATOM     16  C   UNL     1     112.335 124.083 136.915  0.00  0.00    +0.000 A 
ATOM     17  C   UNL     1     111.589 124.373 137.113  0.00  0.00    +0.000 A 
BRANCH  15  18
ATOM     18  O   UNL     1     113.640 124.293 136.373  0.00  0.00    +0.000 OA
ATOM     19  C   UNL     1     114.291 124.800 136.366  0.00  0.00    +0.000 C 
ENDBRANCH  15  18
BRANCH  16  20
ATOM     20  O   UNL     1     112.523 123.293 137.062  0.00  0.00    +0.000 OA
ATOM     21  C   UNL     1     111.946 122.777 137.346  0.00  0.00    +0.000 C 
ENDBRANCH  16  20
ENDBRANCH   5  12
BRANCH   6  22
ATOM     22  O   UNL     1     110.807 129.053 135.321  0.00  0.00    +0.000 OA
ATOM     23  C   UNL     1     111.245 129.311 134.671  0.00  0.00    +0.000 C 
ENDBRANCH   6  22
BRANCH   7  24
ATOM     24  O   UNL     1     111.190 126.084 135.225  0.00  0.00    +0.000 OA
ATOM     25  C   UNL     1     110.510 126.165 134.766  0.00  0.00    +0.000 C 
ENDBRANCH   7  24
BRANCH   9  26
ATOM     26  O   UNL     1     112.372 128.197 138.165  0.00  0.00    +0.000 OA
ATOM     27  C   UNL     1     112.836 128.746 138.572  0.00  0.00    +0.000 C 
ENDBRANCH   9  26
BRANCH  10  28
ATOM     28  O   UNL     1     111.204 130.249 136.448  0.00  0.00    +0.000 OA
ATOM     29  C   UNL     1     111.034 130.757 137.074  0.00  0.00    +0.000 C 
ENDBRANCH  10  28
TORSDOF 7
ENDMDL
MODEL 8
REMARK VINA RESULT:      -6.8     12.149     13.228
REMARK  Name = 129848680
REMARK  7 active torsions:
REMARK  status: ('A' for Active; 'I' for Inactive)
REMARK    1  A    between atoms: O_2  and  C_12
REMARK    2  A    between atoms: O_3  and  C_13
REMARK    3  A    between atoms: O_4  and  C_15
REMARK    4  A    between atoms: O_5  and  C_17
REMARK    5  A    between atoms: O_7  and  C_21
REMARK    6  A    between atoms: O_8  and  C_22
REMARK    7  A    between atoms: C_11  and  C_16
REMARK                            x       y       z     vdW  Elec       q    Type
REMARK                         _______ _______ _______ _____ _____    ______ ____
ROOT
ATOM      1  O   UNL     1     113.301 126.910 138.945  0.00  0.00    +0.000 OA
ATOM      2  O   UNL     1     112.515 128.893 137.691  0.00  0.00    +0.000 OA
ATOM      3  C   UNL     1     113.109 128.323 138.858  0.00  0.00    +0.000 A 
ATOM      4  C   UNL     1     113.371 127.662 139.276  0.00  0.00    +0.000 A 
ATOM      5  C   UNL     1     112.969 126.819 138.195  0.00  0.00    +0.000 A 
ATOM      6  C   UNL     1     113.176 129.112 139.193  0.00  0.00    +0.000 A 
ATOM      7  C   UNL     1     112.707 127.480 137.776  0.00  0.00    +0.000 A 
ATOM      8  C   UNL     1     112.777 128.232 138.109  0.00  0.00    +0.000 A 
ATOM      9  C   UNL     1     113.718 127.744 140.058  0.00  0.00    +0.000 A 
ATOM     10  C   UNL     1     113.520 129.213 139.973  0.00  0.00    +0.000 A 
ATOM     11  C   UNL     1     113.793 128.525 140.409  0.00  0.00    +0.000 A 
ENDROOT
BRANCH   5  12
ATOM     12  C   UNL     1     112.900 126.067 137.863  0.00  0.00    +0.000 A 
ATOM     13  C   UNL     1     113.546 125.721 137.484  0.00  0.00    +0.000 A 
ATOM     14  C   UNL     1     112.183 125.659 137.913  0.00  0.00    +0.000 A 
ATOM     15  C   UNL     1     113.475 124.969 137.153  0.00  0.00    +0.000 A 
ATOM     16  C   UNL     1     112.760 124.562 137.202  0.00  0.00    +0.000 A 
ATOM     17  C   UNL     1     112.114 124.907 137.581  0.00  0.00    +0.000 A 
BRANCH  15  18
ATOM     18  O   UNL     1     114.121 124.623 136.773  0.00  0.00    +0.000 OA
ATOM     19  C   UNL     1     114.877 124.935 136.879  0.00  0.00    +0.000 C 
ENDBRANCH  15  18
BRANCH  16  20
ATOM     20  O   UNL     1     112.689 123.809 136.871  0.00  0.00    +0.000 OA
ATOM     21  C   UNL     1     111.967 123.412 136.899  0.00  0.00    +0.000 C 
ENDBRANCH  16  20
ENDBRANCH   5  12
BRANCH   6  22
ATOM     22  O   UNL     1     112.911 129.767 138.767  0.00  0.00    +0.000 OA
ATOM     23  C   UNL     1     112.155 130.068 138.902  0.00  0.00    +0.000 C 
ENDBRANCH   6  22
BRANCH   7  24
ATOM     24  O   UNL     1     112.376 127.389 137.027  0.00  0.00    +0.000 OA
ATOM     25  C   UNL     1     112.518 127.953 136.442  0.00  0.00    +0.000 C 
ENDBRANCH   7  24
BRANCH   9  26
ATOM     26  O   UNL     1     113.977 127.077 140.469  0.00  0.00    +0.000 OA
ATOM     27  C   UNL     1     114.595 127.142 141.013  0.00  0.00    +0.000 C 
ENDBRANCH   9  26
BRANCH  10  28
ATOM     28  O   UNL     1     113.589 129.966 140.303  0.00  0.00    +0.000 OA
ATOM     29  C   UNL     1     114.149 130.111 140.891  0.00  0.00    +0.000 C 
ENDBRANCH  10  28
TORSDOF 7
ENDMDL
MODEL 9
REMARK VINA RESULT:      -6.8     12.258     13.634
REMARK  Name = 129848680
REMARK  7 active torsions:
REMARK  status: ('A' for Active; 'I' for Inactive)
REMARK    1  A    between atoms: O_2  and  C_12
REMARK    2  A    between atoms: O_3  and  C_13
REMARK    3  A    between atoms: O_4  and  C_15
REMARK    4  A    between atoms: O_5  and  C_17
REMARK    5  A    between atoms: O_7  and  C_21
REMARK    6  A    between atoms: O_8  and  C_22
REMARK    7  A    between atoms: C_11  and  C_16
REMARK                            x       y       z     vdW  Elec       q    Type
REMARK                         _______ _______ _______ _____ _____    ______ ____
ROOT
ATOM      1  O   UNL     1     112.100 127.750 136.311  0.00  0.00    +0.000 OA
ATOM      2  O   UNL     1     110.005 126.605 135.659  0.00  0.00    +0.000 OA
ATOM      3  C   UNL     1     110.779 127.800 135.768  0.00  0.00    +0.000 A 
ATOM      4  C   UNL     1     111.478 128.182 135.985  0.00  0.00    +0.000 A 
ATOM      5  C   UNL     1     112.024 126.935 136.419  0.00  0.00    +0.000 A 
ATOM      6  C   UNL     1     110.124 128.240 135.427  0.00  0.00    +0.000 A 
ATOM      7  C   UNL     1     111.325 126.553 136.202  0.00  0.00    +0.000 A 
ATOM      8  C   UNL     1     110.703 126.987 135.876  0.00  0.00    +0.000 A 
ATOM      9  C   UNL     1     111.569 129.030 135.877  0.00  0.00    +0.000 A 
ATOM     10  C   UNL     1     110.198 129.088 135.312  0.00  0.00    +0.000 A 
ATOM     11  C   UNL     1     110.925 129.485 135.538  0.00  0.00    +0.000 A 
ENDROOT
BRANCH   5  12
ATOM     12  C   UNL     1     112.646 126.502 136.745  0.00  0.00    +0.000 A 
ATOM     13  C   UNL     1     112.716 126.433 137.564  0.00  0.00    +0.000 A 
ATOM     14  C   UNL     1     113.199 126.140 136.251  0.00  0.00    +0.000 A 
ATOM     15  C   UNL     1     113.339 126.000 137.889  0.00  0.00    +0.000 A 
ATOM     16  C   UNL     1     113.892 125.638 137.396  0.00  0.00    +0.000 A 
ATOM     17  C   UNL     1     113.822 125.708 136.577  0.00  0.00    +0.000 A 
BRANCH  15  18
ATOM     18  O   UNL     1     113.409 125.930 138.708  0.00  0.00    +0.000 OA
ATOM     19  C   UNL     1     113.069 126.496 139.202  0.00  0.00    +0.000 C 
ENDBRANCH  15  18
BRANCH  16  20
ATOM     20  O   UNL     1     114.515 125.205 137.721  0.00  0.00    +0.000 OA
ATOM     21  C   UNL     1     114.948 124.687 137.248  0.00  0.00    +0.000 C 
ENDBRANCH  16  20
ENDBRANCH   5  12
BRANCH   6  22
ATOM     22  O   UNL     1     109.429 127.850 135.213  0.00  0.00    +0.000 OA
ATOM     23  C   UNL     1     108.796 127.817 135.740  0.00  0.00    +0.000 C 
ENDBRANCH   6  22
BRANCH   7  24
ATOM     24  O   UNL     1     111.249 125.739 136.310  0.00  0.00    +0.000 OA
ATOM     25  C   UNL     1     110.820 125.290 135.768  0.00  0.00    +0.000 C 
ENDBRANCH   7  24
BRANCH   9  26
ATOM     26  O   UNL     1     112.271 129.402 136.097  0.00  0.00    +0.000 OA
ATOM     27  C   UNL     1     112.265 130.199 136.315  0.00  0.00    +0.000 C 
ENDBRANCH   9  26
BRANCH  10  28
ATOM     28  O   UNL     1     109.574 129.519 134.985  0.00  0.00    +0.000 OA
ATOM     29  C   UNL     1     109.720 130.239 134.612  0.00  0.00    +0.000 C 
ENDBRANCH  10  28
TORSDOF 7
ENDMDL
MODEL 10
REMARK VINA RESULT:      -6.8     10.020     12.473
REMARK  Name = 129848680
REMARK  7 active torsions:
REMARK  status: ('A' for Active; 'I' for Inactive)
REMARK    1  A    between atoms: O_2  and  C_12
REMARK    2  A    between atoms: O_3  and  C_13
REMARK    3  A    between atoms: O_4  and  C_15
REMARK    4  A    between atoms: O_5  and  C_17
REMARK    5  A    between atoms: O_7  and  C_21
REMARK    6  A    between atoms: O_8  and  C_22
REMARK    7  A    between atoms: C_11  and  C_16
REMARK                            x       y       z     vdW  Elec       q    Type
REMARK                         _______ _______ _______ _____ _____    ______ ____
ROOT
ATOM      1  O   UNL     1     111.967 126.206 137.698  0.00  0.00    +0.000 OA
ATOM      2  O   UNL     1     111.388 128.355 136.615  0.00  0.00    +0.000 OA
ATOM      3  C   UNL     1     111.378 126.927 136.613  0.00  0.00    +0.000 A 
ATOM      4  C   UNL     1     111.571 126.211 136.974  0.00  0.00    +0.000 A 
ATOM      5  C   UNL     1     112.170 126.920 138.061  0.00  0.00    +0.000 A 
ATOM      6  C   UNL     1     110.965 126.944 135.860  0.00  0.00    +0.000 A 
ATOM      7  C   UNL     1     111.977 127.636 137.700  0.00  0.00    +0.000 A 
ATOM      8  C   UNL     1     111.581 127.639 136.976  0.00  0.00    +0.000 A 
ATOM      9  C   UNL     1     111.364 125.462 136.606  0.00  0.00    +0.000 A 
ATOM     10  C   UNL     1     110.750 126.205 135.477  0.00  0.00    +0.000 A 
ATOM     11  C   UNL     1     110.951 125.460 135.853  0.00  0.00    +0.000 A 
ENDROOT
BRANCH   5  12
ATOM     12  C   UNL     1     112.567 126.915 138.784  0.00  0.00    +0.000 A 
ATOM     13  C   UNL     1     112.142 126.835 139.487  0.00  0.00    +0.000 A 
ATOM     14  C   UNL     1     113.389 126.991 138.804  0.00  0.00    +0.000 A 
ATOM     15  C   UNL     1     112.540 126.831 140.210  0.00  0.00    +0.000 A 
ATOM     16  C   UNL     1     113.361 126.906 140.230  0.00  0.00    +0.000 A 
ATOM     17  C   UNL     1     113.785 126.986 139.527  0.00  0.00    +0.000 A 
BRANCH  15  18
ATOM     18  O   UNL     1     112.116 126.751 140.913  0.00  0.00    +0.000 OA
ATOM     19  C   UNL     1     111.314 126.559 140.892  0.00  0.00    +0.000 C 
ENDBRANCH  15  18
BRANCH  16  20
ATOM     20  O   UNL     1     113.758 126.902 140.953  0.00  0.00    +0.000 OA
ATOM     21  C   UNL     1     114.561 127.087 140.984  0.00  0.00    +0.000 C 
ENDBRANCH  16  20
ENDBRANCH   5  12
BRANCH   6  22
ATOM     22  O   UNL     1     110.776 127.665 135.506  0.00  0.00    +0.000 OA
ATOM     23  C   UNL     1     111.261 127.974 134.914  0.00  0.00    +0.000 C 
ENDBRANCH   6  22
BRANCH   7  24
ATOM     24  O   UNL     1     112.181 128.348 138.062  0.00  0.00    +0.000 OA
ATOM     25  C   UNL     1     111.747 129.031 137.901  0.00  0.00    +0.000 C 
ENDBRANCH   7  24
BRANCH   9  26
ATOM     26  O   UNL     1     111.561 124.750 136.975  0.00  0.00    +0.000 OA
ATOM     27  C   UNL     1     111.739 124.085 136.519  0.00  0.00    +0.000 C 
ENDBRANCH   9  26
BRANCH  10  28
ATOM     28  O   UNL     1     110.354 126.212 134.754  0.00  0.00    +0.000 OA
ATOM     29  C   UNL     1     109.743 125.677 134.613  0.00  0.00    +0.000 C 
ENDBRANCH  10  28
TORSDOF 7
ENDMDL
