MODEL 1
REMARK VINA RESULT:      -9.7      0.000      0.000
REMARK  Name = 75528886
REMARK  4 active torsions:
REMARK  status: ('A' for Active; 'I' for Inactive)
REMARK    1  A    between atoms: O_2  and  C_15
REMARK    2  A    between atoms: O_2  and  C_22
REMARK    3  A    between atoms: C_14  and  C_16
REMARK    4  A    between atoms: C_18  and  C_24
REMARK                            x       y       z     vdW  Elec       q    Type
REMARK                         _______ _______ _______ _____ _____    ______ ____
ROOT
ATOM      1  O   UNL     1     111.992 126.393 136.114  0.00  0.00    +0.000 OA
ATOM      2  O   UNL     1     111.718 124.228 136.157  0.00  0.00    +0.000 OA
ATOM      3  O   UNL     1     109.414 125.739 134.984  0.00  0.00    +0.000 OA
ATOM      4  C   UNL     1     111.572 125.029 136.028  0.00  0.00    +0.000 C 
ATOM      5  C   UNL     1     112.137 125.591 136.243  0.00  0.00    +0.000 C 
ATOM      6  C   UNL     1     110.862 125.270 135.684  0.00  0.00    +0.000 C 
ATOM      7  C   UNL     1     110.716 126.071 135.555  0.00  0.00    +0.000 A 
ATOM      8  C   UNL     1     111.281 126.633 135.770  0.00  0.00    +0.000 A 
ATOM      9  C   UNL     1     110.403 127.727 135.282  0.00  0.00    +0.000 A 
ATOM     10  C   UNL     1     111.141 127.471 135.641  0.00  0.00    +0.000 A 
ATOM     11  C   UNL     1     109.973 126.309 135.196  0.00  0.00    +0.000 A 
ATOM     12  C   UNL     1     109.815 127.142 135.059  0.00  0.00    +0.000 A 
ENDROOT
BRANCH   5  14
ATOM     13  O   UNL     1     114.978 124.630 137.619  0.00  0.00    +0.000 OA
ATOM     14  C   UNL     1     112.848 125.351 136.587  0.00  0.00    +0.000 A 
ATOM     15  C   UNL     1     113.506 125.200 136.112  0.00  0.00    +0.000 A 
ATOM     16  C   UNL     1     112.899 125.261 137.406  0.00  0.00    +0.000 A 
ATOM     17  C   UNL     1     114.215 124.960 136.457  0.00  0.00    +0.000 A 
ATOM     18  C   UNL     1     113.610 125.021 137.750  0.00  0.00    +0.000 A 
ATOM     19  C   UNL     1     114.268 124.870 137.275  0.00  0.00    +0.000 A 
ENDBRANCH   5  14
BRANCH   9  20
ATOM     20  O   UNL     1     110.260 128.530 135.155  0.00  0.00    +0.000 OA
BRANCH  20  29
ATOM     21  O   UNL     1     109.946 128.883 136.503  0.00  0.00    +0.000 OA
ATOM     22  O   UNL     1     108.165 130.398 135.691  0.00  0.00    +0.000 OA
ATOM     23  O   UNL     1     108.445 130.246 137.309  0.00  0.00    +0.000 OA
ATOM     24  O   UNL     1     109.073 129.540 134.613  0.00  0.00    +0.000 OA
ATOM     25  C   UNL     1     108.759 129.893 135.962  0.00  0.00    +0.000 C 
ATOM     26  C   UNL     1     108.899 129.817 136.771  0.00  0.00    +0.000 C 
ATOM     27  C   UNL     1     109.213 129.463 135.423  0.00  0.00    +0.000 C 
ATOM     28  C   UNL     1     109.492 129.312 137.042  0.00  0.00    +0.000 C 
ATOM     29  C   UNL     1     109.807 128.958 135.693  0.00  0.00    +0.000 C 
BRANCH  28  31
ATOM     30  O   UNL     1     109.427 128.539 138.242  0.00  0.00    +0.000 OA
ATOM     31  C   UNL     1     109.632 129.236 137.851  0.00  0.00    +0.000 C 
ENDBRANCH  28  31
ENDBRANCH  20  29
ENDBRANCH   9  20
TORSDOF 4
ENDMDL
MODEL 2
REMARK VINA RESULT:      -9.2      7.150      8.434
REMARK  Name = 75528886
REMARK  4 active torsions:
REMARK  status: ('A' for Active; 'I' for Inactive)
REMARK    1  A    between atoms: O_2  and  C_15
REMARK    2  A    between atoms: O_2  and  C_22
REMARK    3  A    between atoms: C_14  and  C_16
REMARK    4  A    between atoms: C_18  and  C_24
REMARK                            x       y       z     vdW  Elec       q    Type
REMARK                         _______ _______ _______ _____ _____    ______ ____
ROOT
ATOM      1  O   UNL     1     105.029 124.857 140.017  0.00  0.00    +0.000 OA
ATOM      2  O   UNL     1     105.347 122.741 139.588  0.00  0.00    +0.000 OA
ATOM      3  O   UNL     1     107.437 123.972 141.344  0.00  0.00    +0.000 OA
ATOM      4  C   UNL     1     105.458 123.500 139.891  0.00  0.00    +0.000 C 
ATOM      5  C   UNL     1     104.918 124.098 139.714  0.00  0.00    +0.000 C 
ATOM      6  C   UNL     1     106.109 123.661 140.371  0.00  0.00    +0.000 C 
ATOM      7  C   UNL     1     106.220 124.421 140.674  0.00  0.00    +0.000 A 
ATOM      8  C   UNL     1     105.680 125.018 140.497  0.00  0.00    +0.000 A 
ATOM      9  C   UNL     1     106.461 125.988 141.308  0.00  0.00    +0.000 A 
ATOM     10  C   UNL     1     105.784 125.813 140.807  0.00  0.00    +0.000 A 
ATOM     11  C   UNL     1     106.902 124.576 141.173  0.00  0.00    +0.000 A 
ATOM     12  C   UNL     1     107.023 125.365 141.492  0.00  0.00    +0.000 A 
ENDROOT
BRANCH   5  14
ATOM     13  O   UNL     1     102.312 123.451 137.795  0.00  0.00    +0.000 OA
ATOM     14  C   UNL     1     104.266 123.936 139.234  0.00  0.00    +0.000 A 
ATOM     15  C   UNL     1     104.344 123.956 138.413  0.00  0.00    +0.000 A 
ATOM     16  C   UNL     1     103.537 123.754 139.576  0.00  0.00    +0.000 A 
ATOM     17  C   UNL     1     103.693 123.794 137.934  0.00  0.00    +0.000 A 
ATOM     18  C   UNL     1     102.886 123.593 139.096  0.00  0.00    +0.000 A 
ATOM     19  C   UNL     1     102.964 123.613 138.275  0.00  0.00    +0.000 A 
ENDBRANCH   5  14
BRANCH   9  20
ATOM     20  O   UNL     1     106.570 126.748 141.609  0.00  0.00    +0.000 OA
BRANCH  20  29
ATOM     21  O   UNL     1     106.310 126.534 142.998  0.00  0.00    +0.000 OA
ATOM     22  O   UNL     1     104.832 128.518 143.028  0.00  0.00    +0.000 OA
ATOM     23  O   UNL     1     105.065 127.643 144.406  0.00  0.00    +0.000 OA
ATOM     24  O   UNL     1     105.584 128.071 141.629  0.00  0.00    +0.000 OA
ATOM     25  C   UNL     1     105.324 127.857 143.018  0.00  0.00    +0.000 C 
ATOM     26  C   UNL     1     105.441 127.419 143.707  0.00  0.00    +0.000 C 
ATOM     27  C   UNL     1     105.701 127.633 142.318  0.00  0.00    +0.000 C 
ATOM     28  C   UNL     1     105.934 126.757 143.697  0.00  0.00    +0.000 C 
ATOM     29  C   UNL     1     106.194 126.971 142.308  0.00  0.00    +0.000 C 
BRANCH  28  31
ATOM     30  O   UNL     1     106.797 126.016 144.562  0.00  0.00    +0.000 OA
ATOM     31  C   UNL     1     106.050 126.319 144.386  0.00  0.00    +0.000 C 
ENDBRANCH  28  31
ENDBRANCH  20  29
ENDBRANCH   9  20
TORSDOF 4
ENDMDL
MODEL 3
REMARK VINA RESULT:      -9.2      7.076      8.357
REMARK  Name = 75528886
REMARK  4 active torsions:
REMARK  status: ('A' for Active; 'I' for Inactive)
REMARK    1  A    between atoms: O_2  and  C_15
REMARK    2  A    between atoms: O_2  and  C_22
REMARK    3  A    between atoms: C_14  and  C_16
REMARK    4  A    between atoms: C_18  and  C_24
REMARK                            x       y       z     vdW  Elec       q    Type
REMARK                         _______ _______ _______ _____ _____    ______ ____
ROOT
ATOM      1  O   UNL     1     104.922 124.465 139.584  0.00  0.00    +0.000 OA
ATOM      2  O   UNL     1     103.695 122.749 140.144  0.00  0.00    +0.000 OA
ATOM      3  O   UNL     1     105.601 123.648 142.271  0.00  0.00    +0.000 OA
ATOM      4  C   UNL     1     104.253 123.355 140.186  0.00  0.00    +0.000 C 
ATOM      5  C   UNL     1     104.364 123.859 139.542  0.00  0.00    +0.000 C 
ATOM      6  C   UNL     1     104.701 123.457 140.871  0.00  0.00    +0.000 C 
ATOM      7  C   UNL     1     105.259 124.062 140.913  0.00  0.00    +0.000 A 
ATOM      8  C   UNL     1     105.370 124.567 140.270  0.00  0.00    +0.000 A 
ATOM      9  C   UNL     1     106.418 125.312 141.013  0.00  0.00    +0.000 A 
ATOM     10  C   UNL     1     105.948 125.201 140.302  0.00  0.00    +0.000 A 
ATOM     11  C   UNL     1     105.719 124.158 141.633  0.00  0.00    +0.000 A 
ATOM     12  C   UNL     1     106.302 124.787 141.683  0.00  0.00    +0.000 A 
ENDROOT
BRANCH   5  14
ATOM     13  O   UNL     1     102.574 123.453 136.800  0.00  0.00    +0.000 OA
ATOM     14  C   UNL     1     103.916 123.758 138.857  0.00  0.00    +0.000 A 
ATOM     15  C   UNL     1     103.126 123.996 138.841  0.00  0.00    +0.000 A 
ATOM     16  C   UNL     1     104.259 123.418 138.187  0.00  0.00    +0.000 A 
ATOM     17  C   UNL     1     102.680 123.894 138.155  0.00  0.00    +0.000 A 
ATOM     18  C   UNL     1     103.811 123.317 137.502  0.00  0.00    +0.000 A 
ATOM     19  C   UNL     1     103.022 123.554 137.486  0.00  0.00    +0.000 A 
ENDBRANCH   5  14
BRANCH   9  20
ATOM     20  O   UNL     1     106.976 125.919 141.053  0.00  0.00    +0.000 OA
BRANCH  20  29
ATOM     21  O   UNL     1     106.142 126.985 141.511  0.00  0.00    +0.000 OA
ATOM     22  O   UNL     1     107.887 127.652 143.135  0.00  0.00    +0.000 OA
ATOM     23  O   UNL     1     106.472 128.495 143.051  0.00  0.00    +0.000 OA
ATOM     24  O   UNL     1     108.139 126.363 142.135  0.00  0.00    +0.000 OA
ATOM     25  C   UNL     1     107.305 127.430 142.593  0.00  0.00    +0.000 C 
ATOM     26  C   UNL     1     106.597 127.851 142.551  0.00  0.00    +0.000 C 
ATOM     27  C   UNL     1     107.431 126.785 142.093  0.00  0.00    +0.000 C 
ATOM     28  C   UNL     1     106.016 127.629 142.010  0.00  0.00    +0.000 C 
ATOM     29  C   UNL     1     106.850 126.563 141.552  0.00  0.00    +0.000 C 
BRANCH  28  31
ATOM     30  O   UNL     1     105.031 128.322 141.240  0.00  0.00    +0.000 OA
ATOM     31  C   UNL     1     105.309 128.051 141.968  0.00  0.00    +0.000 C 
ENDBRANCH  28  31
ENDBRANCH  20  29
ENDBRANCH   9  20
TORSDOF 4
ENDMDL
MODEL 4
REMARK VINA RESULT:      -9.2      0.837      1.455
REMARK  Name = 75528886
REMARK  4 active torsions:
REMARK  status: ('A' for Active; 'I' for Inactive)
REMARK    1  A    between atoms: O_2  and  C_15
REMARK    2  A    between atoms: O_2  and  C_22
REMARK    3  A    between atoms: C_14  and  C_16
REMARK    4  A    between atoms: C_18  and  C_24
REMARK                            x       y       z     vdW  Elec       q    Type
REMARK                         _______ _______ _______ _____ _____    ______ ____
ROOT
ATOM      1  O   UNL     1     111.607 126.144 136.622  0.00  0.00    +0.000 OA
ATOM      2  O   UNL     1     111.857 124.244 135.576  0.00  0.00    +0.000 OA
ATOM      3  O   UNL     1     109.289 125.660 134.966  0.00  0.00    +0.000 OA
ATOM      4  C   UNL     1     111.528 124.957 135.831  0.00  0.00    +0.000 C 
ATOM      5  C   UNL     1     111.936 125.431 136.367  0.00  0.00    +0.000 C 
ATOM      6  C   UNL     1     110.789 125.194 135.549  0.00  0.00    +0.000 C 
ATOM      7  C   UNL     1     110.460 125.906 135.803  0.00  0.00    +0.000 A 
ATOM      8  C   UNL     1     110.868 126.381 136.340  0.00  0.00    +0.000 A 
ATOM      9  C   UNL     1     109.767 127.377 136.323  0.00  0.00    +0.000 A 
ATOM     10  C   UNL     1     110.536 127.124 136.613  0.00  0.00    +0.000 A 
ATOM     11  C   UNL     1     109.691 126.142 135.502  0.00  0.00    +0.000 A 
ATOM     12  C   UNL     1     109.342 126.882 135.764  0.00  0.00    +0.000 A 
ENDROOT
BRANCH   5  14
ATOM     13  O   UNL     1     114.889 124.483 137.494  0.00  0.00    +0.000 OA
ATOM     14  C   UNL     1     112.674 125.194 136.649  0.00  0.00    +0.000 A 
ATOM     15  C   UNL     1     112.726 124.607 137.227  0.00  0.00    +0.000 A 
ATOM     16  C   UNL     1     113.361 125.545 136.353  0.00  0.00    +0.000 A 
ATOM     17  C   UNL     1     113.465 124.371 137.508  0.00  0.00    +0.000 A 
ATOM     18  C   UNL     1     114.099 125.307 136.635  0.00  0.00    +0.000 A 
ATOM     19  C   UNL     1     114.151 124.720 137.212  0.00  0.00    +0.000 A 
ENDBRANCH   5  14
BRANCH   9  20
ATOM     20  O   UNL     1     109.440 128.090 136.579  0.00  0.00    +0.000 OA
BRANCH  20  29
ATOM     21  O   UNL     1     110.138 128.930 135.658  0.00  0.00    +0.000 OA
ATOM     22  O   UNL     1     108.143 130.382 135.470  0.00  0.00    +0.000 OA
ATOM     23  O   UNL     1     109.506 130.738 134.612  0.00  0.00    +0.000 OA
ATOM     24  O   UNL     1     108.110 129.058 136.454  0.00  0.00    +0.000 OA
ATOM     25  C   UNL     1     108.808 129.898 135.533  0.00  0.00    +0.000 C 
ATOM     26  C   UNL     1     109.490 130.076 135.104  0.00  0.00    +0.000 C 
ATOM     27  C   UNL     1     108.791 129.235 136.025  0.00  0.00    +0.000 C 
ATOM     28  C   UNL     1     110.155 129.592 135.166  0.00  0.00    +0.000 C 
ATOM     29  C   UNL     1     109.456 128.751 136.088  0.00  0.00    +0.000 C 
BRANCH  28  31
ATOM     30  O   UNL     1     111.574 129.751 135.106  0.00  0.00    +0.000 OA
ATOM     31  C   UNL     1     110.836 129.770 134.737  0.00  0.00    +0.000 C 
ENDBRANCH  28  31
ENDBRANCH  20  29
ENDBRANCH   9  20
TORSDOF 4
ENDMDL
MODEL 5
REMARK VINA RESULT:      -9.1      1.347      2.081
REMARK  Name = 75528886
REMARK  4 active torsions:
REMARK  status: ('A' for Active; 'I' for Inactive)
REMARK    1  A    between atoms: O_2  and  C_15
REMARK    2  A    between atoms: O_2  and  C_22
REMARK    3  A    between atoms: C_14  and  C_16
REMARK    4  A    between atoms: C_18  and  C_24
REMARK                            x       y       z     vdW  Elec       q    Type
REMARK                         _______ _______ _______ _____ _____    ______ ____
ROOT
ATOM      1  O   UNL     1     111.942 126.539 136.261  0.00  0.00    +0.000 OA
ATOM      2  O   UNL     1     113.862 125.883 137.064  0.00  0.00    +0.000 OA
ATOM      3  O   UNL     1     113.781 128.767 136.259  0.00  0.00    +0.000 OA
ATOM      4  C   UNL     1     113.276 126.366 136.742  0.00  0.00    +0.000 C 
ATOM      5  C   UNL     1     112.528 126.056 136.582  0.00  0.00    +0.000 C 
ATOM      6  C   UNL     1     113.437 127.159 136.581  0.00  0.00    +0.000 C 
ATOM      7  C   UNL     1     112.850 127.642 136.259  0.00  0.00    +0.000 A 
ATOM      8  C   UNL     1     112.103 127.332 136.099  0.00  0.00    +0.000 A 
ATOM      9  C   UNL     1     111.645 128.651 135.593  0.00  0.00    +0.000 A 
ATOM     10  C   UNL     1     111.484 127.824 135.764  0.00  0.00    +0.000 A 
ATOM     11  C   UNL     1     113.030 128.466 136.095  0.00  0.00    +0.000 A 
ATOM     12  C   UNL     1     112.424 128.973 135.760  0.00  0.00    +0.000 A 
ENDROOT
BRANCH   5  14
ATOM     13  O   UNL     1     111.884 122.885 137.230  0.00  0.00    +0.000 OA
ATOM     14  C   UNL     1     112.367 125.263 136.744  0.00  0.00    +0.000 A 
ATOM     15  C   UNL     1     112.610 124.677 136.217  0.00  0.00    +0.000 A 
ATOM     16  C   UNL     1     111.964 125.057 137.434  0.00  0.00    +0.000 A 
ATOM     17  C   UNL     1     112.449 123.885 136.379  0.00  0.00    +0.000 A 
ATOM     18  C   UNL     1     111.803 124.264 137.595  0.00  0.00    +0.000 A 
ATOM     19  C   UNL     1     112.045 123.678 137.068  0.00  0.00    +0.000 A 
ENDBRANCH   5  14
BRANCH   9  20
ATOM     20  O   UNL     1     111.057 129.132 135.271  0.00  0.00    +0.000 OA
BRANCH  20  29
ATOM     21  O   UNL     1     110.546 129.675 136.490  0.00  0.00    +0.000 OA
ATOM     22  O   UNL     1     108.239 129.458 135.620  0.00  0.00    +0.000 OA
ATOM     23  O   UNL     1     108.497 130.073 137.128  0.00  0.00    +0.000 OA
ATOM     24  O   UNL     1     109.519 128.987 134.691  0.00  0.00    +0.000 OA
ATOM     25  C   UNL     1     109.008 129.530 135.910  0.00  0.00    +0.000 C 
ATOM     26  C   UNL     1     109.137 129.838 136.664  0.00  0.00    +0.000 C 
ATOM     27  C   UNL     1     109.649 129.294 135.445  0.00  0.00    +0.000 C 
ATOM     28  C   UNL     1     109.906 129.910 136.954  0.00  0.00    +0.000 C 
ATOM     29  C   UNL     1     110.417 129.367 135.735  0.00  0.00    +0.000 C 
BRANCH  28  31
ATOM     30  O   UNL     1     110.572 130.835 137.817  0.00  0.00    +0.000 OA
ATOM     31  C   UNL     1     110.035 130.218 137.708  0.00  0.00    +0.000 C 
ENDBRANCH  28  31
ENDBRANCH  20  29
ENDBRANCH   9  20
TORSDOF 4
ENDMDL
MODEL 6
REMARK VINA RESULT:      -9.0      1.979      3.447
REMARK  Name = 75528886
REMARK  4 active torsions:
REMARK  status: ('A' for Active; 'I' for Inactive)
REMARK    1  A    between atoms: O_2  and  C_15
REMARK    2  A    between atoms: O_2  and  C_22
REMARK    3  A    between atoms: C_14  and  C_16
REMARK    4  A    between atoms: C_18  and  C_24
REMARK                            x       y       z     vdW  Elec       q    Type
REMARK                         _______ _______ _______ _____ _____    ______ ____
ROOT
ATOM      1  O   UNL     1     110.151 128.227 135.906  0.00  0.00    +0.000 OA
ATOM      2  O   UNL     1     108.425 126.897 135.786  0.00  0.00    +0.000 OA
ATOM      3  O   UNL     1     107.733 129.807 135.937  0.00  0.00    +0.000 OA
ATOM      4  C   UNL     1     108.876 127.586 135.837  0.00  0.00    +0.000 C 
ATOM      5  C   UNL     1     109.700 127.538 135.855  0.00  0.00    +0.000 C 
ATOM      6  C   UNL     1     108.504 128.321 135.871  0.00  0.00    +0.000 C 
ATOM      7  C   UNL     1     108.956 129.010 135.922  0.00  0.00    +0.000 A 
ATOM      8  C   UNL     1     109.779 128.963 135.940  0.00  0.00    +0.000 A 
ATOM      9  C   UNL     1     109.879 130.442 136.027  0.00  0.00    +0.000 A 
ATOM     10  C   UNL     1     110.261 129.672 135.993  0.00  0.00    +0.000 A 
ATOM     11  C   UNL     1     108.557 129.770 135.955  0.00  0.00    +0.000 A 
ATOM     12  C   UNL     1     109.021 130.490 136.009  0.00  0.00    +0.000 A 
ENDROOT
BRANCH   5  14
ATOM     13  O   UNL     1     111.187 124.596 135.722  0.00  0.00    +0.000 OA
ATOM     14  C   UNL     1     110.072 126.803 135.822  0.00  0.00    +0.000 A 
ATOM     15  C   UNL     1     110.297 126.422 136.519  0.00  0.00    +0.000 A 
ATOM     16  C   UNL     1     110.218 126.448 135.092  0.00  0.00    +0.000 A 
ATOM     17  C   UNL     1     110.668 125.687 136.485  0.00  0.00    +0.000 A 
ATOM     18  C   UNL     1     110.590 125.712 135.059  0.00  0.00    +0.000 A 
ATOM     19  C   UNL     1     110.815 125.332 135.755  0.00  0.00    +0.000 A 
ENDBRANCH   5  14
BRANCH   9  20
ATOM     20  O   UNL     1     110.333 131.129 136.078  0.00  0.00    +0.000 OA
BRANCH  20  29
ATOM     21  O   UNL     1     110.446 131.194 137.501  0.00  0.00    +0.000 OA
ATOM     22  O   UNL     1     110.127 133.647 137.414  0.00  0.00    +0.000 OA
ATOM     23  O   UNL     1     110.346 132.895 138.865  0.00  0.00    +0.000 OA
ATOM     24  O   UNL     1     110.120 132.764 136.020  0.00  0.00    +0.000 OA
ATOM     25  C   UNL     1     110.233 132.830 137.443  0.00  0.00    +0.000 C 
ATOM     26  C   UNL     1     110.343 132.453 138.169  0.00  0.00    +0.000 C 
ATOM     27  C   UNL     1     110.230 132.388 136.746  0.00  0.00    +0.000 C 
ATOM     28  C   UNL     1     110.449 131.635 138.198  0.00  0.00    +0.000 C 
ATOM     29  C   UNL     1     110.336 131.570 136.775  0.00  0.00    +0.000 C 
BRANCH  28  31
ATOM     30  O   UNL     1     111.273 130.882 139.090  0.00  0.00    +0.000 OA
ATOM     31  C   UNL     1     110.558 131.259 138.923  0.00  0.00    +0.000 C 
ENDBRANCH  28  31
ENDBRANCH  20  29
ENDBRANCH   9  20
TORSDOF 4
ENDMDL
MODEL 7
REMARK VINA RESULT:      -9.0      7.620     10.270
REMARK  Name = 75528886
REMARK  4 active torsions:
REMARK  status: ('A' for Active; 'I' for Inactive)
REMARK    1  A    between atoms: O_2  and  C_15
REMARK    2  A    between atoms: O_2  and  C_22
REMARK    3  A    between atoms: C_14  and  C_16
REMARK    4  A    between atoms: C_18  and  C_24
REMARK                            x       y       z     vdW  Elec       q    Type
REMARK                         _______ _______ _______ _____ _____    ______ ____
ROOT
ATOM      1  O   UNL     1     104.957 127.701 142.371  0.00  0.00    +0.000 OA
ATOM      2  O   UNL     1     105.813 129.593 141.698  0.00  0.00    +0.000 OA
ATOM      3  O   UNL     1     107.837 127.482 142.342  0.00  0.00    +0.000 OA
ATOM      4  C   UNL     1     105.755 128.814 141.964  0.00  0.00    +0.000 C 
ATOM      5  C   UNL     1     105.014 128.480 142.104  0.00  0.00    +0.000 C 
ATOM      6  C   UNL     1     106.439 128.370 142.091  0.00  0.00    +0.000 C 
ATOM      7  C   UNL     1     106.381 127.591 142.357  0.00  0.00    +0.000 A 
ATOM      8  C   UNL     1     105.640 127.257 142.497  0.00  0.00    +0.000 A 
ATOM      9  C   UNL     1     106.276 125.979 142.908  0.00  0.00    +0.000 A 
ATOM     10  C   UNL     1     105.567 126.447 142.775  0.00  0.00    +0.000 A 
ATOM     11  C   UNL     1     107.100 127.139 142.485  0.00  0.00    +0.000 A 
ATOM     12  C   UNL     1     107.047 126.328 142.762  0.00  0.00    +0.000 A 
ENDROOT
BRANCH   5  14
ATOM     13  O   UNL     1     102.280 130.257 141.599  0.00  0.00    +0.000 OA
ATOM     14  C   UNL     1     104.330 128.924 141.978  0.00  0.00    +0.000 A 
ATOM     15  C   UNL     1     103.930 128.869 141.259  0.00  0.00    +0.000 A 
ATOM     16  C   UNL     1     104.048 129.424 142.571  0.00  0.00    +0.000 A 
ATOM     17  C   UNL     1     103.246 129.313 141.133  0.00  0.00    +0.000 A 
ATOM     18  C   UNL     1     103.365 129.868 142.445  0.00  0.00    +0.000 A 
ATOM     19  C   UNL     1     102.964 129.813 141.726  0.00  0.00    +0.000 A 
ENDBRANCH   5  14
BRANCH   9  20
ATOM     20  O   UNL     1     106.216 125.200 143.175  0.00  0.00    +0.000 OA
BRANCH  20  29
ATOM     21  O   UNL     1     106.355 125.465 144.572  0.00  0.00    +0.000 OA
ATOM     22  O   UNL     1     104.638 123.753 145.068  0.00  0.00    +0.000 OA
ATOM     23  O   UNL     1     105.350 124.588 146.299  0.00  0.00    +0.000 OA
ATOM     24  O   UNL     1     105.071 124.059 143.505  0.00  0.00    +0.000 OA
ATOM     25  C   UNL     1     105.210 124.324 144.903  0.00  0.00    +0.000 C 
ATOM     26  C   UNL     1     105.567 124.742 145.518  0.00  0.00    +0.000 C 
ATOM     27  C   UNL     1     105.427 124.477 144.121  0.00  0.00    +0.000 C 
ATOM     28  C   UNL     1     106.139 125.312 145.353  0.00  0.00    +0.000 C 
ATOM     29  C   UNL     1     105.999 125.048 143.955  0.00  0.00    +0.000 C 
BRANCH  28  31
ATOM     30  O   UNL     1     107.309 125.671 146.091  0.00  0.00    +0.000 OA
ATOM     31  C   UNL     1     106.495 125.730 145.968  0.00  0.00    +0.000 C 
ENDBRANCH  28  31
ENDBRANCH  20  29
ENDBRANCH   9  20
TORSDOF 4
ENDMDL
MODEL 8
REMARK VINA RESULT:      -9.0      2.332      3.055
REMARK  Name = 75528886
REMARK  4 active torsions:
REMARK  status: ('A' for Active; 'I' for Inactive)
REMARK    1  A    between atoms: O_2  and  C_15
REMARK    2  A    between atoms: O_2  and  C_22
REMARK    3  A    between atoms: C_14  and  C_16
REMARK    4  A    between atoms: C_18  and  C_24
REMARK                            x       y       z     vdW  Elec       q    Type
REMARK                         _______ _______ _______ _____ _____    ______ ____
ROOT
ATOM      1  O   UNL     1     112.053 126.594 136.258  0.00  0.00    +0.000 OA
ATOM      2  O   UNL     1     110.333 125.473 135.519  0.00  0.00    +0.000 OA
ATOM      3  O   UNL     1     110.427 128.325 134.613  0.00  0.00    +0.000 OA
ATOM      4  C   UNL     1     110.860 126.093 135.652  0.00  0.00    +0.000 C 
ATOM      5  C   UNL     1     111.525 125.974 136.125  0.00  0.00    +0.000 C 
ATOM      6  C   UNL     1     110.722 126.832 135.312  0.00  0.00    +0.000 C 
ATOM      7  C   UNL     1     111.250 127.452 135.445  0.00  0.00    +0.000 A 
ATOM      8  C   UNL     1     111.915 127.333 135.918  0.00  0.00    +0.000 A 
ATOM      9  C   UNL     1     112.333 128.744 135.713  0.00  0.00    +0.000 A 
ATOM     10  C   UNL     1     112.471 127.971 136.064  0.00  0.00    +0.000 A 
ATOM     11  C   UNL     1     111.095 128.216 135.085  0.00  0.00    +0.000 A 
ATOM     12  C   UNL     1     111.640 128.866 135.220  0.00  0.00    +0.000 A 
ENDROOT
BRANCH   5  14
ATOM     13  O   UNL     1     112.077 123.018 137.485  0.00  0.00    +0.000 OA
ATOM     14  C   UNL     1     111.663 125.235 136.465  0.00  0.00    +0.000 A 
ATOM     15  C   UNL     1     111.350 125.058 137.208  0.00  0.00    +0.000 A 
ATOM     16  C   UNL     1     112.114 124.674 136.062  0.00  0.00    +0.000 A 
ATOM     17  C   UNL     1     111.488 124.319 137.547  0.00  0.00    +0.000 A 
ATOM     18  C   UNL     1     112.252 123.935 136.402  0.00  0.00    +0.000 A 
ATOM     19  C   UNL     1     111.939 123.757 137.145  0.00  0.00    +0.000 A 
ENDBRANCH   5  14
BRANCH   9  20
ATOM     20  O   UNL     1     112.862 129.362 135.848  0.00  0.00    +0.000 OA
BRANCH  20  29
ATOM     21  O   UNL     1     112.151 129.961 136.933  0.00  0.00    +0.000 OA
ATOM     22  O   UNL     1     114.297 130.504 138.040  0.00  0.00    +0.000 OA
ATOM     23  O   UNL     1     112.871 130.922 138.755  0.00  0.00    +0.000 OA
ATOM     24  O   UNL     1     114.293 129.725 136.586  0.00  0.00    +0.000 OA
ATOM     25  C   UNL     1     113.582 130.323 137.671  0.00  0.00    +0.000 C 
ATOM     26  C   UNL     1     112.868 130.532 138.028  0.00  0.00    +0.000 C 
ATOM     27  C   UNL     1     113.579 129.933 136.943  0.00  0.00    +0.000 C 
ATOM     28  C   UNL     1     112.153 130.351 137.659  0.00  0.00    +0.000 C 
ATOM     29  C   UNL     1     112.864 129.752 136.574  0.00  0.00    +0.000 C 
BRANCH  28  31
ATOM     30  O   UNL     1     110.892 131.021 137.608  0.00  0.00    +0.000 OA
ATOM     31  C   UNL     1     111.440 130.559 138.017  0.00  0.00    +0.000 C 
ENDBRANCH  28  31
ENDBRANCH  20  29
ENDBRANCH   9  20
TORSDOF 4
ENDMDL
MODEL 9
REMARK VINA RESULT:      -8.9      3.632      4.928
REMARK  Name = 75528886
REMARK  4 active torsions:
REMARK  status: ('A' for Active; 'I' for Inactive)
REMARK    1  A    between atoms: O_2  and  C_15
REMARK    2  A    between atoms: O_2  and  C_22
REMARK    3  A    between atoms: C_14  and  C_16
REMARK    4  A    between atoms: C_18  and  C_24
REMARK                            x       y       z     vdW  Elec       q    Type
REMARK                         _______ _______ _______ _____ _____    ______ ____
ROOT
ATOM      1  O   UNL     1     113.429 126.324 138.889  0.00  0.00    +0.000 OA
ATOM      2  O   UNL     1     112.119 125.383 137.418  0.00  0.00    +0.000 OA
ATOM      3  O   UNL     1     110.702 126.432 139.838  0.00  0.00    +0.000 OA
ATOM      4  C   UNL     1     112.373 125.770 138.100  0.00  0.00    +0.000 C 
ATOM      5  C   UNL     1     113.174 125.937 138.206  0.00  0.00    +0.000 C 
ATOM      6  C   UNL     1     111.826 125.991 138.677  0.00  0.00    +0.000 C 
ATOM      7  C   UNL     1     112.081 126.378 139.360  0.00  0.00    +0.000 A 
ATOM      8  C   UNL     1     112.882 126.545 139.466  0.00  0.00    +0.000 A 
ATOM      9  C   UNL     1     112.594 127.180 140.777  0.00  0.00    +0.000 A 
ATOM     10  C   UNL     1     113.159 126.947 140.172  0.00  0.00    +0.000 A 
ATOM     11  C   UNL     1     111.502 126.603 139.953  0.00  0.00    +0.000 A 
ATOM     12  C   UNL     1     111.760 127.006 140.666  0.00  0.00    +0.000 A 
ENDROOT
BRANCH   5  14
ATOM     13  O   UNL     1     115.361 125.053 135.898  0.00  0.00    +0.000 OA
ATOM     14  C   UNL     1     113.721 125.716 137.629  0.00  0.00    +0.000 A 
ATOM     15  C   UNL     1     113.865 126.212 136.986  0.00  0.00    +0.000 A 
ATOM     16  C   UNL     1     114.123 124.998 137.696  0.00  0.00    +0.000 A 
ATOM     17  C   UNL     1     114.412 125.991 136.409  0.00  0.00    +0.000 A 
ATOM     18  C   UNL     1     114.670 124.777 137.118  0.00  0.00    +0.000 A 
ATOM     19  C   UNL     1     114.814 125.274 136.475  0.00  0.00    +0.000 A 
ENDBRANCH   5  14
BRANCH   9  20
ATOM     20  O   UNL     1     112.851 127.567 141.459  0.00  0.00    +0.000 OA
BRANCH  20  29
ATOM     21  O   UNL     1     113.218 128.838 140.918  0.00  0.00    +0.000 OA
ATOM     22  O   UNL     1     112.021 129.970 142.764  0.00  0.00    +0.000 OA
ATOM     23  O   UNL     1     112.787 130.862 141.608  0.00  0.00    +0.000 OA
ATOM     24  O   UNL     1     112.053 128.322 142.690  0.00  0.00    +0.000 OA
ATOM     25  C   UNL     1     112.420 129.593 142.149  0.00  0.00    +0.000 C 
ATOM     26  C   UNL     1     112.803 130.038 141.571  0.00  0.00    +0.000 C 
ATOM     27  C   UNL     1     112.436 128.768 142.111  0.00  0.00    +0.000 C 
ATOM     28  C   UNL     1     113.203 129.661 140.955  0.00  0.00    +0.000 C 
ATOM     29  C   UNL     1     112.835 128.390 141.496  0.00  0.00    +0.000 C 
BRANCH  28  31
ATOM     30  O   UNL     1     114.390 129.993 140.232  0.00  0.00    +0.000 OA
ATOM     31  C   UNL     1     113.586 130.107 140.377  0.00  0.00    +0.000 C 
ENDBRANCH  28  31
ENDBRANCH  20  29
ENDBRANCH   9  20
TORSDOF 4
ENDMDL
MODEL 10
REMARK VINA RESULT:      -8.9      3.461      5.760
REMARK  Name = 75528886
REMARK  4 active torsions:
REMARK  status: ('A' for Active; 'I' for Inactive)
REMARK    1  A    between atoms: O_2  and  C_15
REMARK    2  A    between atoms: O_2  and  C_22
REMARK    3  A    between atoms: C_14  and  C_16
REMARK    4  A    between atoms: C_18  and  C_24
REMARK                            x       y       z     vdW  Elec       q    Type
REMARK                         _______ _______ _______ _____ _____    ______ ____
ROOT
ATOM      1  O   UNL     1     113.207 128.763 139.522  0.00  0.00    +0.000 OA
ATOM      2  O   UNL     1     112.934 130.774 138.719  0.00  0.00    +0.000 OA
ATOM      3  O   UNL     1     111.387 128.651 137.280  0.00  0.00    +0.000 OA
ATOM      4  C   UNL     1     112.863 129.958 138.818  0.00  0.00    +0.000 C 
ATOM      5  C   UNL     1     113.278 129.579 139.422  0.00  0.00    +0.000 C 
ATOM      6  C   UNL     1     112.377 129.521 138.314  0.00  0.00    +0.000 C 
ATOM      7  C   UNL     1     112.307 128.705 138.413  0.00  0.00    +0.000 A 
ATOM      8  C   UNL     1     112.721 128.326 139.017  0.00  0.00    +0.000 A 
ATOM      9  C   UNL     1     112.151 127.017 138.609  0.00  0.00    +0.000 A 
ATOM     10  C   UNL     1     112.656 127.477 139.131  0.00  0.00    +0.000 A 
ATOM     11  C   UNL     1     111.798 128.262 137.882  0.00  0.00    +0.000 A 
ATOM     12  C   UNL     1     111.720 127.413 137.980  0.00  0.00    +0.000 A 
ENDROOT
BRANCH   5  14
ATOM     13  O   UNL     1     115.219 131.324 141.440  0.00  0.00    +0.000 OA
ATOM     14  C   UNL     1     113.763 130.015 139.927  0.00  0.00    +0.000 A 
ATOM     15  C   UNL     1     114.513 130.251 139.676  0.00  0.00    +0.000 A 
ATOM     16  C   UNL     1     113.498 130.215 140.683  0.00  0.00    +0.000 A 
ATOM     17  C   UNL     1     114.997 130.688 140.180  0.00  0.00    +0.000 A 
ATOM     18  C   UNL     1     113.984 130.652 141.187  0.00  0.00    +0.000 A 
ATOM     19  C   UNL     1     114.733 130.888 140.936  0.00  0.00    +0.000 A 
ENDBRANCH   5  14
BRANCH   9  20
ATOM     20  O   UNL     1     112.082 126.201 138.710  0.00  0.00    +0.000 OA
BRANCH  20  29
ATOM     21  O   UNL     1     113.238 125.748 138.003  0.00  0.00    +0.000 OA
ATOM     22  O   UNL     1     111.870 124.022 136.874  0.00  0.00    +0.000 OA
ATOM     23  O   UNL     1     113.481 124.144 136.543  0.00  0.00    +0.000 OA
ATOM     24  O   UNL     1     111.170 125.050 137.958  0.00  0.00    +0.000 OA
ATOM     25  C   UNL     1     112.326 124.597 137.250  0.00  0.00    +0.000 C 
ATOM     26  C   UNL     1     113.132 124.658 137.085  0.00  0.00    +0.000 C 
ATOM     27  C   UNL     1     111.976 125.112 137.793  0.00  0.00    +0.000 C 
ATOM     28  C   UNL     1     113.588 125.234 137.461  0.00  0.00    +0.000 C 
ATOM     29  C   UNL     1     112.432 125.687 138.169  0.00  0.00    +0.000 C 
BRANCH  28  31
ATOM     30  O   UNL     1     114.944 125.269 137.909  0.00  0.00    +0.000 OA
ATOM     31  C   UNL     1     114.393 125.294 137.296  0.00  0.00    +0.000 C 
ENDBRANCH  28  31
ENDBRANCH  20  29
ENDBRANCH   9  20
TORSDOF 4
ENDMDL
