MODEL 1
REMARK VINA RESULT:     -10.5      0.000      0.000
REMARK  Name = 131832478
REMARK  4 active torsions:
REMARK  status: ('A' for Active; 'I' for Inactive)
REMARK    1  A    between atoms: O_3  and  C_19
REMARK    2  A    between atoms: O_3  and  C_31
REMARK    3  A    between atoms: C_20  and  C_27
REMARK    4  A    between atoms: C_28  and  C_32
REMARK                            x       y       z     vdW  Elec       q    Type
REMARK                         _______ _______ _______ _____ _____    ______ ____
ROOT
ATOM      1  O   UNL     1     104.747 127.994 142.656  0.00  0.00    +0.000 OA
ATOM      2  O   UNL     1     105.835 130.020 141.349  0.00  0.00    +0.000 OA
ATOM      3  O   UNL     1     108.104 127.257 141.984  0.00  0.00    +0.000 OA
ATOM      4  O   UNL     1     107.392 128.771 141.474  0.00  0.00    +0.000 OA
ATOM      5  C   UNL     1     106.208 125.796 143.266  0.00  0.00    +0.000 A 
ATOM      6  C   UNL     1     104.850 128.878 142.199  0.00  0.00    +0.000 A 
ATOM      7  C   UNL     1     105.525 127.369 142.718  0.00  0.00    +0.000 A 
ATOM      8  C   UNL     1     105.402 126.452 143.197  0.00  0.00    +0.000 A 
ATOM      9  C   UNL     1     106.407 127.628 142.324  0.00  0.00    +0.000 A 
ATOM     10  C   UNL     1     107.127 126.066 142.855  0.00  0.00    +0.000 A 
ATOM     11  C   UNL     1     105.732 129.137 141.805  0.00  0.00    +0.000 A 
ATOM     12  C   UNL     1     107.227 126.988 142.381  0.00  0.00    +0.000 A 
ATOM     13  C   UNL     1     106.510 128.512 141.868  0.00  0.00    +0.000 A 
ENDROOT
BRANCH   6  24
ATOM     14  O   UNL     1     101.688 131.429 141.974  0.00  0.00    +0.000 OA
ATOM     15  O   UNL     1     101.900 132.706 144.282  0.00  0.00    +0.000 OA
ATOM     16  C   UNL     1     101.500 132.064 142.724  0.00  0.00    +0.000 C 
ATOM     17  C   UNL     1     102.089 132.072 143.532  0.00  0.00    +0.000 C 
ATOM     18  C   UNL     1     102.866 131.446 143.590  0.00  0.00    +0.000 C 
ATOM     19  C   UNL     1     103.055 130.812 142.840  0.00  0.00    +0.000 A 
ATOM     20  C   UNL     1     102.466 130.804 142.032  0.00  0.00    +0.000 A 
ATOM     21  C   UNL     1     100.942 132.791 143.123  0.00  0.00    +0.000 C 
ATOM     22  C   UNL     1     100.711 132.420 142.223  0.00  0.00    +0.000 C 
ATOM     23  C   UNL     1     103.869 130.166 142.915  0.00  0.00    +0.000 A 
ATOM     24  C   UNL     1     104.072 129.502 142.137  0.00  0.00    +0.000 A 
ATOM     25  C   UNL     1     102.650 130.149 141.242  0.00  0.00    +0.000 A 
ATOM     26  C   UNL     1     103.458 129.493 141.295  0.00  0.00    +0.000 A 
ENDBRANCH   6  24
BRANCH   5  27
ATOM     27  O   UNL     1     106.101 124.913 143.723  0.00  0.00    +0.000 OA
BRANCH  27  35
ATOM     28  O   UNL     1     106.641 125.372 145.304  0.00  0.00    +0.000 OA
ATOM     29  O   UNL     1     104.425 123.760 146.527  0.00  0.00    +0.000 OA
ATOM     30  O   UNL     1     104.624 123.839 144.539  0.00  0.00    +0.000 OA
ATOM     31  O   UNL     1     105.703 124.756 147.700  0.00  0.00    +0.000 OA
ATOM     32  C   UNL     1     105.164 124.297 146.119  0.00  0.00    +0.000 C 
ATOM     33  C   UNL     1     105.263 124.337 145.125  0.00  0.00    +0.000 C 
ATOM     34  C   UNL     1     105.803 124.795 146.706  0.00  0.00    +0.000 C 
ATOM     35  C   UNL     1     106.002 124.874 144.717  0.00  0.00    +0.000 C 
ATOM     36  C   UNL     1     106.541 125.332 146.298  0.00  0.00    +0.000 C 
BRANCH  36  39
ATOM     37  O   UNL     1     106.966 126.761 147.180  0.00  0.00    +0.000 OA
ATOM     38  O   UNL     1     108.033 125.397 147.175  0.00  0.00    +0.000 OA
ATOM     39  C   UNL     1     107.180 125.830 146.884  0.00  0.00    +0.000 C 
ENDBRANCH  36  39
ENDBRANCH  27  35
ENDBRANCH   5  27
TORSDOF 4
ENDMDL
MODEL 2
REMARK VINA RESULT:     -10.3      6.062     10.961
REMARK  Name = 131832478
REMARK  4 active torsions:
REMARK  status: ('A' for Active; 'I' for Inactive)
REMARK    1  A    between atoms: O_3  and  C_19
REMARK    2  A    between atoms: O_3  and  C_31
REMARK    3  A    between atoms: C_20  and  C_27
REMARK    4  A    between atoms: C_28  and  C_32
REMARK                            x       y       z     vdW  Elec       q    Type
REMARK                         _______ _______ _______ _____ _____    ______ ____
ROOT
ATOM      1  O   UNL     1     110.853 128.779 139.206  0.00  0.00    +0.000 OA
ATOM      2  O   UNL     1     110.437 126.553 140.572  0.00  0.00    +0.000 OA
ATOM      3  O   UNL     1     107.994 129.167 141.190  0.00  0.00    +0.000 OA
ATOM      4  O   UNL     1     108.906 127.674 141.203  0.00  0.00    +0.000 OA
ATOM      5  C   UNL     1     109.184 130.897 139.470  0.00  0.00    +0.000 A 
ATOM      6  C   UNL     1     110.969 127.850 139.556  0.00  0.00    +0.000 A 
ATOM      7  C   UNL     1     110.087 129.340 139.521  0.00  0.00    +0.000 A 
ATOM      8  C   UNL     1     109.979 130.307 139.146  0.00  0.00    +0.000 A 
ATOM      9  C   UNL     1     109.438 128.973 140.187  0.00  0.00    +0.000 A 
ATOM     10  C   UNL     1     108.508 130.514 140.164  0.00  0.00    +0.000 A 
ATOM     11  C   UNL     1     110.321 127.482 140.222  0.00  0.00    +0.000 A 
ATOM     12  C   UNL     1     108.636 129.545 140.525  0.00  0.00    +0.000 A 
ATOM     13  C   UNL     1     109.555 128.043 140.537  0.00  0.00    +0.000 A 
ENDROOT
BRANCH   6  24
ATOM     14  O   UNL     1     114.067 125.558 138.249  0.00  0.00    +0.000 OA
ATOM     15  O   UNL     1     112.969 124.364 136.159  0.00  0.00    +0.000 OA
ATOM     16  C   UNL     1     113.956 124.972 137.446  0.00  0.00    +0.000 C 
ATOM     17  C   UNL     1     113.081 124.949 136.962  0.00  0.00    +0.000 C 
ATOM     18  C   UNL     1     112.318 125.511 137.281  0.00  0.00    +0.000 C 
ATOM     19  C   UNL     1     112.430 126.097 138.084  0.00  0.00    +0.000 A 
ATOM     20  C   UNL     1     113.304 126.120 138.568  0.00  0.00    +0.000 A 
ATOM     21  C   UNL     1     114.332 124.310 136.798  0.00  0.00    +0.000 C 
ATOM     22  C   UNL     1     114.901 124.661 137.541  0.00  0.00    +0.000 C 
ATOM     23  C   UNL     1     111.626 126.677 138.405  0.00  0.00    +0.000 A 
ATOM     24  C   UNL     1     111.735 127.289 139.240  0.00  0.00    +0.000 A 
ATOM     25  C   UNL     1     113.436 126.725 139.406  0.00  0.00    +0.000 A 
ATOM     26  C   UNL     1     112.646 127.314 139.745  0.00  0.00    +0.000 A 
ENDBRANCH   6  24
BRANCH   5  27
ATOM     27  O   UNL     1     109.071 131.826 139.117  0.00  0.00    +0.000 OA
BRANCH  27  35
ATOM     28  O   UNL     1     108.428 131.483 137.546  0.00  0.00    +0.000 OA
ATOM     29  O   UNL     1     110.306 133.487 136.340  0.00  0.00    +0.000 OA
ATOM     30  O   UNL     1     110.323 133.162 138.314  0.00  0.00    +0.000 OA
ATOM     31  O   UNL     1     109.038 132.476 135.171  0.00  0.00    +0.000 OA
ATOM     32  C   UNL     1     109.680 132.819 136.742  0.00  0.00    +0.000 C 
ATOM     33  C   UNL     1     109.689 132.657 137.729  0.00  0.00    +0.000 C 
ATOM     34  C   UNL     1     109.046 132.313 136.157  0.00  0.00    +0.000 C 
ATOM     35  C   UNL     1     109.063 131.988 138.131  0.00  0.00    +0.000 C 
ATOM     36  C   UNL     1     108.420 131.645 136.559  0.00  0.00    +0.000 C 
BRANCH  36  39
ATOM     37  O   UNL     1     106.868 131.499 135.804  0.00  0.00    +0.000 OA
ATOM     38  O   UNL     1     108.069 130.275 135.560  0.00  0.00    +0.000 OA
ATOM     39  C   UNL     1     107.786 131.139 135.975  0.00  0.00    +0.000 C 
ENDBRANCH  36  39
ENDBRANCH  27  35
ENDBRANCH   5  27
TORSDOF 4
ENDMDL
MODEL 3
REMARK VINA RESULT:     -10.2      1.366      2.222
REMARK  Name = 131832478
REMARK  4 active torsions:
REMARK  status: ('A' for Active; 'I' for Inactive)
REMARK    1  A    between atoms: O_3  and  C_19
REMARK    2  A    between atoms: O_3  and  C_31
REMARK    3  A    between atoms: C_20  and  C_27
REMARK    4  A    between atoms: C_28  and  C_32
REMARK                            x       y       z     vdW  Elec       q    Type
REMARK                         _______ _______ _______ _____ _____    ______ ____
ROOT
ATOM      1  O   UNL     1     105.203 128.438 143.250  0.00  0.00    +0.000 OA
ATOM      2  O   UNL     1     104.445 128.311 140.718  0.00  0.00    +0.000 OA
ATOM      3  O   UNL     1     105.933 125.253 141.991  0.00  0.00    +0.000 OA
ATOM      4  O   UNL     1     105.182 126.471 140.985  0.00  0.00    +0.000 OA
ATOM      5  C   UNL     1     106.345 126.301 144.461  0.00  0.00    +0.000 A 
ATOM      6  C   UNL     1     104.828 128.703 142.361  0.00  0.00    +0.000 A 
ATOM      7  C   UNL     1     105.572 127.518 143.383  0.00  0.00    +0.000 A 
ATOM      8  C   UNL     1     105.960 127.257 144.315  0.00  0.00    +0.000 A 
ATOM      9  C   UNL     1     105.565 126.862 142.629  0.00  0.00    +0.000 A 
ATOM     10  C   UNL     1     106.337 125.617 143.675  0.00  0.00    +0.000 A 
ATOM     11  C   UNL     1     104.821 128.047 141.607  0.00  0.00    +0.000 A 
ATOM     12  C   UNL     1     105.945 125.900 142.752  0.00  0.00    +0.000 A 
ATOM     13  C   UNL     1     105.189 127.127 141.740  0.00  0.00    +0.000 A 
ENDROOT
BRANCH   6  24
ATOM     14  O   UNL     1     103.302 132.436 141.825  0.00  0.00    +0.000 OA
ATOM     15  O   UNL     1     100.710 131.966 142.076  0.00  0.00    +0.000 OA
ATOM     16  C   UNL     1     102.314 132.586 141.864  0.00  0.00    +0.000 C 
ATOM     17  C   UNL     1     101.698 131.817 142.036  0.00  0.00    +0.000 C 
ATOM     18  C   UNL     1     102.070 130.898 142.168  0.00  0.00    +0.000 C 
ATOM     19  C   UNL     1     103.058 130.749 142.129  0.00  0.00    +0.000 A 
ATOM     20  C   UNL     1     103.674 131.518 141.957  0.00  0.00    +0.000 A 
ATOM     21  C   UNL     1     101.528 133.203 141.811  0.00  0.00    +0.000 C 
ATOM     22  C   UNL     1     102.454 133.560 141.689  0.00  0.00    +0.000 C 
ATOM     23  C   UNL     1     103.431 129.786 142.268  0.00  0.00    +0.000 A 
ATOM     24  C   UNL     1     104.460 129.622 142.229  0.00  0.00    +0.000 A 
ATOM     25  C   UNL     1     104.706 131.377 141.913  0.00  0.00    +0.000 A 
ATOM     26  C   UNL     1     105.101 130.423 142.050  0.00  0.00    +0.000 A 
ENDBRANCH   6  24
BRANCH   5  27
ATOM     27  O   UNL     1     106.720 126.040 145.351  0.00  0.00    +0.000 OA
BRANCH  27  35
ATOM     28  O   UNL     1     105.381 125.018 145.756  0.00  0.00    +0.000 OA
ATOM     29  O   UNL     1     105.845 125.567 148.669  0.00  0.00    +0.000 OA
ATOM     30  O   UNL     1     107.029 126.406 147.292  0.00  0.00    +0.000 OA
ATOM     31  O   UNL     1     104.352 124.362 148.104  0.00  0.00    +0.000 OA
ATOM     32  C   UNL     1     105.690 125.384 147.698  0.00  0.00    +0.000 C 
ATOM     33  C   UNL     1     106.282 125.803 147.010  0.00  0.00    +0.000 C 
ATOM     34  C   UNL     1     104.944 124.781 147.416  0.00  0.00    +0.000 C 
ATOM     35  C   UNL     1     106.128 125.620 146.039  0.00  0.00    +0.000 C 
ATOM     36  C   UNL     1     104.789 124.598 146.445  0.00  0.00    +0.000 C 
BRANCH  36  39
ATOM     37  O   UNL     1     103.113 124.355 146.084  0.00  0.00    +0.000 OA
ATOM     38  O   UNL     1     104.227 123.035 145.957  0.00  0.00    +0.000 OA
ATOM     39  C   UNL     1     104.043 123.996 146.162  0.00  0.00    +0.000 C 
ENDBRANCH  36  39
ENDBRANCH  27  35
ENDBRANCH   5  27
TORSDOF 4
ENDMDL
MODEL 4
REMARK VINA RESULT:     -10.2      2.141      3.688
REMARK  Name = 131832478
REMARK  4 active torsions:
REMARK  status: ('A' for Active; 'I' for Inactive)
REMARK    1  A    between atoms: O_3  and  C_19
REMARK    2  A    between atoms: O_3  and  C_31
REMARK    3  A    between atoms: C_20  and  C_27
REMARK    4  A    between atoms: C_28  and  C_32
REMARK                            x       y       z     vdW  Elec       q    Type
REMARK                         _______ _______ _______ _____ _____    ______ ____
ROOT
ATOM      1  O   UNL     1     104.866 127.994 145.657  0.00  0.00    +0.000 OA
ATOM      2  O   UNL     1     106.778 129.116 144.214  0.00  0.00    +0.000 OA
ATOM      3  O   UNL     1     107.979 126.895 146.824  0.00  0.00    +0.000 OA
ATOM      4  O   UNL     1     107.860 128.014 145.485  0.00  0.00    +0.000 OA
ATOM      5  C   UNL     1     105.473 126.290 147.674  0.00  0.00    +0.000 A 
ATOM      6  C   UNL     1     105.323 128.552 144.964  0.00  0.00    +0.000 A 
ATOM      7  C   UNL     1     105.407 127.443 146.292  0.00  0.00    +0.000 A 
ATOM      8  C   UNL     1     104.916 126.866 147.009  0.00  0.00    +0.000 A 
ATOM      9  C   UNL     1     106.405 127.449 146.235  0.00  0.00    +0.000 A 
ATOM     10  C   UNL     1     106.513 126.297 147.614  0.00  0.00    +0.000 A 
ATOM     11  C   UNL     1     106.321 128.558 144.907  0.00  0.00    +0.000 A 
ATOM     12  C   UNL     1     106.982 126.881 146.890  0.00  0.00    +0.000 A 
ATOM     13  C   UNL     1     106.862 128.007 145.543  0.00  0.00    +0.000 A 
ENDROOT
BRANCH   6  24
ATOM     14  O   UNL     1     103.122 130.772 142.359  0.00  0.00    +0.000 OA
ATOM     15  O   UNL     1     103.123 129.202 140.228  0.00  0.00    +0.000 OA
ATOM     16  C   UNL     1     102.942 130.431 141.436  0.00  0.00    +0.000 C 
ATOM     17  C   UNL     1     103.303 129.543 141.151  0.00  0.00    +0.000 C 
ATOM     18  C   UNL     1     103.844 128.995 141.789  0.00  0.00    +0.000 C 
ATOM     19  C   UNL     1     104.024 129.336 142.712  0.00  0.00    +0.000 A 
ATOM     20  C   UNL     1     103.663 130.224 142.997  0.00  0.00    +0.000 A 
ATOM     21  C   UNL     1     102.526 130.551 140.535  0.00  0.00    +0.000 C 
ATOM     22  C   UNL     1     102.421 131.260 141.232  0.00  0.00    +0.000 C 
ATOM     23  C   UNL     1     104.590 128.754 143.366  0.00  0.00    +0.000 A 
ATOM     24  C   UNL     1     104.782 129.102 144.329  0.00  0.00    +0.000 A 
ATOM     25  C   UNL     1     103.843 130.592 143.955  0.00  0.00    +0.000 A 
ATOM     26  C   UNL     1     104.406 130.027 144.626  0.00  0.00    +0.000 A 
ENDBRANCH   6  24
BRANCH   5  27
ATOM     27  O   UNL     1     105.012 125.734 148.365  0.00  0.00    +0.000 OA
BRANCH  27  35
ATOM     28  O   UNL     1     104.396 124.622 147.189  0.00  0.00    +0.000 OA
ATOM     29  O   UNL     1     102.169 123.879 149.058  0.00  0.00    +0.000 OA
ATOM     30  O   UNL     1     103.528 125.238 149.611  0.00  0.00    +0.000 OA
ATOM     31  O   UNL     1     102.295 123.015 147.258  0.00  0.00    +0.000 OA
ATOM     32  C   UNL     1     102.911 124.127 148.435  0.00  0.00    +0.000 C 
ATOM     33  C   UNL     1     103.591 124.806 148.711  0.00  0.00    +0.000 C 
ATOM     34  C   UNL     1     102.974 123.694 147.535  0.00  0.00    +0.000 C 
ATOM     35  C   UNL     1     104.333 125.054 148.088  0.00  0.00    +0.000 C 
ATOM     36  C   UNL     1     103.716 123.942 146.912  0.00  0.00    +0.000 C 
BRANCH  36  39
ATOM     37  O   UNL     1     103.159 123.789 145.279  0.00  0.00    +0.000 OA
ATOM     38  O   UNL     1     104.462 122.798 145.846  0.00  0.00    +0.000 OA
ATOM     39  C   UNL     1     103.779 123.510 146.013  0.00  0.00    +0.000 C 
ENDBRANCH  36  39
ENDBRANCH  27  35
ENDBRANCH   5  27
TORSDOF 4
ENDMDL
MODEL 5
REMARK VINA RESULT:     -10.2      5.870      7.697
REMARK  Name = 131832478
REMARK  4 active torsions:
REMARK  status: ('A' for Active; 'I' for Inactive)
REMARK    1  A    between atoms: O_3  and  C_19
REMARK    2  A    between atoms: O_3  and  C_31
REMARK    3  A    between atoms: C_20  and  C_27
REMARK    4  A    between atoms: C_28  and  C_32
REMARK                            x       y       z     vdW  Elec       q    Type
REMARK                         _______ _______ _______ _____ _____    ______ ____
ROOT
ATOM      1  O   UNL     1     111.311 130.746 144.609  0.00  0.00    +0.000 OA
ATOM      2  O   UNL     1     112.181 133.205 144.169  0.00  0.00    +0.000 OA
ATOM      3  O   UNL     1     112.910 130.858 141.496  0.00  0.00    +0.000 OA
ATOM      4  O   UNL     1     112.782 132.287 142.497  0.00  0.00    +0.000 OA
ATOM      5  C   UNL     1     111.716 128.787 142.783  0.00  0.00    +0.000 A 
ATOM      6  C   UNL     1     111.501 131.719 144.741  0.00  0.00    +0.000 A 
ATOM      7  C   UNL     1     111.611 130.287 143.774  0.00  0.00    +0.000 A 
ATOM      8  C   UNL     1     111.406 129.272 143.651  0.00  0.00    +0.000 A 
ATOM      9  C   UNL     1     112.102 130.800 143.069  0.00  0.00    +0.000 A 
ATOM     10  C   UNL     1     112.227 129.322 142.049  0.00  0.00    +0.000 A 
ATOM     11  C   UNL     1     111.991 132.232 144.037  0.00  0.00    +0.000 A 
ATOM     12  C   UNL     1     112.421 130.335 142.194  0.00  0.00    +0.000 A 
ATOM     13  C   UNL     1     112.292 131.773 143.201  0.00  0.00    +0.000 A 
ENDROOT
BRANCH   6  24
ATOM     14  O   UNL     1     110.249 133.587 148.133  0.00  0.00    +0.000 OA
ATOM     15  O   UNL     1     107.660 133.838 147.648  0.00  0.00    +0.000 OA
ATOM     16  C   UNL     1     109.284 133.824 148.249  0.00  0.00    +0.000 C 
ATOM     17  C   UNL     1     108.625 133.602 147.531  0.00  0.00    +0.000 C 
ATOM     18  C   UNL     1     108.930 133.142 146.697  0.00  0.00    +0.000 C 
ATOM     19  C   UNL     1     109.894 132.906 146.580  0.00  0.00    +0.000 A 
ATOM     20  C   UNL     1     110.554 133.128 147.298  0.00  0.00    +0.000 A 
ATOM     21  C   UNL     1     108.552 134.226 148.798  0.00  0.00    +0.000 C 
ATOM     22  C   UNL     1     109.489 134.217 149.145  0.00  0.00    +0.000 C 
ATOM     23  C   UNL     1     110.197 132.428 145.706  0.00  0.00    +0.000 A 
ATOM     24  C   UNL     1     111.200 132.178 145.577  0.00  0.00    +0.000 A 
ATOM     25  C   UNL     1     111.562 132.888 147.191  0.00  0.00    +0.000 A 
ATOM     26  C   UNL     1     111.888 132.410 146.325  0.00  0.00    +0.000 A 
ENDBRANCH   6  24
BRANCH   5  27
ATOM     27  O   UNL     1     111.524 127.814 142.655  0.00  0.00    +0.000 OA
BRANCH  27  35
ATOM     28  O   UNL     1     109.884 128.014 142.134  0.00  0.00    +0.000 OA
ATOM     29  O   UNL     1     110.196 125.692 140.261  0.00  0.00    +0.000 OA
ATOM     30  O   UNL     1     111.732 126.266 141.406  0.00  0.00    +0.000 OA
ATOM     31  O   UNL     1     108.452 126.666 140.365  0.00  0.00    +0.000 OA
ATOM     32  C   UNL     1     110.092 126.466 140.885  0.00  0.00    +0.000 C 
ATOM     33  C   UNL     1     110.860 126.753 141.458  0.00  0.00    +0.000 C 
ATOM     34  C   UNL     1     109.220 126.953 140.938  0.00  0.00    +0.000 C 
ATOM     35  C   UNL     1     110.756 127.527 142.082  0.00  0.00    +0.000 C 
ATOM     36  C   UNL     1     109.116 127.727 141.562  0.00  0.00    +0.000 C 
BRANCH  36  39
ATOM     37  O   UNL     1     108.035 128.936 140.955  0.00  0.00    +0.000 OA
ATOM     38  O   UNL     1     107.582 127.979 142.326  0.00  0.00    +0.000 OA
ATOM     39  C   UNL     1     108.244 128.214 141.614  0.00  0.00    +0.000 C 
ENDBRANCH  36  39
ENDBRANCH  27  35
ENDBRANCH   5  27
TORSDOF 4
ENDMDL
MODEL 6
REMARK VINA RESULT:     -10.2      5.783      9.600
REMARK  Name = 131832478
REMARK  4 active torsions:
REMARK  status: ('A' for Active; 'I' for Inactive)
REMARK    1  A    between atoms: O_3  and  C_19
REMARK    2  A    between atoms: O_3  and  C_31
REMARK    3  A    between atoms: C_20  and  C_27
REMARK    4  A    between atoms: C_28  and  C_32
REMARK                            x       y       z     vdW  Elec       q    Type
REMARK                         _______ _______ _______ _____ _____    ______ ____
ROOT
ATOM      1  O   UNL     1     112.221 128.623 141.355  0.00  0.00    +0.000 OA
ATOM      2  O   UNL     1     114.474 129.680 140.458  0.00  0.00    +0.000 OA
ATOM      3  O   UNL     1     112.588 131.843 142.682  0.00  0.00    +0.000 OA
ATOM      4  O   UNL     1     113.789 131.168 141.605  0.00  0.00    +0.000 OA
ATOM      5  C   UNL     1     110.612 130.014 143.033  0.00  0.00    +0.000 A 
ATOM      6  C   UNL     1     113.086 128.728 140.865  0.00  0.00    +0.000 A 
ATOM      7  C   UNL     1     111.878 129.367 141.929  0.00  0.00    +0.000 A 
ATOM      8  C   UNL     1     110.975 129.244 142.434  0.00  0.00    +0.000 A 
ATOM      9  C   UNL     1     112.401 130.216 142.013  0.00  0.00    +0.000 A 
ATOM     10  C   UNL     1     111.156 130.898 143.120  0.00  0.00    +0.000 A 
ATOM     11  C   UNL     1     113.609 129.576 140.948  0.00  0.00    +0.000 A 
ATOM     12  C   UNL     1     112.057 130.999 142.606  0.00  0.00    +0.000 A 
ATOM     13  C   UNL     1     113.266 130.320 141.522  0.00  0.00    +0.000 A 
ENDROOT
BRANCH   6  24
ATOM     14  O   UNL     1     114.460 125.707 138.509  0.00  0.00    +0.000 OA
ATOM     15  O   UNL     1     113.015 126.072 136.322  0.00  0.00    +0.000 OA
ATOM     16  C   UNL     1     114.091 125.581 137.588  0.00  0.00    +0.000 C 
ATOM     17  C   UNL     1     113.384 126.198 137.243  0.00  0.00    +0.000 C 
ATOM     18  C   UNL     1     113.044 126.941 137.820  0.00  0.00    +0.000 C 
ATOM     19  C   UNL     1     113.413 127.067 138.741  0.00  0.00    +0.000 A 
ATOM     20  C   UNL     1     114.120 126.450 139.086  0.00  0.00    +0.000 A 
ATOM     21  C   UNL     1     114.074 125.079 136.723  0.00  0.00    +0.000 C 
ATOM     22  C   UNL     1     114.696 124.796 137.454  0.00  0.00    +0.000 C 
ATOM     23  C   UNL     1     113.049 127.846 139.331  0.00  0.00    +0.000 A 
ATOM     24  C   UNL     1     113.428 127.983 140.291  0.00  0.00    +0.000 A 
ATOM     25  C   UNL     1     114.514 126.569 140.043  0.00  0.00    +0.000 A 
ATOM     26  C   UNL     1     114.166 127.341 140.650  0.00  0.00    +0.000 A 
ENDBRANCH   6  24
BRANCH   5  27
ATOM     27  O   UNL     1     109.747 129.906 143.522  0.00  0.00    +0.000 OA
BRANCH  27  35
ATOM     28  O   UNL     1     108.736 130.200 142.147  0.00  0.00    +0.000 OA
ATOM     29  O   UNL     1     106.711 128.264 143.222  0.00  0.00    +0.000 OA
ATOM     30  O   UNL     1     108.397 128.616 144.239  0.00  0.00    +0.000 OA
ATOM     31  O   UNL     1     106.375 129.203 141.489  0.00  0.00    +0.000 OA
ATOM     32  C   UNL     1     107.386 128.910 142.864  0.00  0.00    +0.000 C 
ATOM     33  C   UNL     1     108.229 129.085 143.372  0.00  0.00    +0.000 C 
ATOM     34  C   UNL     1     107.218 129.379 141.997  0.00  0.00    +0.000 C 
ATOM     35  C   UNL     1     108.904 129.730 143.014  0.00  0.00    +0.000 C 
ATOM     36  C   UNL     1     107.893 130.024 141.639  0.00  0.00    +0.000 C 
BRANCH  36  39
ATOM     37  O   UNL     1     107.129 131.297 140.746  0.00  0.00    +0.000 OA
ATOM     38  O   UNL     1     108.152 130.160 139.932  0.00  0.00    +0.000 OA
ATOM     39  C   UNL     1     107.725 130.494 140.772  0.00  0.00    +0.000 C 
ENDBRANCH  36  39
ENDBRANCH  27  35
ENDBRANCH   5  27
TORSDOF 4
ENDMDL
MODEL 7
REMARK VINA RESULT:     -10.1      1.977      7.788
REMARK  Name = 131832478
REMARK  4 active torsions:
REMARK  status: ('A' for Active; 'I' for Inactive)
REMARK    1  A    between atoms: O_3  and  C_19
REMARK    2  A    between atoms: O_3  and  C_31
REMARK    3  A    between atoms: C_20  and  C_27
REMARK    4  A    between atoms: C_28  and  C_32
REMARK                            x       y       z     vdW  Elec       q    Type
REMARK                         _______ _______ _______ _____ _____    ______ ____
ROOT
ATOM      1  O   UNL     1     104.469 129.119 143.611  0.00  0.00    +0.000 OA
ATOM      2  O   UNL     1     105.611 127.105 142.331  0.00  0.00    +0.000 OA
ATOM      3  O   UNL     1     103.355 129.089 140.291  0.00  0.00    +0.000 OA
ATOM      4  O   UNL     1     104.492 127.894 140.873  0.00  0.00    +0.000 OA
ATOM      5  C   UNL     1     102.739 130.767 142.335  0.00  0.00    +0.000 A 
ATOM      6  C   UNL     1     105.036 128.316 143.427  0.00  0.00    +0.000 A 
ATOM      7  C   UNL     1     103.910 129.514 142.882  0.00  0.00    +0.000 A 
ATOM      8  C   UNL     1     103.324 130.351 143.089  0.00  0.00    +0.000 A 
ATOM      9  C   UNL     1     103.917 129.106 141.970  0.00  0.00    +0.000 A 
ATOM     10  C   UNL     1     102.746 130.342 141.384  0.00  0.00    +0.000 A 
ATOM     11  C   UNL     1     105.044 127.908 142.515  0.00  0.00    +0.000 A 
ATOM     12  C   UNL     1     103.340 129.505 141.200  0.00  0.00    +0.000 A 
ATOM     13  C   UNL     1     104.484 128.303 141.786  0.00  0.00    +0.000 A 
ENDROOT
BRANCH   6  24
ATOM     14  O   UNL     1     107.293 126.690 146.397  0.00  0.00    +0.000 OA
ATOM     15  O   UNL     1     105.923 124.490 146.929  0.00  0.00    +0.000 OA
ATOM     16  C   UNL     1     107.022 125.824 146.818  0.00  0.00    +0.000 C 
ATOM     17  C   UNL     1     106.194 125.356 146.509  0.00  0.00    +0.000 C 
ATOM     18  C   UNL     1     105.638 125.753 145.779  0.00  0.00    +0.000 C 
ATOM     19  C   UNL     1     105.909 126.619 145.359  0.00  0.00    +0.000 A 
ATOM     20  C   UNL     1     106.737 127.087 145.668  0.00  0.00    +0.000 A 
ATOM     21  C   UNL     1     107.187 125.095 147.482  0.00  0.00    +0.000 C 
ATOM     22  C   UNL     1     107.821 125.865 147.417  0.00  0.00    +0.000 C 
ATOM     23  C   UNL     1     105.319 127.021 144.600  0.00  0.00    +0.000 A 
ATOM     24  C   UNL     1     105.596 127.922 144.157  0.00  0.00    +0.000 A 
ATOM     25  C   UNL     1     107.032 127.990 145.239  0.00  0.00    +0.000 A 
ATOM     26  C   UNL     1     106.458 128.410 144.478  0.00  0.00    +0.000 A 
ENDBRANCH   6  24
BRANCH   5  27
ATOM     27  O   UNL     1     102.173 131.570 142.522  0.00  0.00    +0.000 OA
BRANCH  27  35
ATOM     28  O   UNL     1     103.322 132.657 141.816  0.00  0.00    +0.000 OA
ATOM     29  O   UNL     1     101.128 134.633 141.288  0.00  0.00    +0.000 OA
ATOM     30  O   UNL     1     100.710 132.888 142.170  0.00  0.00    +0.000 OA
ATOM     31  O   UNL     1     103.008 135.061 140.759  0.00  0.00    +0.000 OA
ATOM     32  C   UNL     1     101.859 133.974 141.464  0.00  0.00    +0.000 C 
ATOM     33  C   UNL     1     101.650 133.102 141.905  0.00  0.00    +0.000 C 
ATOM     34  C   UNL     1     102.799 134.188 141.199  0.00  0.00    +0.000 C 
ATOM     35  C   UNL     1     102.382 132.443 142.081  0.00  0.00    +0.000 C 
ATOM     36  C   UNL     1     103.531 133.530 141.375  0.00  0.00    +0.000 C 
BRANCH  36  39
ATOM     37  O   UNL     1     105.072 134.227 141.747  0.00  0.00    +0.000 OA
ATOM     38  O   UNL     1     104.810 133.474 140.209  0.00  0.00    +0.000 OA
ATOM     39  C   UNL     1     104.471 133.743 141.111  0.00  0.00    +0.000 C 
ENDBRANCH  36  39
ENDBRANCH  27  35
ENDBRANCH   5  27
TORSDOF 4
ENDMDL
MODEL 8
REMARK VINA RESULT:     -10.1      6.475     10.134
REMARK  Name = 131832478
REMARK  4 active torsions:
REMARK  status: ('A' for Active; 'I' for Inactive)
REMARK    1  A    between atoms: O_3  and  C_19
REMARK    2  A    between atoms: O_3  and  C_31
REMARK    3  A    between atoms: C_20  and  C_27
REMARK    4  A    between atoms: C_28  and  C_32
REMARK                            x       y       z     vdW  Elec       q    Type
REMARK                         _______ _______ _______ _____ _____    ______ ____
ROOT
ATOM      1  O   UNL     1     111.829 129.342 138.944  0.00  0.00    +0.000 OA
ATOM      2  O   UNL     1     110.296 127.982 137.273  0.00  0.00    +0.000 OA
ATOM      3  O   UNL     1     108.479 130.192 139.509  0.00  0.00    +0.000 OA
ATOM      4  O   UNL     1     108.921 129.031 138.277  0.00  0.00    +0.000 OA
ATOM      5  C   UNL     1     110.742 131.068 140.727  0.00  0.00    +0.000 A 
ATOM      6  C   UNL     1     111.547 128.714 138.220  0.00  0.00    +0.000 A 
ATOM      7  C   UNL     1     111.142 129.867 139.447  0.00  0.00    +0.000 A 
ATOM      8  C   UNL     1     111.452 130.518 140.200  0.00  0.00    +0.000 A 
ATOM      9  C   UNL     1     110.173 129.764 139.225  0.00  0.00    +0.000 A 
ATOM     10  C   UNL     1     109.732 130.960 140.496  0.00  0.00    +0.000 A 
ATOM     11  C   UNL     1     110.578 128.610 137.997  0.00  0.00    +0.000 A 
ATOM     12  C   UNL     1     109.445 130.303 139.739  0.00  0.00    +0.000 A 
ATOM     13  C   UNL     1     109.891 129.135 138.500  0.00  0.00    +0.000 A 
ENDROOT
BRANCH   6  24
ATOM     14  O   UNL     1     114.342 126.557 136.196  0.00  0.00    +0.000 OA
ATOM     15  O   UNL     1     114.407 124.336 137.632  0.00  0.00    +0.000 OA
ATOM     16  C   UNL     1     114.593 125.641 136.508  0.00  0.00    +0.000 C 
ATOM     17  C   UNL     1     114.157 125.253 137.319  0.00  0.00    +0.000 C 
ATOM     18  C   UNL     1     113.469 125.780 137.819  0.00  0.00    +0.000 C 
ATOM     19  C   UNL     1     113.219 126.697 137.506  0.00  0.00    +0.000 A 
ATOM     20  C   UNL     1     113.655 127.085 136.695  0.00  0.00    +0.000 A 
ATOM     21  C   UNL     1     115.134 124.807 136.400  0.00  0.00    +0.000 C 
ATOM     22  C   UNL     1     115.242 125.561 135.751  0.00  0.00    +0.000 C 
ATOM     23  C   UNL     1     112.501 127.234 138.037  0.00  0.00    +0.000 A 
ATOM     24  C   UNL     1     112.235 128.190 137.717  0.00  0.00    +0.000 A 
ATOM     25  C   UNL     1     113.404 128.039 136.357  0.00  0.00    +0.000 A 
ATOM     26  C   UNL     1     112.689 128.595 136.872  0.00  0.00    +0.000 A 
ENDBRANCH   6  24
BRANCH   5  27
ATOM     27  O   UNL     1     111.028 131.695 141.452  0.00  0.00    +0.000 OA
BRANCH  27  35
ATOM     28  O   UNL     1     110.996 130.400 142.600  0.00  0.00    +0.000 OA
ATOM     29  O   UNL     1     112.246 132.192 144.656  0.00  0.00    +0.000 OA
ATOM     30  O   UNL     1     111.861 132.890 142.822  0.00  0.00    +0.000 OA
ATOM     31  O   UNL     1     111.798 130.298 145.120  0.00  0.00    +0.000 OA
ATOM     32  C   UNL     1     111.829 131.594 143.971  0.00  0.00    +0.000 C 
ATOM     33  C   UNL     1     111.637 131.943 143.054  0.00  0.00    +0.000 C 
ATOM     34  C   UNL     1     111.605 130.648 144.203  0.00  0.00    +0.000 C 
ATOM     35  C   UNL     1     111.220 131.346 142.369  0.00  0.00    +0.000 C 
ATOM     36  C   UNL     1     111.188 130.050 143.517  0.00  0.00    +0.000 C 
BRANCH  36  39
ATOM     37  O   UNL     1     111.654 128.387 143.646  0.00  0.00    +0.000 OA
ATOM     38  O   UNL     1     110.050 128.874 144.084  0.00  0.00    +0.000 OA
ATOM     39  C   UNL     1     110.964 129.104 143.749  0.00  0.00    +0.000 C 
ENDBRANCH  36  39
ENDBRANCH  27  35
ENDBRANCH   5  27
TORSDOF 4
ENDMDL
MODEL 9
REMARK VINA RESULT:      -9.9      4.742      8.473
REMARK  Name = 131832478
REMARK  4 active torsions:
REMARK  status: ('A' for Active; 'I' for Inactive)
REMARK    1  A    between atoms: O_3  and  C_19
REMARK    2  A    between atoms: O_3  and  C_31
REMARK    3  A    between atoms: C_20  and  C_27
REMARK    4  A    between atoms: C_28  and  C_32
REMARK                            x       y       z     vdW  Elec       q    Type
REMARK                         _______ _______ _______ _____ _____    ______ ____
ROOT
ATOM      1  O   UNL     1     110.237 127.239 140.560  0.00  0.00    +0.000 OA
ATOM      2  O   UNL     1     110.991 128.965 138.702  0.00  0.00    +0.000 OA
ATOM      3  O   UNL     1     108.053 129.976 140.582  0.00  0.00    +0.000 OA
ATOM      4  O   UNL     1     109.392 129.898 139.459  0.00  0.00    +0.000 OA
ATOM      5  C   UNL     1     108.075 127.736 142.115  0.00  0.00    +0.000 A 
ATOM      6  C   UNL     1     110.755 127.659 139.814  0.00  0.00    +0.000 A 
ATOM      7  C   UNL     1     109.437 127.705 140.939  0.00  0.00    +0.000 A 
ATOM      8  C   UNL     1     108.908 127.255 141.715  0.00  0.00    +0.000 A 
ATOM      9  C   UNL     1     109.156 128.592 140.572  0.00  0.00    +0.000 A 
ATOM     10  C   UNL     1     107.781 128.659 141.733  0.00  0.00    +0.000 A 
ATOM     11  C   UNL     1     110.473 128.545 139.448  0.00  0.00    +0.000 A 
ATOM     12  C   UNL     1     108.326 129.090 140.956  0.00  0.00    +0.000 A 
ATOM     13  C   UNL     1     109.673 129.012 139.827  0.00  0.00    +0.000 A 
ENDROOT
BRANCH   6  24
ATOM     14  O   UNL     1     113.989 125.744 138.255  0.00  0.00    +0.000 OA
ATOM     15  O   UNL     1     112.856 124.310 136.342  0.00  0.00    +0.000 OA
ATOM     16  C   UNL     1     113.877 125.109 137.491  0.00  0.00    +0.000 C 
ATOM     17  C   UNL     1     112.968 124.944 137.107  0.00  0.00    +0.000 C 
ATOM     18  C   UNL     1     112.172 125.413 137.488  0.00  0.00    +0.000 C 
ATOM     19  C   UNL     1     112.284 126.048 138.253  0.00  0.00    +0.000 A 
ATOM     20  C   UNL     1     113.192 126.213 138.637  0.00  0.00    +0.000 A 
ATOM     21  C   UNL     1     114.272 124.472 136.829  0.00  0.00    +0.000 C 
ATOM     22  C   UNL     1     114.861 124.934 137.492  0.00  0.00    +0.000 C 
ATOM     23  C   UNL     1     111.445 126.529 138.639  0.00  0.00    +0.000 A 
ATOM     24  C   UNL     1     111.554 127.192 139.436  0.00  0.00    +0.000 A 
ATOM     25  C   UNL     1     113.325 126.871 139.433  0.00  0.00    +0.000 A 
ATOM     26  C   UNL     1     112.500 127.364 139.836  0.00  0.00    +0.000 A 
ENDBRANCH   6  24
BRANCH   5  27
ATOM     27  O   UNL     1     107.560 127.313 142.860  0.00  0.00    +0.000 OA
BRANCH  27  35
ATOM     28  O   UNL     1     106.674 126.346 141.729  0.00  0.00    +0.000 OA
ATOM     29  O   UNL     1     105.613 124.678 143.985  0.00  0.00    +0.000 OA
ATOM     30  O   UNL     1     106.852 126.201 144.365  0.00  0.00    +0.000 OA
ATOM     31  O   UNL     1     105.080 124.267 142.102  0.00  0.00    +0.000 OA
ATOM     32  C   UNL     1     105.966 125.234 143.233  0.00  0.00    +0.000 C 
ATOM     33  C   UNL     1     106.586 125.995 143.423  0.00  0.00    +0.000 C 
ATOM     34  C   UNL     1     105.700 125.028 142.291  0.00  0.00    +0.000 C 
ATOM     35  C   UNL     1     106.940 126.551 142.671  0.00  0.00    +0.000 C 
ATOM     36  C   UNL     1     106.054 125.584 141.539  0.00  0.00    +0.000 C 
BRANCH  36  39
ATOM     37  O   UNL     1     104.931 125.741 140.230  0.00  0.00    +0.000 OA
ATOM     38  O   UNL     1     106.378 124.811 140.024  0.00  0.00    +0.000 OA
ATOM     39  C   UNL     1     105.788 125.379 140.598  0.00  0.00    +0.000 C 
ENDBRANCH  36  39
ENDBRANCH  27  35
ENDBRANCH   5  27
TORSDOF 4
ENDMDL
MODEL 10
REMARK VINA RESULT:      -9.9      4.301      6.575
REMARK  Name = 131832478
REMARK  4 active torsions:
REMARK  status: ('A' for Active; 'I' for Inactive)
REMARK    1  A    between atoms: O_3  and  C_19
REMARK    2  A    between atoms: O_3  and  C_31
REMARK    3  A    between atoms: C_20  and  C_27
REMARK    4  A    between atoms: C_28  and  C_32
REMARK                            x       y       z     vdW  Elec       q    Type
REMARK                         _______ _______ _______ _____ _____    ______ ____
ROOT
ATOM      1  O   UNL     1     109.839 128.262 142.384  0.00  0.00    +0.000 OA
ATOM      2  O   UNL     1     112.464 127.988 142.205  0.00  0.00    +0.000 OA
ATOM      3  O   UNL     1     110.571 125.539 140.306  0.00  0.00    +0.000 OA
ATOM      4  O   UNL     1     111.847 126.481 141.043  0.00  0.00    +0.000 OA
ATOM      5  C   UNL     1     108.179 126.572 141.069  0.00  0.00    +0.000 A 
ATOM      6  C   UNL     1     110.817 128.421 142.518  0.00  0.00    +0.000 A 
ATOM      7  C   UNL     1     109.530 127.508 141.803  0.00  0.00    +0.000 A 
ATOM      8  C   UNL     1     108.508 127.354 141.673  0.00  0.00    +0.000 A 
ATOM      9  C   UNL     1     110.199 126.915 141.356  0.00  0.00    +0.000 A 
ATOM     10  C   UNL     1     108.876 125.954 140.603  0.00  0.00    +0.000 A 
ATOM     11  C   UNL     1     111.486 127.828 142.071  0.00  0.00    +0.000 A 
ATOM     12  C   UNL     1     109.894 126.126 140.748  0.00  0.00    +0.000 A 
ATOM     13  C   UNL     1     111.177 127.075 141.490  0.00  0.00    +0.000 A 
ENDROOT
BRANCH   6  24
ATOM     14  O   UNL     1     112.068 131.506 144.859  0.00  0.00    +0.000 OA
ATOM     15  O   UNL     1     111.999 133.512 143.135  0.00  0.00    +0.000 OA
ATOM     16  C   UNL     1     112.148 132.427 144.476  0.00  0.00    +0.000 C 
ATOM     17  C   UNL     1     111.920 132.591 143.517  0.00  0.00    +0.000 C 
ATOM     18  C   UNL     1     111.612 131.835 142.939  0.00  0.00    +0.000 C 
ATOM     19  C   UNL     1     111.532 130.914 143.321  0.00  0.00    +0.000 A 
ATOM     20  C   UNL     1     111.761 130.750 144.281  0.00  0.00    +0.000 A 
ATOM     21  C   UNL     1     112.371 133.395 144.589  0.00  0.00    +0.000 C 
ATOM     22  C   UNL     1     112.457 132.768 145.364  0.00  0.00    +0.000 C 
ATOM     23  C   UNL     1     111.211 130.137 142.708  0.00  0.00    +0.000 A 
ATOM     24  C   UNL     1     111.125 129.175 143.098  0.00  0.00    +0.000 A 
ATOM     25  C   UNL     1     111.683 129.796 144.693  0.00  0.00    +0.000 A 
ATOM     26  C   UNL     1     111.363 129.003 144.098  0.00  0.00    +0.000 A 
ENDBRANCH   6  24
BRANCH   5  27
ATOM     27  O   UNL     1     107.200 126.415 140.937  0.00  0.00    +0.000 OA
BRANCH  27  35
ATOM     28  O   UNL     1     106.642 126.169 142.558  0.00  0.00    +0.000 OA
ATOM     29  O   UNL     1     105.234 123.666 141.693  0.00  0.00    +0.000 OA
ATOM     30  O   UNL     1     106.261 124.746 140.360  0.00  0.00    +0.000 OA
ATOM     31  O   UNL     1     105.145 124.254 143.602  0.00  0.00    +0.000 OA
ATOM     32  C   UNL     1     105.703 124.500 141.981  0.00  0.00    +0.000 C 
ATOM     33  C   UNL     1     106.217 125.040 141.315  0.00  0.00    +0.000 C 
ATOM     34  C   UNL     1     105.659 124.794 142.936  0.00  0.00    +0.000 C 
ATOM     35  C   UNL     1     106.686 125.875 141.603  0.00  0.00    +0.000 C 
ATOM     36  C   UNL     1     106.128 125.629 143.224  0.00  0.00    +0.000 C 
BRANCH  36  39
ATOM     37  O   UNL     1     106.812 125.668 144.815  0.00  0.00    +0.000 OA
ATOM     38  O   UNL     1     105.310 126.471 144.498  0.00  0.00    +0.000 OA
ATOM     39  C   UNL     1     106.084 125.923 144.179  0.00  0.00    +0.000 C 
ENDBRANCH  36  39
ENDBRANCH  27  35
ENDBRANCH   5  27
TORSDOF 4
ENDMDL
