MODEL 1
REMARK VINA RESULT:     -10.2      0.000      0.000
REMARK  Name = 44257905
REMARK  14 active torsions:
REMARK  status: ('A' for Active; 'I' for Inactive)
REMARK    1  A    between atoms: O_1  and  C_22
REMARK    2  A    between atoms: O_1  and  C_23
REMARK    3  A    between atoms: O_4  and  C_32
REMARK    4  A    between atoms: O_4  and  C_33
REMARK    5  A    between atoms: O_11  and  C_31
REMARK    6  A    between atoms: O_11  and  C_40
REMARK    7  A    between atoms: O_12  and  C_36
REMARK    8  A    between atoms: O_12  and  C_41
REMARK    9  A    between atoms: O_15  and  C_38
REMARK   10  A    between atoms: O_15  and  C_43
REMARK   11  A    between atoms: O_21  and  C_58
REMARK   12  A    between atoms: C_24  and  C_32
REMARK   13  A    between atoms: C_30  and  C_38
REMARK   14  A    between atoms: C_51  and  C_53
REMARK                            x       y       z     vdW  Elec       q    Type
REMARK                         _______ _______ _______ _____ _____    ______ ____
ROOT
ATOM      1  O   UNL     1     112.623 129.229 141.571  0.00  0.00    +0.000 OA
ATOM      2  O   UNL     1     111.525 131.115 141.518  0.00  0.00    +0.000 OA
ATOM      3  O   UNL     1     110.611 128.426 141.839  0.00  0.00    +0.000 OA
ATOM      4  C   UNL     1     111.068 129.771 141.679  0.00  0.00    +0.000 C 
ATOM      5  C   UNL     1     111.686 130.308 141.572  0.00  0.00    +0.000 C 
ATOM      6  C   UNL     1     111.229 128.963 141.732  0.00  0.00    +0.000 C 
ATOM      7  C   UNL     1     112.463 130.037 141.517  0.00  0.00    +0.000 C 
ATOM      8  C   UNL     1     112.006 128.693 141.678  0.00  0.00    +0.000 C 
ENDROOT
BRANCH   4   9
ATOM      9  O   UNL     1     110.291 130.041 141.733  0.00  0.00    +0.000 OA
BRANCH   9  14
ATOM     10  O   UNL     1     110.096 129.813 140.336  0.00  0.00    +0.000 OA
ATOM     11  O   UNL     1     108.874 130.885 141.793  0.00  0.00    +0.000 OA
ATOM     12  O   UNL     1     108.484 130.428 138.998  0.00  0.00    +0.000 OA
ATOM     13  O   UNL     1     107.971 131.079 140.425  0.00  0.00    +0.000 OA
ATOM     14  C   UNL     1     109.839 130.138 141.049  0.00  0.00    +0.000 C 
ATOM     15  C   UNL     1     109.644 129.909 139.652  0.00  0.00    +0.000 C 
ATOM     16  C   UNL     1     109.131 130.560 141.079  0.00  0.00    +0.000 C 
ATOM     17  C   UNL     1     108.936 130.331 139.682  0.00  0.00    +0.000 C 
ATOM     18  C   UNL     1     108.679 130.657 140.395  0.00  0.00    +0.000 C 
BRANCH  15  19
ATOM     19  C   UNL     1     109.901 129.584 138.939  0.00  0.00    +0.000 C 
BRANCH  19  20
ATOM     20  O   UNL     1     110.630 129.806 138.623  0.00  0.00    +0.000 OA
BRANCH  20  24
ATOM     21  O   UNL     1     110.318 129.173 137.381  0.00  0.00    +0.000 OA
ATOM     22  O   UNL     1     112.219 129.879 138.186  0.00  0.00    +0.000 OA
ATOM     23  O   UNL     1     112.702 129.282 136.726  0.00  0.00    +0.000 OA
ATOM     24  C   UNL     1     110.871 129.508 137.892  0.00  0.00    +0.000 C 
ATOM     25  C   UNL     1     111.666 129.544 137.674  0.00  0.00    +0.000 C 
ATOM     26  C   UNL     1     111.907 129.246 136.944  0.00  0.00    +0.000 C 
ATOM     27  C   UNL     1     111.354 128.911 136.431  0.00  0.00    +0.000 C 
ATOM     28  C   UNL     1     110.559 128.874 136.650  0.00  0.00    +0.000 C 
ATOM     29  C   UNL     1     110.005 128.540 136.138  0.00  0.00    +0.000 C 
BRANCH  27  30
ATOM     30  O   UNL     1     111.595 128.613 135.702  0.00  0.00    +0.000 OA
BRANCH  30  32
ATOM     31  O   UNL     1     111.173 129.700 134.877  0.00  0.00    +0.000 OA
ATOM     32  C   UNL     1     111.733 129.126 135.071  0.00  0.00    +0.000 C 
ATOM     33  C   UNL     1     112.430 129.066 134.634  0.00  0.00    +0.000 C 
ENDBRANCH  30  32
ENDBRANCH  27  30
ENDBRANCH  20  24
ENDBRANCH  19  20
ENDBRANCH  15  19
ENDBRANCH   9  14
ENDBRANCH   4   9
BRANCH   8  34
ATOM     34  O   UNL     1     112.166 127.885 141.731  0.00  0.00    +0.000 OA
BRANCH  34  38
ATOM     35  O   UNL     1     112.271 126.461 139.193  0.00  0.00    +0.000 OA
ATOM     36  O   UNL     1     114.721 127.010 140.621  0.00  0.00    +0.000 OA
ATOM     37  O   UNL     1     114.735 126.307 139.361  0.00  0.00    +0.000 OA
ATOM     38  C   UNL     1     112.600 127.511 141.138  0.00  0.00    +0.000 A 
ATOM     39  C   UNL     1     112.200 127.172 140.457  0.00  0.00    +0.000 A 
ATOM     40  C   UNL     1     113.456 127.457 141.196  0.00  0.00    +0.000 A 
ATOM     41  C   UNL     1     112.661 126.784 139.844  0.00  0.00    +0.000 A 
ATOM     42  C   UNL     1     113.900 127.066 140.573  0.00  0.00    +0.000 A 
ATOM     43  C   UNL     1     113.482 126.733 139.900  0.00  0.00    +0.000 A 
ATOM     44  C   UNL     1     113.913 126.358 139.305  0.00  0.00    +0.000 A 
ATOM     45  C   UNL     1     112.703 126.086 138.598  0.00  0.00    +0.000 A 
ATOM     46  C   UNL     1     113.523 126.035 138.654  0.00  0.00    +0.000 A 
BRANCH  45  47
ATOM     47  C   UNL     1     112.311 125.763 137.947  0.00  0.00    +0.000 A 
ATOM     48  C   UNL     1     112.709 125.669 137.231  0.00  0.00    +0.000 A 
ATOM     49  C   UNL     1     111.522 125.534 138.014  0.00  0.00    +0.000 A 
ATOM     50  C   UNL     1     112.317 125.346 136.581  0.00  0.00    +0.000 A 
ATOM     51  C   UNL     1     111.130 125.210 137.364  0.00  0.00    +0.000 A 
ATOM     52  C   UNL     1     111.527 125.116 136.647  0.00  0.00    +0.000 A 
BRANCH  52  53
ATOM     53  O   UNL     1     111.135 124.793 135.997  0.00  0.00    +0.000 OA
ATOM     54  C   UNL     1     110.654 125.270 135.526  0.00  0.00    +0.000 C 
ENDBRANCH  52  53
ENDBRANCH  45  47
ENDBRANCH  34  38
ENDBRANCH   8  34
BRANCH   7  55
ATOM     55  C   UNL     1     113.080 130.574 141.410  0.00  0.00    +0.000 C 
BRANCH  55  56
ATOM     56  O   UNL     1     113.831 130.302 141.204  0.00  0.00    +0.000 OA
BRANCH  56  58
ATOM     57  O   UNL     1     114.554 131.479 141.572  0.00  0.00    +0.000 OA
ATOM     58  C   UNL     1     114.440 130.842 141.061  0.00  0.00    +0.000 C 
ATOM     59  C   UNL     1     114.933 130.743 140.407  0.00  0.00    +0.000 C 
ENDBRANCH  56  58
ENDBRANCH  55  56
ENDBRANCH   7  55
TORSDOF 14
ENDMDL
MODEL 2
REMARK VINA RESULT:     -10.0      1.591      4.857
REMARK  Name = 44257905
REMARK  14 active torsions:
REMARK  status: ('A' for Active; 'I' for Inactive)
REMARK    1  A    between atoms: O_1  and  C_22
REMARK    2  A    between atoms: O_1  and  C_23
REMARK    3  A    between atoms: O_4  and  C_32
REMARK    4  A    between atoms: O_4  and  C_33
REMARK    5  A    between atoms: O_11  and  C_31
REMARK    6  A    between atoms: O_11  and  C_40
REMARK    7  A    between atoms: O_12  and  C_36
REMARK    8  A    between atoms: O_12  and  C_41
REMARK    9  A    between atoms: O_15  and  C_38
REMARK   10  A    between atoms: O_15  and  C_43
REMARK   11  A    between atoms: O_21  and  C_58
REMARK   12  A    between atoms: C_24  and  C_32
REMARK   13  A    between atoms: C_30  and  C_38
REMARK   14  A    between atoms: C_51  and  C_53
REMARK                            x       y       z     vdW  Elec       q    Type
REMARK                         _______ _______ _______ _____ _____    ______ ____
ROOT
ATOM      1  O   UNL     1     110.318 128.079 135.541  0.00  0.00    +0.000 OA
ATOM      2  O   UNL     1     110.106 130.128 134.819  0.00  0.00    +0.000 OA
ATOM      3  O   UNL     1     108.232 128.393 136.103  0.00  0.00    +0.000 OA
ATOM      4  C   UNL     1     109.169 129.261 135.461  0.00  0.00    +0.000 C 
ATOM      5  C   UNL     1     109.926 129.399 135.160  0.00  0.00    +0.000 C 
ATOM      6  C   UNL     1     108.989 128.532 135.802  0.00  0.00    +0.000 C 
ATOM      7  C   UNL     1     110.500 128.808 135.200  0.00  0.00    +0.000 C 
ATOM      8  C   UNL     1     109.563 127.941 135.842  0.00  0.00    +0.000 C 
ENDROOT
BRANCH   4   9
ATOM      9  O   UNL     1     108.595 129.851 135.420  0.00  0.00    +0.000 OA
BRANCH   9  14
ATOM     10  O   UNL     1     108.958 130.295 136.729  0.00  0.00    +0.000 OA
ATOM     11  O   UNL     1     107.492 131.074 135.311  0.00  0.00    +0.000 OA
ATOM     12  O   UNL     1     108.219 131.962 137.929  0.00  0.00    +0.000 OA
ATOM     13  O   UNL     1     107.305 132.130 136.566  0.00  0.00    +0.000 OA
ATOM     14  C   UNL     1     108.501 130.379 136.048  0.00  0.00    +0.000 C 
ATOM     15  C   UNL     1     108.865 130.823 137.357  0.00  0.00    +0.000 C 
ATOM     16  C   UNL     1     107.950 130.990 135.993  0.00  0.00    +0.000 C 
ATOM     17  C   UNL     1     108.313 131.434 137.302  0.00  0.00    +0.000 C 
ATOM     18  C   UNL     1     107.856 131.518 136.620  0.00  0.00    +0.000 C 
BRANCH  15  19
ATOM     19  C   UNL     1     109.321 130.739 138.038  0.00  0.00    +0.000 C 
BRANCH  19  20
ATOM     20  O   UNL     1     110.142 130.680 137.979  0.00  0.00    +0.000 OA
BRANCH  20  24
ATOM     21  O   UNL     1     110.232 130.084 139.275  0.00  0.00    +0.000 OA
ATOM     22  O   UNL     1     111.750 131.047 138.036  0.00  0.00    +0.000 OA
ATOM     23  O   UNL     1     112.644 130.634 139.360  0.00  0.00    +0.000 OA
ATOM     24  C   UNL     1     110.590 130.474 138.642  0.00  0.00    +0.000 C 
ATOM     25  C   UNL     1     111.393 130.657 138.670  0.00  0.00    +0.000 C 
ATOM     26  C   UNL     1     111.840 130.451 139.332  0.00  0.00    +0.000 C 
ATOM     27  C   UNL     1     111.484 130.061 139.966  0.00  0.00    +0.000 C 
ATOM     28  C   UNL     1     110.680 129.878 139.937  0.00  0.00    +0.000 C 
ATOM     29  C   UNL     1     110.323 129.488 140.571  0.00  0.00    +0.000 C 
BRANCH  27  30
ATOM     30  O   UNL     1     111.930 129.855 140.627  0.00  0.00    +0.000 OA
BRANCH  30  32
ATOM     31  O   UNL     1     111.589 131.003 141.406  0.00  0.00    +0.000 OA
ATOM     32  C   UNL     1     112.138 130.430 141.180  0.00  0.00    +0.000 C 
ATOM     33  C   UNL     1     112.896 130.434 141.508  0.00  0.00    +0.000 C 
ENDBRANCH  30  32
ENDBRANCH  27  30
ENDBRANCH  20  24
ENDBRANCH  19  20
ENDBRANCH  15  19
ENDBRANCH   9  14
ENDBRANCH   4   9
BRANCH   8  34
ATOM     34  O   UNL     1     109.382 127.212 136.184  0.00  0.00    +0.000 OA
BRANCH  34  38
ATOM     35  O   UNL     1     111.469 126.667 138.140  0.00  0.00    +0.000 OA
ATOM     36  O   UNL     1     111.008 124.795 135.988  0.00  0.00    +0.000 OA
ATOM     37  O   UNL     1     112.033 124.558 136.976  0.00  0.00    +0.000 OA
ATOM     38  C   UNL     1     109.986 126.729 136.470  0.00  0.00    +0.000 A 
ATOM     39  C   UNL     1     110.424 126.954 137.173  0.00  0.00    +0.000 A 
ATOM     40  C   UNL     1     110.183 125.996 136.065  0.00  0.00    +0.000 A 
ATOM     41  C   UNL     1     111.052 126.445 137.464  0.00  0.00    +0.000 A 
ATOM     42  C   UNL     1     110.814 125.499 136.370  0.00  0.00    +0.000 A 
ATOM     43  C   UNL     1     111.240 125.742 137.075  0.00  0.00    +0.000 A 
ATOM     44  C   UNL     1     111.845 125.261 137.364  0.00  0.00    +0.000 A 
ATOM     45  C   UNL     1     112.074 126.186 138.428  0.00  0.00    +0.000 A 
ATOM     46  C   UNL     1     112.262 125.483 138.041  0.00  0.00    +0.000 A 
BRANCH  45  47
ATOM     47  C   UNL     1     112.490 126.409 139.105  0.00  0.00    +0.000 A 
ATOM     48  C   UNL     1     113.257 126.704 139.040  0.00  0.00    +0.000 A 
ATOM     49  C   UNL     1     112.138 126.336 139.848  0.00  0.00    +0.000 A 
ATOM     50  C   UNL     1     113.672 126.927 139.717  0.00  0.00    +0.000 A 
ATOM     51  C   UNL     1     112.553 126.559 140.525  0.00  0.00    +0.000 A 
ATOM     52  C   UNL     1     113.321 126.854 140.460  0.00  0.00    +0.000 A 
BRANCH  52  53
ATOM     53  O   UNL     1     113.736 127.077 141.137  0.00  0.00    +0.000 OA
ATOM     54  C   UNL     1     114.544 127.237 141.092  0.00  0.00    +0.000 C 
ENDBRANCH  52  53
ENDBRANCH  45  47
ENDBRANCH  34  38
ENDBRANCH   8  34
BRANCH   7  55
ATOM     55  C   UNL     1     111.255 128.947 134.899  0.00  0.00    +0.000 C 
BRANCH  55  56
ATOM     56  O   UNL     1     111.888 129.068 135.414  0.00  0.00    +0.000 OA
BRANCH  56  58
ATOM     57  O   UNL     1     112.935 129.627 134.618  0.00  0.00    +0.000 OA
ATOM     58  C   UNL     1     112.663 129.040 135.130  0.00  0.00    +0.000 C 
ATOM     59  C   UNL     1     113.164 128.426 135.358  0.00  0.00    +0.000 C 
ENDBRANCH  56  58
ENDBRANCH  55  56
ENDBRANCH   7  55
TORSDOF 14
ENDMDL
MODEL 3
REMARK VINA RESULT:      -9.7      1.712      3.870
REMARK  Name = 44257905
REMARK  14 active torsions:
REMARK  status: ('A' for Active; 'I' for Inactive)
REMARK    1  A    between atoms: O_1  and  C_22
REMARK    2  A    between atoms: O_1  and  C_23
REMARK    3  A    between atoms: O_4  and  C_32
REMARK    4  A    between atoms: O_4  and  C_33
REMARK    5  A    between atoms: O_11  and  C_31
REMARK    6  A    between atoms: O_11  and  C_40
REMARK    7  A    between atoms: O_12  and  C_36
REMARK    8  A    between atoms: O_12  and  C_41
REMARK    9  A    between atoms: O_15  and  C_38
REMARK   10  A    between atoms: O_15  and  C_43
REMARK   11  A    between atoms: O_21  and  C_58
REMARK   12  A    between atoms: C_24  and  C_32
REMARK   13  A    between atoms: C_30  and  C_38
REMARK   14  A    between atoms: C_51  and  C_53
REMARK                            x       y       z     vdW  Elec       q    Type
REMARK                         _______ _______ _______ _____ _____    ______ ____
ROOT
ATOM      1  O   UNL     1     111.483 126.375 140.457  0.00  0.00    +0.000 OA
ATOM      2  O   UNL     1     110.630 127.549 142.088  0.00  0.00    +0.000 OA
ATOM      3  O   UNL     1     113.257 127.543 140.962  0.00  0.00    +0.000 OA
ATOM      4  C   UNL     1     111.944 127.546 141.525  0.00  0.00    +0.000 C 
ATOM      5  C   UNL     1     111.171 127.254 141.539  0.00  0.00    +0.000 C 
ATOM      6  C   UNL     1     112.485 127.251 140.977  0.00  0.00    +0.000 C 
ATOM      7  C   UNL     1     110.941 126.669 141.006  0.00  0.00    +0.000 C 
ATOM      8  C   UNL     1     112.254 126.666 140.443  0.00  0.00    +0.000 C 
ENDROOT
BRANCH   4   9
ATOM      9  O   UNL     1     112.174 128.131 142.059  0.00  0.00    +0.000 OA
BRANCH   9  14
ATOM     10  O   UNL     1     111.901 129.161 141.107  0.00  0.00    +0.000 OA
ATOM     11  O   UNL     1     112.153 129.248 143.273  0.00  0.00    +0.000 OA
ATOM     12  O   UNL     1     111.608 131.308 141.369  0.00  0.00    +0.000 OA
ATOM     13  O   UNL     1     111.870 130.836 142.928  0.00  0.00    +0.000 OA
ATOM     14  C   UNL     1     112.032 128.925 141.886  0.00  0.00    +0.000 C 
ATOM     15  C   UNL     1     111.760 129.956 140.934  0.00  0.00    +0.000 C 
ATOM     16  C   UNL     1     112.022 129.484 142.493  0.00  0.00    +0.000 C 
ATOM     17  C   UNL     1     111.749 130.514 141.541  0.00  0.00    +0.000 C 
ATOM     18  C   UNL     1     111.880 130.278 142.321  0.00  0.00    +0.000 C 
BRANCH  15  19
ATOM     19  C   UNL     1     111.629 130.191 140.155  0.00  0.00    +0.000 C 
BRANCH  19  20
ATOM     20  O   UNL     1     110.991 129.883 139.732  0.00  0.00    +0.000 OA
BRANCH  20  24
ATOM     21  O   UNL     1     111.327 130.690 138.602  0.00  0.00    +0.000 OA
ATOM     22  O   UNL     1     109.935 129.021 138.803  0.00  0.00    +0.000 OA
ATOM     23  O   UNL     1     109.743 129.397 137.208  0.00  0.00    +0.000 OA
ATOM     24  C   UNL     1     110.895 130.071 138.934  0.00  0.00    +0.000 C 
ATOM     25  C   UNL     1     110.367 129.640 138.469  0.00  0.00    +0.000 C 
ATOM     26  C   UNL     1     110.271 129.828 137.672  0.00  0.00    +0.000 C 
ATOM     27  C   UNL     1     110.703 130.447 137.339  0.00  0.00    +0.000 C 
ATOM     28  C   UNL     1     111.231 130.878 137.803  0.00  0.00    +0.000 C 
ATOM     29  C   UNL     1     111.663 131.497 137.471  0.00  0.00    +0.000 C 
BRANCH  27  30
ATOM     30  O   UNL     1     110.607 130.635 136.542  0.00  0.00    +0.000 OA
BRANCH  30  32
ATOM     31  O   UNL     1     109.756 131.773 136.684  0.00  0.00    +0.000 OA
ATOM     32  C   UNL     1     109.952 131.071 136.297  0.00  0.00    +0.000 C 
ATOM     33  C   UNL     1     109.493 130.807 135.664  0.00  0.00    +0.000 C 
ENDBRANCH  30  32
ENDBRANCH  27  30
ENDBRANCH  20  24
ENDBRANCH  19  20
ENDBRANCH  15  19
ENDBRANCH   9  14
ENDBRANCH   4   9
BRANCH   8  34
ATOM     34  O   UNL     1     112.797 126.372 139.894  0.00  0.00    +0.000 OA
BRANCH  34  38
ATOM     35  O   UNL     1     113.222 127.775 137.378  0.00  0.00    +0.000 OA
ATOM     36  O   UNL     1     111.479 125.473 137.449  0.00  0.00    +0.000 OA
ATOM     37  O   UNL     1     111.713 126.193 136.220  0.00  0.00    +0.000 OA
ATOM     38  C   UNL     1     112.651 126.453 139.086  0.00  0.00    +0.000 A 
ATOM     39  C   UNL     1     113.021 127.087 138.641  0.00  0.00    +0.000 A 
ATOM     40  C   UNL     1     112.126 125.903 138.684  0.00  0.00    +0.000 A 
ATOM     41  C   UNL     1     112.863 127.164 137.800  0.00  0.00    +0.000 A 
ATOM     42  C   UNL     1     111.980 125.996 137.842  0.00  0.00    +0.000 A 
ATOM     43  C   UNL     1     112.360 126.636 137.414  0.00  0.00    +0.000 A 
ATOM     44  C   UNL     1     112.216 126.721 136.606  0.00  0.00    +0.000 A 
ATOM     45  C   UNL     1     113.078 127.859 136.570  0.00  0.00    +0.000 A 
ATOM     46  C   UNL     1     112.575 127.332 136.184  0.00  0.00    +0.000 A 
BRANCH  45  47
ATOM     47  C   UNL     1     113.437 128.471 136.149  0.00  0.00    +0.000 A 
ATOM     48  C   UNL     1     114.082 128.870 136.471  0.00  0.00    +0.000 A 
ATOM     49  C   UNL     1     113.150 128.683 135.405  0.00  0.00    +0.000 A 
ATOM     50  C   UNL     1     114.441 129.482 136.049  0.00  0.00    +0.000 A 
ATOM     51  C   UNL     1     113.509 129.294 134.983  0.00  0.00    +0.000 A 
ATOM     52  C   UNL     1     114.154 129.694 135.305  0.00  0.00    +0.000 A 
BRANCH  52  53
ATOM     53  O   UNL     1     114.513 130.306 134.883  0.00  0.00    +0.000 OA
ATOM     54  C   UNL     1     114.977 130.863 135.277  0.00  0.00    +0.000 C 
ENDBRANCH  52  53
ENDBRANCH  45  47
ENDBRANCH  34  38
ENDBRANCH   8  34
BRANCH   7  55
ATOM     55  C   UNL     1     110.170 126.378 141.020  0.00  0.00    +0.000 C 
BRANCH  55  56
ATOM     56  O   UNL     1     110.001 125.641 140.691  0.00  0.00    +0.000 OA
BRANCH  56  58
ATOM     57  O   UNL     1     109.043 124.708 141.195  0.00  0.00    +0.000 OA
ATOM     58  C   UNL     1     109.229 125.348 140.709  0.00  0.00    +0.000 C 
ATOM     59  C   UNL     1     108.645 125.694 140.241  0.00  0.00    +0.000 C 
ENDBRANCH  56  58
ENDBRANCH  55  56
ENDBRANCH   7  55
TORSDOF 14
ENDMDL
MODEL 4
REMARK VINA RESULT:      -9.7      1.869      3.525
REMARK  Name = 44257905
REMARK  14 active torsions:
REMARK  status: ('A' for Active; 'I' for Inactive)
REMARK    1  A    between atoms: O_1  and  C_22
REMARK    2  A    between atoms: O_1  and  C_23
REMARK    3  A    between atoms: O_4  and  C_32
REMARK    4  A    between atoms: O_4  and  C_33
REMARK    5  A    between atoms: O_11  and  C_31
REMARK    6  A    between atoms: O_11  and  C_40
REMARK    7  A    between atoms: O_12  and  C_36
REMARK    8  A    between atoms: O_12  and  C_41
REMARK    9  A    between atoms: O_15  and  C_38
REMARK   10  A    between atoms: O_15  and  C_43
REMARK   11  A    between atoms: O_21  and  C_58
REMARK   12  A    between atoms: C_24  and  C_32
REMARK   13  A    between atoms: C_30  and  C_38
REMARK   14  A    between atoms: C_51  and  C_53
REMARK                            x       y       z     vdW  Elec       q    Type
REMARK                         _______ _______ _______ _____ _____    ______ ____
ROOT
ATOM      1  O   UNL     1     111.034 126.160 139.933  0.00  0.00    +0.000 OA
ATOM      2  O   UNL     1     110.674 126.884 141.961  0.00  0.00    +0.000 OA
ATOM      3  O   UNL     1     108.852 126.173 139.877  0.00  0.00    +0.000 OA
ATOM      4  C   UNL     1     109.763 126.528 140.919  0.00  0.00    +0.000 C 
ATOM      5  C   UNL     1     110.537 126.614 141.193  0.00  0.00    +0.000 C 
ATOM      6  C   UNL     1     109.626 126.258 140.152  0.00  0.00    +0.000 C 
ATOM      7  C   UNL     1     111.172 126.430 140.701  0.00  0.00    +0.000 C 
ATOM      8  C   UNL     1     110.261 126.074 139.659  0.00  0.00    +0.000 C 
ENDROOT
BRANCH   4   9
ATOM      9  O   UNL     1     109.127 126.713 141.412  0.00  0.00    +0.000 OA
BRANCH   9  14
ATOM     10  O   UNL     1     109.129 128.053 140.917  0.00  0.00    +0.000 OA
ATOM     11  O   UNL     1     107.937 127.110 142.483  0.00  0.00    +0.000 OA
ATOM     12  O   UNL     1     107.941 129.791 141.494  0.00  0.00    +0.000 OA
ATOM     13  O   UNL     1     107.344 128.649 142.524  0.00  0.00    +0.000 OA
ATOM     14  C   UNL     1     108.831 127.483 141.432  0.00  0.00    +0.000 C 
ATOM     15  C   UNL     1     108.833 128.823 140.937  0.00  0.00    +0.000 C 
ATOM     16  C   UNL     1     108.236 127.681 141.968  0.00  0.00    +0.000 C 
ATOM     17  C   UNL     1     108.238 129.022 141.473  0.00  0.00    +0.000 C 
ATOM     18  C   UNL     1     107.939 128.450 141.989  0.00  0.00    +0.000 C 
BRANCH  15  19
ATOM     19  C   UNL     1     109.131 129.394 140.422  0.00  0.00    +0.000 C 
BRANCH  19  20
ATOM     20  O   UNL     1     109.106 129.268 139.607  0.00  0.00    +0.000 OA
BRANCH  20  24
ATOM     21  O   UNL     1     110.428 129.746 139.351  0.00  0.00    +0.000 OA
ATOM     22  O   UNL     1     108.611 129.849 138.145  0.00  0.00    +0.000 OA
ATOM     23  O   UNL     1     109.685 130.619 137.157  0.00  0.00    +0.000 OA
ATOM     24  C   UNL     1     109.643 129.653 139.113  0.00  0.00    +0.000 C 
ATOM     25  C   UNL     1     109.396 129.944 138.382  0.00  0.00    +0.000 C 
ATOM     26  C   UNL     1     109.933 130.328 137.888  0.00  0.00    +0.000 C 
ATOM     27  C   UNL     1     110.718 130.422 138.125  0.00  0.00    +0.000 C 
ATOM     28  C   UNL     1     110.965 130.132 138.856  0.00  0.00    +0.000 C 
ATOM     29  C   UNL     1     111.749 130.225 139.094  0.00  0.00    +0.000 C 
BRANCH  27  30
ATOM     30  O   UNL     1     111.255 130.807 137.631  0.00  0.00    +0.000 OA
BRANCH  30  32
ATOM     31  O   UNL     1     111.225 132.080 138.279  0.00  0.00    +0.000 OA
ATOM     32  C   UNL     1     111.258 131.630 137.588  0.00  0.00    +0.000 C 
ATOM     33  C   UNL     1     111.296 132.005 136.853  0.00  0.00    +0.000 C 
ENDBRANCH  30  32
ENDBRANCH  27  30
ENDBRANCH  20  24
ENDBRANCH  19  20
ENDBRANCH  15  19
ENDBRANCH   9  14
ENDBRANCH   4   9
BRANCH   8  34
ATOM     34  O   UNL     1     110.122 125.804 138.891  0.00  0.00    +0.000 OA
BRANCH  34  38
ATOM     35  O   UNL     1     111.939 127.169 137.070  0.00  0.00    +0.000 OA
ATOM     36  O   UNL     1     112.100 124.299 137.358  0.00  0.00    +0.000 OA
ATOM     37  O   UNL     1     112.984 125.010 136.465  0.00  0.00    +0.000 OA
ATOM     38  C   UNL     1     110.740 125.780 138.345  0.00  0.00    +0.000 A 
ATOM     39  C   UNL     1     111.026 126.505 137.982  0.00  0.00    +0.000 A 
ATOM     40  C   UNL     1     111.104 125.030 138.135  0.00  0.00    +0.000 A 
ATOM     41  C   UNL     1     111.670 126.470 137.415  0.00  0.00    +0.000 A 
ATOM     42  C   UNL     1     111.746 125.015 137.565  0.00  0.00    +0.000 A 
ATOM     43  C   UNL     1     112.018 125.750 137.213  0.00  0.00    +0.000 A 
ATOM     44  C   UNL     1     112.636 125.730 136.667  0.00  0.00    +0.000 A 
ATOM     45  C   UNL     1     112.557 127.148 136.523  0.00  0.00    +0.000 A 
ATOM     46  C   UNL     1     112.905 126.429 136.322  0.00  0.00    +0.000 A 
BRANCH  45  47
ATOM     47  C   UNL     1     112.826 127.849 136.179  0.00  0.00    +0.000 A 
ATOM     48  C   UNL     1     112.405 128.192 135.559  0.00  0.00    +0.000 A 
ATOM     49  C   UNL     1     113.517 128.205 136.456  0.00  0.00    +0.000 A 
ATOM     50  C   UNL     1     112.674 128.892 135.216  0.00  0.00    +0.000 A 
ATOM     51  C   UNL     1     113.786 128.905 136.112  0.00  0.00    +0.000 A 
ATOM     52  C   UNL     1     113.365 129.249 135.492  0.00  0.00    +0.000 A 
BRANCH  52  53
ATOM     53  O   UNL     1     113.635 129.949 135.149  0.00  0.00    +0.000 OA
ATOM     54  C   UNL     1     114.296 130.333 135.459  0.00  0.00    +0.000 C 
ENDBRANCH  52  53
ENDBRANCH  45  47
ENDBRANCH  34  38
ENDBRANCH   8  34
BRANCH   7  55
ATOM     55  C   UNL     1     111.945 126.515 140.975  0.00  0.00    +0.000 C 
BRANCH  55  56
ATOM     56  O   UNL     1     112.450 127.062 140.620  0.00  0.00    +0.000 OA
BRANCH  56  58
ATOM     57  O   UNL     1     113.524 126.764 141.515  0.00  0.00    +0.000 OA
ATOM     58  C   UNL     1     113.259 127.046 140.786  0.00  0.00    +0.000 C 
ATOM     59  C   UNL     1     113.801 127.310 140.223  0.00  0.00    +0.000 C 
ENDBRANCH  56  58
ENDBRANCH  55  56
ENDBRANCH   7  55
TORSDOF 14
ENDMDL
MODEL 5
REMARK VINA RESULT:      -9.7      2.056      3.186
REMARK  Name = 44257905
REMARK  14 active torsions:
REMARK  status: ('A' for Active; 'I' for Inactive)
REMARK    1  A    between atoms: O_1  and  C_22
REMARK    2  A    between atoms: O_1  and  C_23
REMARK    3  A    between atoms: O_4  and  C_32
REMARK    4  A    between atoms: O_4  and  C_33
REMARK    5  A    between atoms: O_11  and  C_31
REMARK    6  A    between atoms: O_11  and  C_40
REMARK    7  A    between atoms: O_12  and  C_36
REMARK    8  A    between atoms: O_12  and  C_41
REMARK    9  A    between atoms: O_15  and  C_38
REMARK   10  A    between atoms: O_15  and  C_43
REMARK   11  A    between atoms: O_21  and  C_58
REMARK   12  A    between atoms: C_24  and  C_32
REMARK   13  A    between atoms: C_30  and  C_38
REMARK   14  A    between atoms: C_51  and  C_53
REMARK                            x       y       z     vdW  Elec       q    Type
REMARK                         _______ _______ _______ _____ _____    ______ ____
ROOT
ATOM      1  O   UNL     1     112.033 130.192 142.646  0.00  0.00    +0.000 OA
ATOM      2  O   UNL     1     110.059 130.463 143.538  0.00  0.00    +0.000 OA
ATOM      3  O   UNL     1     111.241 128.194 142.265  0.00  0.00    +0.000 OA
ATOM      4  C   UNL     1     110.650 129.329 142.902  0.00  0.00    +0.000 C 
ATOM      5  C   UNL     1     110.700 130.112 143.156  0.00  0.00    +0.000 C 
ATOM      6  C   UNL     1     111.291 128.978 142.520  0.00  0.00    +0.000 C 
ATOM      7  C   UNL     1     111.392 130.544 143.028  0.00  0.00    +0.000 C 
ATOM      8  C   UNL     1     111.983 129.409 142.392  0.00  0.00    +0.000 C 
ENDROOT
BRANCH   4   9
ATOM      9  O   UNL     1     109.958 128.897 143.030  0.00  0.00    +0.000 OA
BRANCH   9  14
ATOM     10  O   UNL     1     109.455 129.276 141.747  0.00  0.00    +0.000 OA
ATOM     11  O   UNL     1     108.455 128.376 143.466  0.00  0.00    +0.000 OA
ATOM     12  O   UNL     1     107.448 129.135 140.901  0.00  0.00    +0.000 OA
ATOM     13  O   UNL     1     107.199 128.495 142.402  0.00  0.00    +0.000 OA
ATOM     14  C   UNL     1     109.331 128.957 142.497  0.00  0.00    +0.000 C 
ATOM     15  C   UNL     1     108.828 129.336 141.214  0.00  0.00    +0.000 C 
ATOM     16  C   UNL     1     108.579 128.696 142.715  0.00  0.00    +0.000 C 
ATOM     17  C   UNL     1     108.076 129.076 141.432  0.00  0.00    +0.000 C 
ATOM     18  C   UNL     1     107.951 128.756 142.183  0.00  0.00    +0.000 C 
BRANCH  15  19
ATOM     19  C   UNL     1     108.952 129.655 140.465  0.00  0.00    +0.000 C 
BRANCH  19  20
ATOM     20  O   UNL     1     109.255 130.418 140.387  0.00  0.00    +0.000 OA
BRANCH  20  24
ATOM     21  O   UNL     1     109.172 130.327 138.963  0.00  0.00    +0.000 OA
ATOM     22  O   UNL     1     110.174 131.782 140.244  0.00  0.00    +0.000 OA
ATOM     23  O   UNL     1     110.550 132.371 138.750  0.00  0.00    +0.000 OA
ATOM     24  C   UNL     1     109.443 130.714 139.639  0.00  0.00    +0.000 C 
ATOM     25  C   UNL     1     109.903 131.395 139.568  0.00  0.00    +0.000 C 
ATOM     26  C   UNL     1     110.090 131.690 138.821  0.00  0.00    +0.000 C 
ATOM     27  C   UNL     1     109.819 131.303 138.144  0.00  0.00    +0.000 C 
ATOM     28  C   UNL     1     109.360 130.622 138.215  0.00  0.00    +0.000 C 
ATOM     29  C   UNL     1     109.088 130.235 137.539  0.00  0.00    +0.000 C 
BRANCH  27  30
ATOM     30  O   UNL     1     110.007 131.598 137.397  0.00  0.00    +0.000 OA
BRANCH  30  32
ATOM     31  O   UNL     1     108.778 132.289 137.166  0.00  0.00    +0.000 OA
ATOM     32  C   UNL     1     109.600 132.248 137.096  0.00  0.00    +0.000 C 
ATOM     33  C   UNL     1     110.013 132.859 136.725  0.00  0.00    +0.000 C 
ENDBRANCH  30  32
ENDBRANCH  27  30
ENDBRANCH  20  24
ENDBRANCH  19  20
ENDBRANCH  15  19
ENDBRANCH   9  14
ENDBRANCH   4   9
BRANCH   8  34
ATOM     34  O   UNL     1     112.624 129.057 142.010  0.00  0.00    +0.000 OA
BRANCH  34  38
ATOM     35  O   UNL     1     112.828 129.393 139.124  0.00  0.00    +0.000 OA
ATOM     36  O   UNL     1     114.510 130.970 140.865  0.00  0.00    +0.000 OA
ATOM     37  O   UNL     1     114.583 131.109 139.431  0.00  0.00    +0.000 OA
ATOM     38  C   UNL     1     112.965 129.424 141.354  0.00  0.00    +0.000 A 
ATOM     39  C   UNL     1     112.713 129.213 140.561  0.00  0.00    +0.000 A 
ATOM     40  C   UNL     1     113.575 130.020 141.461  0.00  0.00    +0.000 A 
ATOM     41  C   UNL     1     113.074 129.600 139.884  0.00  0.00    +0.000 A 
ATOM     42  C   UNL     1     113.924 130.397 140.772  0.00  0.00    +0.000 A 
ATOM     43  C   UNL     1     113.659 130.172 139.986  0.00  0.00    +0.000 A 
ATOM     44  C   UNL     1     113.998 130.537 139.328  0.00  0.00    +0.000 A 
ATOM     45  C   UNL     1     113.167 129.758 138.467  0.00  0.00    +0.000 A 
ATOM     46  C   UNL     1     113.752 130.330 138.569  0.00  0.00    +0.000 A 
BRANCH  45  47
ATOM     47  C   UNL     1     112.920 129.550 137.707  0.00  0.00    +0.000 A 
ATOM     48  C   UNL     1     112.568 128.817 137.574  0.00  0.00    +0.000 A 
ATOM     49  C   UNL     1     113.027 130.077 137.081  0.00  0.00    +0.000 A 
ATOM     50  C   UNL     1     112.321 128.610 136.814  0.00  0.00    +0.000 A 
ATOM     51  C   UNL     1     112.780 129.870 136.321  0.00  0.00    +0.000 A 
ATOM     52  C   UNL     1     112.427 129.136 136.188  0.00  0.00    +0.000 A 
BRANCH  52  53
ATOM     53  O   UNL     1     112.181 128.929 135.428  0.00  0.00    +0.000 OA
ATOM     54  C   UNL     1     111.411 129.097 135.184  0.00  0.00    +0.000 C 
ENDBRANCH  52  53
ENDBRANCH  45  47
ENDBRANCH  34  38
ENDBRANCH   8  34
BRANCH   7  55
ATOM     55  C   UNL     1     111.442 131.327 143.283  0.00  0.00    +0.000 C 
BRANCH  55  56
ATOM     56  O   UNL     1     112.176 131.653 143.469  0.00  0.00    +0.000 OA
BRANCH  56  58
ATOM     57  O   UNL     1     111.923 133.005 143.081  0.00  0.00    +0.000 OA
ATOM     58  C   UNL     1     112.242 132.464 143.615  0.00  0.00    +0.000 C 
ATOM     59  C   UNL     1     112.629 132.731 144.293  0.00  0.00    +0.000 C 
ENDBRANCH  56  58
ENDBRANCH  55  56
ENDBRANCH   7  55
TORSDOF 14
ENDMDL
MODEL 6
REMARK VINA RESULT:      -9.7      2.005      4.751
REMARK  Name = 44257905
REMARK  14 active torsions:
REMARK  status: ('A' for Active; 'I' for Inactive)
REMARK    1  A    between atoms: O_1  and  C_22
REMARK    2  A    between atoms: O_1  and  C_23
REMARK    3  A    between atoms: O_4  and  C_32
REMARK    4  A    between atoms: O_4  and  C_33
REMARK    5  A    between atoms: O_11  and  C_31
REMARK    6  A    between atoms: O_11  and  C_40
REMARK    7  A    between atoms: O_12  and  C_36
REMARK    8  A    between atoms: O_12  and  C_41
REMARK    9  A    between atoms: O_15  and  C_38
REMARK   10  A    between atoms: O_15  and  C_43
REMARK   11  A    between atoms: O_21  and  C_58
REMARK   12  A    between atoms: C_24  and  C_32
REMARK   13  A    between atoms: C_30  and  C_38
REMARK   14  A    between atoms: C_51  and  C_53
REMARK                            x       y       z     vdW  Elec       q    Type
REMARK                         _______ _______ _______ _____ _____    ______ ____
ROOT
ATOM      1  O   UNL     1     111.573 130.468 136.866  0.00  0.00    +0.000 OA
ATOM      2  O   UNL     1     111.827 131.385 138.831  0.00  0.00    +0.000 OA
ATOM      3  O   UNL     1     113.692 130.026 137.144  0.00  0.00    +0.000 OA
ATOM      4  C   UNL     1     112.760 130.706 137.987  0.00  0.00    +0.000 C 
ATOM      5  C   UNL     1     111.996 130.986 138.129  0.00  0.00    +0.000 C 
ATOM      6  C   UNL     1     112.928 130.307 137.285  0.00  0.00    +0.000 C 
ATOM      7  C   UNL     1     111.402 130.867 137.568  0.00  0.00    +0.000 C 
ATOM      8  C   UNL     1     112.335 130.188 136.725  0.00  0.00    +0.000 C 
ENDROOT
BRANCH   4   9
ATOM      9  O   UNL     1     113.353 130.825 138.548  0.00  0.00    +0.000 OA
BRANCH   9  14
ATOM     10  O   UNL     1     112.902 129.686 139.284  0.00  0.00    +0.000 OA
ATOM     11  O   UNL     1     114.697 130.909 139.502  0.00  0.00    +0.000 OA
ATOM     12  O   UNL     1     113.794 128.633 140.975  0.00  0.00    +0.000 OA
ATOM     13  O   UNL     1     114.917 129.814 140.716  0.00  0.00    +0.000 OA
ATOM     14  C   UNL     1     113.463 130.276 139.155  0.00  0.00    +0.000 C 
ATOM     15  C   UNL     1     113.012 129.138 139.891  0.00  0.00    +0.000 C 
ATOM     16  C   UNL     1     114.135 130.319 139.632  0.00  0.00    +0.000 C 
ATOM     17  C   UNL     1     113.683 129.180 140.368  0.00  0.00    +0.000 C 
ATOM     18  C   UNL     1     114.245 129.771 140.239  0.00  0.00    +0.000 C 
BRANCH  15  19
ATOM     19  C   UNL     1     112.451 128.548 140.021  0.00  0.00    +0.000 C 
BRANCH  19  20
ATOM     20  O   UNL     1     112.411 127.898 139.515  0.00  0.00    +0.000 OA
BRANCH  20  24
ATOM     21  O   UNL     1     111.015 127.867 139.210  0.00  0.00    +0.000 OA
ATOM     22  O   UNL     1     112.381 126.276 139.817  0.00  0.00    +0.000 OA
ATOM     23  O   UNL     1     110.970 125.435 139.663  0.00  0.00    +0.000 OA
ATOM     24  C   UNL     1     111.705 127.477 139.438  0.00  0.00    +0.000 C 
ATOM     25  C   UNL     1     111.690 126.666 139.589  0.00  0.00    +0.000 C 
ATOM     26  C   UNL     1     110.985 126.246 139.512  0.00  0.00    +0.000 C 
ATOM     27  C   UNL     1     110.294 126.635 139.284  0.00  0.00    +0.000 C 
ATOM     28  C   UNL     1     110.309 127.446 139.133  0.00  0.00    +0.000 C 
ATOM     29  C   UNL     1     109.619 127.837 138.905  0.00  0.00    +0.000 C 
BRANCH  27  30
ATOM     30  O   UNL     1     109.589 126.215 139.207  0.00  0.00    +0.000 OA
BRANCH  30  32
ATOM     31  O   UNL     1     108.786 126.755 140.257  0.00  0.00    +0.000 OA
ATOM     32  C   UNL     1     109.102 126.103 139.863  0.00  0.00    +0.000 C 
ATOM     33  C   UNL     1     108.931 125.340 140.125  0.00  0.00    +0.000 C 
ENDBRANCH  30  32
ENDBRANCH  27  30
ENDBRANCH  20  24
ENDBRANCH  19  20
ENDBRANCH  15  19
ENDBRANCH   9  14
ENDBRANCH   4   9
BRANCH   8  34
ATOM     34  O   UNL     1     112.505 129.788 136.023  0.00  0.00    +0.000 OA
BRANCH  34  38
ATOM     35  O   UNL     1     112.025 126.916 136.064  0.00  0.00    +0.000 OA
ATOM     36  O   UNL     1     110.213 128.643 134.622  0.00  0.00    +0.000 OA
ATOM     37  O   UNL     1     110.007 127.215 134.665  0.00  0.00    +0.000 OA
ATOM     38  C   UNL     1     112.053 129.135 135.801  0.00  0.00    +0.000 A 
ATOM     39  C   UNL     1     112.279 128.346 136.054  0.00  0.00    +0.000 A 
ATOM     40  C   UNL     1     111.351 129.239 135.315  0.00  0.00    +0.000 A 
ATOM     41  C   UNL     1     111.802 127.671 135.818  0.00  0.00    +0.000 A 
ATOM     42  C   UNL     1     110.887 128.552 135.089  0.00  0.00    +0.000 A 
ATOM     43  C   UNL     1     111.129 127.771 135.351  0.00  0.00    +0.000 A 
ATOM     44  C   UNL     1     110.680 127.115 135.131  0.00  0.00    +0.000 A 
ATOM     45  C   UNL     1     111.575 126.261 135.844  0.00  0.00    +0.000 A 
ATOM     46  C   UNL     1     110.903 126.360 135.378  0.00  0.00    +0.000 A 
BRANCH  45  47
ATOM     47  C   UNL     1     111.799 125.505 136.091  0.00  0.00    +0.000 A 
ATOM     48  C   UNL     1     111.233 124.910 136.164  0.00  0.00    +0.000 A 
ATOM     49  C   UNL     1     112.590 125.347 136.264  0.00  0.00    +0.000 A 
ATOM     50  C   UNL     1     111.458 124.156 136.411  0.00  0.00    +0.000 A 
ATOM     51  C   UNL     1     112.815 124.593 136.511  0.00  0.00    +0.000 A 
ATOM     52  C   UNL     1     112.249 123.997 136.585  0.00  0.00    +0.000 A 
BRANCH  52  53
ATOM     53  O   UNL     1     112.474 123.242 136.832  0.00  0.00    +0.000 OA
ATOM     54  C   UNL     1     112.148 122.918 137.516  0.00  0.00    +0.000 C 
ENDBRANCH  52  53
ENDBRANCH  45  47
ENDBRANCH  34  38
ENDBRANCH   8  34
BRANCH   7  55
ATOM     55  C   UNL     1     110.640 131.147 137.710  0.00  0.00    +0.000 C 
BRANCH  55  56
ATOM     56  O   UNL     1     110.202 131.479 137.094  0.00  0.00    +0.000 OA
BRANCH  56  58
ATOM     57  O   UNL     1     109.213 132.504 136.973  0.00  0.00    +0.000 OA
ATOM     58  C   UNL     1     109.436 131.754 137.234  0.00  0.00    +0.000 C 
ATOM     59  C   UNL     1     108.894 131.278 137.635  0.00  0.00    +0.000 C 
ENDBRANCH  56  58
ENDBRANCH  55  56
ENDBRANCH   7  55
TORSDOF 14
ENDMDL
MODEL 7
REMARK VINA RESULT:      -9.4      1.836      4.589
REMARK  Name = 44257905
REMARK  14 active torsions:
REMARK  status: ('A' for Active; 'I' for Inactive)
REMARK    1  A    between atoms: O_1  and  C_22
REMARK    2  A    between atoms: O_1  and  C_23
REMARK    3  A    between atoms: O_4  and  C_32
REMARK    4  A    between atoms: O_4  and  C_33
REMARK    5  A    between atoms: O_11  and  C_31
REMARK    6  A    between atoms: O_11  and  C_40
REMARK    7  A    between atoms: O_12  and  C_36
REMARK    8  A    between atoms: O_12  and  C_41
REMARK    9  A    between atoms: O_15  and  C_38
REMARK   10  A    between atoms: O_15  and  C_43
REMARK   11  A    between atoms: O_21  and  C_58
REMARK   12  A    between atoms: C_24  and  C_32
REMARK   13  A    between atoms: C_30  and  C_38
REMARK   14  A    between atoms: C_51  and  C_53
REMARK                            x       y       z     vdW  Elec       q    Type
REMARK                         _______ _______ _______ _____ _____    ______ ____
ROOT
ATOM      1  O   UNL     1     112.198 125.836 138.240  0.00  0.00    +0.000 OA
ATOM      2  O   UNL     1     113.667 126.451 139.732  0.00  0.00    +0.000 OA
ATOM      3  O   UNL     1     110.826 126.195 139.899  0.00  0.00    +0.000 OA
ATOM      4  C   UNL     1     112.246 126.323 139.816  0.00  0.00    +0.000 C 
ATOM      5  C   UNL     1     112.945 126.265 139.380  0.00  0.00    +0.000 C 
ATOM      6  C   UNL     1     111.524 126.137 139.463  0.00  0.00    +0.000 C 
ATOM      7  C   UNL     1     112.921 126.021 138.592  0.00  0.00    +0.000 C 
ATOM      8  C   UNL     1     111.500 125.893 138.675  0.00  0.00    +0.000 C 
ENDROOT
BRANCH   4   9
ATOM      9  O   UNL     1     112.271 126.566 140.604  0.00  0.00    +0.000 OA
BRANCH   9  14
ATOM     10  O   UNL     1     112.347 127.942 140.226  0.00  0.00    +0.000 OA
ATOM     11  O   UNL     1     111.764 127.008 142.111  0.00  0.00    +0.000 OA
ATOM     12  O   UNL     1     111.917 129.760 141.355  0.00  0.00    +0.000 OA
ATOM     13  O   UNL     1     111.588 128.605 142.486  0.00  0.00    +0.000 OA
ATOM     14  C   UNL     1     112.183 127.365 140.791  0.00  0.00    +0.000 C 
ATOM     15  C   UNL     1     112.259 128.741 140.413  0.00  0.00    +0.000 C 
ATOM     16  C   UNL     1     111.929 127.586 141.544  0.00  0.00    +0.000 C 
ATOM     17  C   UNL     1     112.006 128.962 141.166  0.00  0.00    +0.000 C 
ATOM     18  C   UNL     1     111.841 128.384 141.733  0.00  0.00    +0.000 C 
BRANCH  15  19
ATOM     19  C   UNL     1     112.423 129.318 139.848  0.00  0.00    +0.000 C 
BRANCH  19  20
ATOM     20  O   UNL     1     111.872 129.486 139.257  0.00  0.00    +0.000 OA
BRANCH  20  24
ATOM     21  O   UNL     1     112.611 129.380 138.038  0.00  0.00    +0.000 OA
ATOM     22  O   UNL     1     111.390 131.006 138.832  0.00  0.00    +0.000 OA
ATOM     23  O   UNL     1     111.888 131.660 137.401  0.00  0.00    +0.000 OA
ATOM     24  C   UNL     1     112.121 129.813 138.541  0.00  0.00    +0.000 C 
ATOM     25  C   UNL     1     111.880 130.573 138.329  0.00  0.00    +0.000 C 
ATOM     26  C   UNL     1     112.129 130.900 137.614  0.00  0.00    +0.000 C 
ATOM     27  C   UNL     1     112.619 130.467 137.110  0.00  0.00    +0.000 C 
ATOM     28  C   UNL     1     112.860 129.707 137.322  0.00  0.00    +0.000 C 
ATOM     29  C   UNL     1     113.350 129.274 136.820  0.00  0.00    +0.000 C 
BRANCH  27  30
ATOM     30  O   UNL     1     112.868 130.794 136.395  0.00  0.00    +0.000 OA
BRANCH  30  32
ATOM     31  O   UNL     1     113.935 131.693 136.699  0.00  0.00    +0.000 OA
ATOM     32  C   UNL     1     113.652 131.029 136.300  0.00  0.00    +0.000 C 
ATOM     33  C   UNL     1     114.155 130.601 135.805  0.00  0.00    +0.000 C 
ENDBRANCH  30  32
ENDBRANCH  27  30
ENDBRANCH  20  24
ENDBRANCH  19  20
ENDBRANCH  15  19
ENDBRANCH   9  14
ENDBRANCH   4   9
BRANCH   8  34
ATOM     34  O   UNL     1     110.777 125.708 138.323  0.00  0.00    +0.000 OA
BRANCH  34  38
ATOM     35  O   UNL     1     109.952 127.892 136.582  0.00  0.00    +0.000 OA
ATOM     36  O   UNL     1     110.509 125.295 135.445  0.00  0.00    +0.000 OA
ATOM     37  O   UNL     1     110.098 126.401 134.614  0.00  0.00    +0.000 OA
ATOM     38  C   UNL     1     110.599 125.995 137.571  0.00  0.00    +0.000 A 
ATOM     39  C   UNL     1     110.362 126.814 137.465  0.00  0.00    +0.000 A 
ATOM     40  C   UNL     1     110.650 125.477 136.886  0.00  0.00    +0.000 A 
ATOM     41  C   UNL     1     110.179 127.104 136.678  0.00  0.00    +0.000 A 
ATOM     42  C   UNL     1     110.463 125.785 136.107  0.00  0.00    +0.000 A 
ATOM     43  C   UNL     1     110.228 126.607 136.021  0.00  0.00    +0.000 A 
ATOM     44  C   UNL     1     110.049 126.898 135.270  0.00  0.00    +0.000 A 
ATOM     45  C   UNL     1     109.774 128.182 135.831  0.00  0.00    +0.000 A 
ATOM     46  C   UNL     1     109.822 127.686 135.175  0.00  0.00    +0.000 A 
BRANCH  45  47
ATOM     47  C   UNL     1     109.546 128.970 135.737  0.00  0.00    +0.000 A 
ATOM     48  C   UNL     1     109.016 129.313 136.267  0.00  0.00    +0.000 A 
ATOM     49  C   UNL     1     109.852 129.415 135.113  0.00  0.00    +0.000 A 
ATOM     50  C   UNL     1     108.790 130.100 136.172  0.00  0.00    +0.000 A 
ATOM     51  C   UNL     1     109.625 130.203 135.018  0.00  0.00    +0.000 A 
ATOM     52  C   UNL     1     109.094 130.546 135.548  0.00  0.00    +0.000 A 
BRANCH  52  53
ATOM     53  O   UNL     1     108.868 131.334 135.453  0.00  0.00    +0.000 OA
ATOM     54  C   UNL     1     108.074 131.524 135.336  0.00  0.00    +0.000 C 
ENDBRANCH  52  53
ENDBRANCH  45  47
ENDBRANCH  34  38
ENDBRANCH   8  34
BRANCH   7  55
ATOM     55  C   UNL     1     113.619 125.963 138.157  0.00  0.00    +0.000 C 
BRANCH  55  56
ATOM     56  O   UNL     1     113.687 125.397 137.561  0.00  0.00    +0.000 OA
BRANCH  56  58
ATOM     57  O   UNL     1     114.973 124.793 137.402  0.00  0.00    +0.000 OA
ATOM     58  C   UNL     1     114.395 125.321 137.143  0.00  0.00    +0.000 C 
ATOM     59  C   UNL     1     114.524 125.774 136.465  0.00  0.00    +0.000 C 
ENDBRANCH  56  58
ENDBRANCH  55  56
ENDBRANCH   7  55
TORSDOF 14
ENDMDL
MODEL 8
REMARK VINA RESULT:      -9.4      2.075      3.800
REMARK  Name = 44257905
REMARK  14 active torsions:
REMARK  status: ('A' for Active; 'I' for Inactive)
REMARK    1  A    between atoms: O_1  and  C_22
REMARK    2  A    between atoms: O_1  and  C_23
REMARK    3  A    between atoms: O_4  and  C_32
REMARK    4  A    between atoms: O_4  and  C_33
REMARK    5  A    between atoms: O_11  and  C_31
REMARK    6  A    between atoms: O_11  and  C_40
REMARK    7  A    between atoms: O_12  and  C_36
REMARK    8  A    between atoms: O_12  and  C_41
REMARK    9  A    between atoms: O_15  and  C_38
REMARK   10  A    between atoms: O_15  and  C_43
REMARK   11  A    between atoms: O_21  and  C_58
REMARK   12  A    between atoms: C_24  and  C_32
REMARK   13  A    between atoms: C_30  and  C_38
REMARK   14  A    between atoms: C_51  and  C_53
REMARK                            x       y       z     vdW  Elec       q    Type
REMARK                         _______ _______ _______ _____ _____    ______ ____
ROOT
ATOM      1  O   UNL     1     110.334 129.257 141.269  0.00  0.00    +0.000 OA
ATOM      2  O   UNL     1     108.226 128.774 141.566  0.00  0.00    +0.000 OA
ATOM      3  O   UNL     1     110.591 127.296 142.191  0.00  0.00    +0.000 OA
ATOM      4  C   UNL     1     109.408 128.035 141.879  0.00  0.00    +0.000 C 
ATOM      5  C   UNL     1     109.048 128.711 141.570  0.00  0.00    +0.000 C 
ATOM      6  C   UNL     1     110.231 127.972 141.882  0.00  0.00    +0.000 C 
ATOM      7  C   UNL     1     109.511 129.322 141.265  0.00  0.00    +0.000 C 
ATOM      8  C   UNL     1     110.694 128.583 141.577  0.00  0.00    +0.000 C 
ENDROOT
BRANCH   4   9
ATOM      9  O   UNL     1     108.946 127.424 142.184  0.00  0.00    +0.000 OA
BRANCH   9  14
ATOM     10  O   UNL     1     108.939 126.764 140.917  0.00  0.00    +0.000 OA
ATOM     11  O   UNL     1     107.719 126.449 142.699  0.00  0.00    +0.000 OA
ATOM     12  O   UNL     1     107.705 125.128 140.164  0.00  0.00    +0.000 OA
ATOM     13  O   UNL     1     107.098 125.300 141.689  0.00  0.00    +0.000 OA
ATOM     14  C   UNL     1     108.636 126.850 141.678  0.00  0.00    +0.000 C 
ATOM     15  C   UNL     1     108.629 126.190 140.411  0.00  0.00    +0.000 C 
ATOM     16  C   UNL     1     108.022 126.362 141.936  0.00  0.00    +0.000 C 
ATOM     17  C   UNL     1     108.016 125.702 140.669  0.00  0.00    +0.000 C 
ATOM     18  C   UNL     1     107.712 125.788 141.432  0.00  0.00    +0.000 C 
BRANCH  15  19
ATOM     19  C   UNL     1     108.932 126.103 139.649  0.00  0.00    +0.000 C 
BRANCH  19  20
ATOM     20  O   UNL     1     109.739 125.971 139.539  0.00  0.00    +0.000 OA
BRANCH  20  24
ATOM     21  O   UNL     1     109.624 126.317 138.157  0.00  0.00    +0.000 OA
ATOM     22  O   UNL     1     111.261 125.394 139.268  0.00  0.00    +0.000 OA
ATOM     23  O   UNL     1     111.906 125.450 137.750  0.00  0.00    +0.000 OA
ATOM     24  C   UNL     1     110.062 125.999 138.780  0.00  0.00    +0.000 C 
ATOM     25  C   UNL     1     110.823 125.711 138.644  0.00  0.00    +0.000 C 
ATOM     26  C   UNL     1     111.146 125.739 137.886  0.00  0.00    +0.000 C 
ATOM     27  C   UNL     1     110.708 126.056 137.262  0.00  0.00    +0.000 C 
ATOM     28  C   UNL     1     109.947 126.345 137.398  0.00  0.00    +0.000 C 
ATOM     29  C   UNL     1     109.509 126.662 136.776  0.00  0.00    +0.000 C 
BRANCH  27  30
ATOM     30  O   UNL     1     111.030 126.084 136.504  0.00  0.00    +0.000 OA
BRANCH  30  32
ATOM     31  O   UNL     1     111.037 124.715 136.098  0.00  0.00    +0.000 OA
ATOM     32  C   UNL     1     110.839 125.503 135.953  0.00  0.00    +0.000 C 
ATOM     33  C   UNL     1     110.448 125.707 135.255  0.00  0.00    +0.000 C 
ENDBRANCH  30  32
ENDBRANCH  27  30
ENDBRANCH  20  24
ENDBRANCH  19  20
ENDBRANCH  15  19
ENDBRANCH   9  14
ENDBRANCH   4   9
BRANCH   8  34
ATOM     34  O   UNL     1     111.516 128.518 141.581  0.00  0.00    +0.000 OA
BRANCH  34  38
ATOM     35  O   UNL     1     112.424 128.979 138.852  0.00  0.00    +0.000 OA
ATOM     36  O   UNL     1     113.368 130.694 140.977  0.00  0.00    +0.000 OA
ATOM     37  O   UNL     1     113.796 130.892 139.614  0.00  0.00    +0.000 OA
ATOM     38  C   UNL     1     111.966 128.948 141.039  0.00  0.00    +0.000 A 
ATOM     39  C   UNL     1     111.961 128.735 140.207  0.00  0.00    +0.000 A 
ATOM     40  C   UNL     1     112.443 129.613 141.304  0.00  0.00    +0.000 A 
ATOM     41  C   UNL     1     112.433 129.189 139.650  0.00  0.00    +0.000 A 
ATOM     42  C   UNL     1     112.908 130.055 140.732  0.00  0.00    +0.000 A 
ATOM     43  C   UNL     1     112.890 129.827 139.904  0.00  0.00    +0.000 A 
ATOM     44  C   UNL     1     113.338 130.255 139.360  0.00  0.00    +0.000 A 
ATOM     45  C   UNL     1     112.873 129.408 138.308  0.00  0.00    +0.000 A 
ATOM     46  C   UNL     1     113.330 130.045 138.562  0.00  0.00    +0.000 A 
BRANCH  45  47
ATOM     47  C   UNL     1     112.863 129.197 137.510  0.00  0.00    +0.000 A 
ATOM     48  C   UNL     1     112.286 129.505 137.009  0.00  0.00    +0.000 A 
ATOM     49  C   UNL     1     113.432 128.677 137.215  0.00  0.00    +0.000 A 
ATOM     50  C   UNL     1     112.278 129.294 136.211  0.00  0.00    +0.000 A 
ATOM     51  C   UNL     1     113.423 128.466 136.418  0.00  0.00    +0.000 A 
ATOM     52  C   UNL     1     112.846 128.774 135.915  0.00  0.00    +0.000 A 
BRANCH  52  53
ATOM     53  O   UNL     1     112.838 128.563 135.118  0.00  0.00    +0.000 OA
ATOM     54  C   UNL     1     112.268 128.881 134.613  0.00  0.00    +0.000 C 
ENDBRANCH  52  53
ENDBRANCH  45  47
ENDBRANCH  34  38
ENDBRANCH   8  34
BRANCH   7  55
ATOM     55  C   UNL     1     109.152 129.997 140.956  0.00  0.00    +0.000 C 
BRANCH  55  56
ATOM     56  O   UNL     1     109.167 130.137 140.143  0.00  0.00    +0.000 OA
BRANCH  56  58
ATOM     57  O   UNL     1     108.571 131.423 140.323  0.00  0.00    +0.000 OA
ATOM     58  C   UNL     1     108.981 130.886 139.850  0.00  0.00    +0.000 C 
ATOM     59  C   UNL     1     109.206 131.097 139.085  0.00  0.00    +0.000 C 
ENDBRANCH  56  58
ENDBRANCH  55  56
ENDBRANCH   7  55
TORSDOF 14
ENDMDL
MODEL 9
REMARK VINA RESULT:      -9.4      1.695      4.986
REMARK  Name = 44257905
REMARK  14 active torsions:
REMARK  status: ('A' for Active; 'I' for Inactive)
REMARK    1  A    between atoms: O_1  and  C_22
REMARK    2  A    between atoms: O_1  and  C_23
REMARK    3  A    between atoms: O_4  and  C_32
REMARK    4  A    between atoms: O_4  and  C_33
REMARK    5  A    between atoms: O_11  and  C_31
REMARK    6  A    between atoms: O_11  and  C_40
REMARK    7  A    between atoms: O_12  and  C_36
REMARK    8  A    between atoms: O_12  and  C_41
REMARK    9  A    between atoms: O_15  and  C_38
REMARK   10  A    between atoms: O_15  and  C_43
REMARK   11  A    between atoms: O_21  and  C_58
REMARK   12  A    between atoms: C_24  and  C_32
REMARK   13  A    between atoms: C_30  and  C_38
REMARK   14  A    between atoms: C_51  and  C_53
REMARK                            x       y       z     vdW  Elec       q    Type
REMARK                         _______ _______ _______ _____ _____    ______ ____
ROOT
ATOM      1  O   UNL     1     111.793 125.628 138.130  0.00  0.00    +0.000 OA
ATOM      2  O   UNL     1     110.842 125.710 136.167  0.00  0.00    +0.000 OA
ATOM      3  O   UNL     1     109.862 126.434 138.752  0.00  0.00    +0.000 OA
ATOM      4  C   UNL     1     110.352 126.072 137.460  0.00  0.00    +0.000 C 
ATOM      5  C   UNL     1     110.958 125.780 136.981  0.00  0.00    +0.000 C 
ATOM      6  C   UNL     1     110.468 126.142 138.273  0.00  0.00    +0.000 C 
ATOM      7  C   UNL     1     111.678 125.558 137.316  0.00  0.00    +0.000 C 
ATOM      8  C   UNL     1     111.189 125.920 138.609  0.00  0.00    +0.000 C 
ENDROOT
BRANCH   4   9
ATOM      9  O   UNL     1     109.632 126.294 137.124  0.00  0.00    +0.000 OA
BRANCH   9  14
ATOM     10  O   UNL     1     110.173 127.579 136.813  0.00  0.00    +0.000 OA
ATOM     11  O   UNL     1     108.206 126.722 136.414  0.00  0.00    +0.000 OA
ATOM     12  O   UNL     1     109.287 129.293 135.791  0.00  0.00    +0.000 OA
ATOM     13  O   UNL     1     108.033 128.221 135.747  0.00  0.00    +0.000 OA
ATOM     14  C   UNL     1     109.546 127.044 136.791  0.00  0.00    +0.000 C 
ATOM     15  C   UNL     1     110.087 128.329 136.479  0.00  0.00    +0.000 C 
ATOM     16  C   UNL     1     108.833 127.258 136.436  0.00  0.00    +0.000 C 
ATOM     17  C   UNL     1     109.374 128.543 136.124  0.00  0.00    +0.000 C 
ATOM     18  C   UNL     1     108.746 128.007 136.102  0.00  0.00    +0.000 C 
BRANCH  15  19
ATOM     19  C   UNL     1     110.714 128.865 136.501  0.00  0.00    +0.000 C 
BRANCH  19  20
ATOM     20  O   UNL     1     111.040 129.088 137.225  0.00  0.00    +0.000 OA
BRANCH  20  24
ATOM     21  O   UNL     1     112.420 128.992 136.866  0.00  0.00    +0.000 OA
ATOM     22  O   UNL     1     111.356 130.470 138.069  0.00  0.00    +0.000 OA
ATOM     23  O   UNL     1     112.894 131.065 138.132  0.00  0.00    +0.000 OA
ATOM     24  C   UNL     1     111.810 129.386 137.257  0.00  0.00    +0.000 C 
ATOM     25  C   UNL     1     111.968 130.077 137.679  0.00  0.00    +0.000 C 
ATOM     26  C   UNL     1     112.736 130.374 137.710  0.00  0.00    +0.000 C 
ATOM     27  C   UNL     1     113.348 129.981 137.319  0.00  0.00    +0.000 C 
ATOM     28  C   UNL     1     113.190 129.289 136.898  0.00  0.00    +0.000 C 
ATOM     29  C   UNL     1     113.800 128.895 136.507  0.00  0.00    +0.000 C 
BRANCH  27  30
ATOM     30  O   UNL     1     114.116 130.278 137.351  0.00  0.00    +0.000 OA
BRANCH  30  32
ATOM     31  O   UNL     1     114.028 131.439 136.524  0.00  0.00    +0.000 OA
ATOM     32  C   UNL     1     114.407 130.736 136.730  0.00  0.00    +0.000 C 
ATOM     33  C   UNL     1     115.077 130.492 136.315  0.00  0.00    +0.000 C 
ENDBRANCH  30  32
ENDBRANCH  27  30
ENDBRANCH  20  24
ENDBRANCH  19  20
ENDBRANCH  15  19
ENDBRANCH   9  14
ENDBRANCH   4   9
BRANCH   8  34
ATOM     34  O   UNL     1     111.303 125.990 139.423  0.00  0.00    +0.000 OA
BRANCH  34  38
ATOM     35  O   UNL     1     111.868 128.412 140.939  0.00  0.00    +0.000 OA
ATOM     36  O   UNL     1     114.043 126.957 139.715  0.00  0.00    +0.000 OA
ATOM     37  O   UNL     1     114.285 128.161 140.473  0.00  0.00    +0.000 OA
ATOM     38  C   UNL     1     111.842 126.541 139.717  0.00  0.00    +0.000 A 
ATOM     39  C   UNL     1     111.568 127.206 140.187  0.00  0.00    +0.000 A 
ATOM     40  C   UNL     1     112.682 126.454 139.555  0.00  0.00    +0.000 A 
ATOM     41  C   UNL     1     112.137 127.775 140.489  0.00  0.00    +0.000 A 
ATOM     42  C   UNL     1     113.236 127.033 139.865  0.00  0.00    +0.000 A 
ATOM     43  C   UNL     1     112.943 127.691 140.333  0.00  0.00    +0.000 A 
ATOM     44  C   UNL     1     113.479 128.244 140.629  0.00  0.00    +0.000 A 
ATOM     45  C   UNL     1     112.404 128.964 141.235  0.00  0.00    +0.000 A 
ATOM     46  C   UNL     1     113.210 128.881 141.080  0.00  0.00    +0.000 A 
BRANCH  45  47
ATOM     47  C   UNL     1     112.134 129.601 141.685  0.00  0.00    +0.000 A 
ATOM     48  C   UNL     1     112.205 129.585 142.506  0.00  0.00    +0.000 A 
ATOM     49  C   UNL     1     111.792 130.253 141.313  0.00  0.00    +0.000 A 
ATOM     50  C   UNL     1     111.934 130.221 142.956  0.00  0.00    +0.000 A 
ATOM     51  C   UNL     1     111.522 130.890 141.762  0.00  0.00    +0.000 A 
ATOM     52  C   UNL     1     111.592 130.874 142.584  0.00  0.00    +0.000 A 
BRANCH  52  53
ATOM     53  O   UNL     1     111.321 131.511 143.034  0.00  0.00    +0.000 OA
ATOM     54  C   UNL     1     111.859 132.050 143.351  0.00  0.00    +0.000 C 
ENDBRANCH  52  53
ENDBRANCH  45  47
ENDBRANCH  34  38
ENDBRANCH   8  34
BRANCH   7  55
ATOM     55  C   UNL     1     112.283 125.266 136.838  0.00  0.00    +0.000 C 
BRANCH  55  56
ATOM     56  O   UNL     1     112.875 124.793 137.164  0.00  0.00    +0.000 OA
BRANCH  56  58
ATOM     57  O   UNL     1     113.378 123.787 136.283  0.00  0.00    +0.000 OA
ATOM     58  C   UNL     1     113.480 124.500 136.685  0.00  0.00    +0.000 C 
ATOM     59  C   UNL     1     114.187 124.919 136.608  0.00  0.00    +0.000 C 
ENDBRANCH  56  58
ENDBRANCH  55  56
ENDBRANCH   7  55
TORSDOF 14
ENDMDL
MODEL 10
REMARK VINA RESULT:      -9.4      1.543      2.778
REMARK  Name = 44257905
REMARK  14 active torsions:
REMARK  status: ('A' for Active; 'I' for Inactive)
REMARK    1  A    between atoms: O_1  and  C_22
REMARK    2  A    between atoms: O_1  and  C_23
REMARK    3  A    between atoms: O_4  and  C_32
REMARK    4  A    between atoms: O_4  and  C_33
REMARK    5  A    between atoms: O_11  and  C_31
REMARK    6  A    between atoms: O_11  and  C_40
REMARK    7  A    between atoms: O_12  and  C_36
REMARK    8  A    between atoms: O_12  and  C_41
REMARK    9  A    between atoms: O_15  and  C_38
REMARK   10  A    between atoms: O_15  and  C_43
REMARK   11  A    between atoms: O_21  and  C_58
REMARK   12  A    between atoms: C_24  and  C_32
REMARK   13  A    between atoms: C_30  and  C_38
REMARK   14  A    between atoms: C_51  and  C_53
REMARK                            x       y       z     vdW  Elec       q    Type
REMARK                         _______ _______ _______ _____ _____    ______ ____
ROOT
ATOM      1  O   UNL     1     110.182 129.853 140.349  0.00  0.00    +0.000 OA
ATOM      2  O   UNL     1     110.136 131.956 139.765  0.00  0.00    +0.000 OA
ATOM      3  O   UNL     1     108.398 129.790 139.092  0.00  0.00    +0.000 OA
ATOM      4  C   UNL     1     109.267 130.873 139.429  0.00  0.00    +0.000 C 
ATOM      5  C   UNL     1     109.931 131.160 139.827  0.00  0.00    +0.000 C 
ATOM      6  C   UNL     1     109.062 130.076 139.491  0.00  0.00    +0.000 C 
ATOM      7  C   UNL     1     110.388 130.650 140.287  0.00  0.00    +0.000 C 
ATOM      8  C   UNL     1     109.519 129.567 139.951  0.00  0.00    +0.000 C 
ENDROOT
BRANCH   4   9
ATOM      9  O   UNL     1     108.810 131.383 138.969  0.00  0.00    +0.000 OA
BRANCH   9  14
ATOM     10  O   UNL     1     109.617 131.093 137.826  0.00  0.00    +0.000 OA
ATOM     11  O   UNL     1     107.740 132.192 138.008  0.00  0.00    +0.000 OA
ATOM     12  O   UNL     1     109.355 131.612 135.722  0.00  0.00    +0.000 OA
ATOM     13  O   UNL     1     108.012 132.307 136.384  0.00  0.00    +0.000 OA
ATOM     14  C   UNL     1     108.947 131.440 138.157  0.00  0.00    +0.000 C 
ATOM     15  C   UNL     1     109.754 131.150 137.014  0.00  0.00    +0.000 C 
ATOM     16  C   UNL     1     108.412 131.844 137.676  0.00  0.00    +0.000 C 
ATOM     17  C   UNL     1     109.219 131.554 136.534  0.00  0.00    +0.000 C 
ATOM     18  C   UNL     1     108.547 131.902 136.865  0.00  0.00    +0.000 C 
BRANCH  15  19
ATOM     19  C   UNL     1     110.424 130.803 136.683  0.00  0.00    +0.000 C 
BRANCH  19  20
ATOM     20  O   UNL     1     110.540 129.988 136.743  0.00  0.00    +0.000 OA
BRANCH  20  24
ATOM     21  O   UNL     1     111.967 130.031 136.803  0.00  0.00    +0.000 OA
ATOM     22  O   UNL     1     110.619 128.590 135.870  0.00  0.00    +0.000 OA
ATOM     23  O   UNL     1     112.085 127.934 135.494  0.00  0.00    +0.000 OA
ATOM     24  C   UNL     1     111.274 129.660 136.555  0.00  0.00    +0.000 C 
ATOM     25  C   UNL     1     111.313 128.961 136.118  0.00  0.00    +0.000 C 
ATOM     26  C   UNL     1     112.046 128.633 135.930  0.00  0.00    +0.000 C 
ATOM     27  C   UNL     1     112.740 129.004 136.178  0.00  0.00    +0.000 C 
ATOM     28  C   UNL     1     112.701 129.703 136.615  0.00  0.00    +0.000 C 
ATOM     29  C   UNL     1     113.394 130.074 136.863  0.00  0.00    +0.000 C 
BRANCH  27  30
ATOM     30  O   UNL     1     113.473 128.676 135.990  0.00  0.00    +0.000 OA
BRANCH  30  32
ATOM     31  O   UNL     1     113.519 129.138 134.639  0.00  0.00    +0.000 OA
ATOM     32  C   UNL     1     113.903 128.967 135.350  0.00  0.00    +0.000 C 
ATOM     33  C   UNL     1     114.716 129.088 135.419  0.00  0.00    +0.000 C 
ENDBRANCH  30  32
ENDBRANCH  27  30
ENDBRANCH  20  24
ENDBRANCH  19  20
ENDBRANCH  15  19
ENDBRANCH   9  14
ENDBRANCH   4   9
BRANCH   8  34
ATOM     34  O   UNL     1     109.313 128.770 140.012  0.00  0.00    +0.000 OA
BRANCH  34  38
ATOM     35  O   UNL     1     111.595 127.120 139.271  0.00  0.00    +0.000 OA
ATOM     36  O   UNL     1     110.549 126.981 141.961  0.00  0.00    +0.000 OA
ATOM     37  O   UNL     1     111.679 126.179 141.558  0.00  0.00    +0.000 OA
ATOM     38  C   UNL     1     109.885 128.210 140.210  0.00  0.00    +0.000 A 
ATOM     39  C   UNL     1     110.457 127.950 139.623  0.00  0.00    +0.000 A 
ATOM     40  C   UNL     1     109.914 127.883 141.004  0.00  0.00    +0.000 A 
ATOM     41  C   UNL     1     111.049 127.366 139.839  0.00  0.00    +0.000 A 
ATOM     42  C   UNL     1     110.514 127.300 141.201  0.00  0.00    +0.000 A 
ATOM     43  C   UNL     1     111.077 127.052 140.601  0.00  0.00    +0.000 A 
ATOM     44  C   UNL     1     111.651 126.492 140.795  0.00  0.00    +0.000 A 
ATOM     45  C   UNL     1     112.169 126.560 139.466  0.00  0.00    +0.000 A 
ATOM     46  C   UNL     1     112.197 126.246 140.228  0.00  0.00    +0.000 A 
BRANCH  45  47
ATOM     47  C   UNL     1     112.715 126.315 138.897  0.00  0.00    +0.000 A 
ATOM     48  C   UNL     1     112.484 125.797 138.300  0.00  0.00    +0.000 A 
ATOM     49  C   UNL     1     113.492 126.589 138.928  0.00  0.00    +0.000 A 
ATOM     50  C   UNL     1     113.030 125.552 137.732  0.00  0.00    +0.000 A 
ATOM     51  C   UNL     1     114.039 126.344 138.360  0.00  0.00    +0.000 A 
ATOM     52  C   UNL     1     113.808 125.826 137.762  0.00  0.00    +0.000 A 
BRANCH  52  53
ATOM     53  O   UNL     1     114.354 125.582 137.194  0.00  0.00    +0.000 OA
ATOM     54  C   UNL     1     114.095 125.210 136.505  0.00  0.00    +0.000 C 
ENDBRANCH  52  53
ENDBRANCH  45  47
ENDBRANCH  34  38
ENDBRANCH   8  34
BRANCH   7  55
ATOM     55  C   UNL     1     111.051 130.936 140.685  0.00  0.00    +0.000 C 
BRANCH  55  56
ATOM     56  O   UNL     1     111.784 130.571 140.582  0.00  0.00    +0.000 OA
BRANCH  56  58
ATOM     57  O   UNL     1     112.273 131.223 141.756  0.00  0.00    +0.000 OA
ATOM     58  C   UNL     1     112.398 130.721 141.113  0.00  0.00    +0.000 C 
ATOM     59  C   UNL     1     113.136 130.370 141.000  0.00  0.00    +0.000 C 
ENDBRANCH  56  58
ENDBRANCH  55  56
ENDBRANCH   7  55
TORSDOF 14
ENDMDL
