MODEL 1
REMARK VINA RESULT:      -9.9      0.000      0.000
REMARK  Name = 44258220
REMARK  6 active torsions:
REMARK  status: ('A' for Active; 'I' for Inactive)
REMARK    1  A    between atoms: O_5  and  C_24
REMARK    2  A    between atoms: O_5  and  C_33
REMARK    3  A    between atoms: O_13  and  C_38
REMARK    4  A    between atoms: C_16  and  C_25
REMARK    5  A    between atoms: C_23  and  C_27
REMARK    6  A    between atoms: C_35  and  C_36
REMARK                            x       y       z     vdW  Elec       q    Type
REMARK                         _______ _______ _______ _____ _____    ______ ____
ROOT
ATOM      1  O   UNL     1     111.908 129.480 137.698  0.00  0.00    +0.000 OA
ATOM      2  O   UNL     1     112.207 127.273 135.850  0.00  0.00    +0.000 OA
ATOM      3  O   UNL     1     113.238 127.056 138.507  0.00  0.00    +0.000 OA
ATOM      4  O   UNL     1     111.534 128.469 135.406  0.00  0.00    +0.000 OA
ATOM      5  C   UNL     1     112.722 127.164 137.179  0.00  0.00    +0.000 A 
ATOM      6  C   UNL     1     112.330 127.599 136.598  0.00  0.00    +0.000 A 
ATOM      7  C   UNL     1     112.846 127.491 137.926  0.00  0.00    +0.000 A 
ATOM      8  C   UNL     1     112.061 128.361 136.765  0.00  0.00    +0.000 A 
ATOM      9  C   UNL     1     112.184 128.688 137.513  0.00  0.00    +0.000 A 
ATOM     10  C   UNL     1     112.576 128.252 138.093  0.00  0.00    +0.000 A 
ATOM     11  C   UNL     1     111.653 128.804 136.151  0.00  0.00    +0.000 A 
ATOM     12  C   UNL     1     111.498 129.938 137.097  0.00  0.00    +0.000 A 
ATOM     13  C   UNL     1     111.370 129.598 136.318  0.00  0.00    +0.000 A 
ENDROOT
BRANCH   5  18
ATOM     14  O   UNL     1     112.492 125.755 137.118  0.00  0.00    +0.000 OA
ATOM     15  O   UNL     1     114.802 125.411 136.298  0.00  0.00    +0.000 OA
ATOM     16  O   UNL     1     113.800 124.117 136.511  0.00  0.00    +0.000 OA
ATOM     17  C   UNL     1     114.032 125.526 136.572  0.00  0.00    +0.000 C 
ATOM     18  C   UNL     1     112.992 126.402 137.012  0.00  0.00    +0.000 C 
ATOM     19  C   UNL     1     113.531 124.879 136.678  0.00  0.00    +0.000 C 
ATOM     20  C   UNL     1     113.762 126.288 136.739  0.00  0.00    +0.000 C 
ATOM     21  C   UNL     1     112.761 124.993 136.951  0.00  0.00    +0.000 C 
ATOM     22  C   UNL     1     112.260 124.346 137.057  0.00  0.00    +0.000 C 
ENDBRANCH   5  18
BRANCH  12  24
ATOM     23  C   UNL     1     110.282 131.566 137.893  0.00  0.00    +0.000 A 
ATOM     24  C   UNL     1     111.230 130.700 137.267  0.00  0.00    +0.000 A 
ATOM     25  C   UNL     1     110.551 130.805 137.723  0.00  0.00    +0.000 A 
ATOM     26  C   UNL     1     110.693 132.221 137.608  0.00  0.00    +0.000 A 
ATOM     27  C   UNL     1     111.641 131.355 136.983  0.00  0.00    +0.000 A 
ATOM     28  C   UNL     1     111.373 132.116 137.153  0.00  0.00    +0.000 A 
BRANCH  26  29
ATOM     29  O   UNL     1     110.425 132.983 137.779  0.00  0.00    +0.000 OA
ATOM     30  C   UNL     1     110.531 133.590 137.231  0.00  0.00    +0.000 C 
ENDBRANCH  26  29
BRANCH  23  31
ATOM     31  O   UNL     1     109.602 131.671 138.349  0.00  0.00    +0.000 OA
BRANCH  31  40
ATOM     32  O   UNL     1     110.110 131.388 139.654  0.00  0.00    +0.000 OA
ATOM     33  O   UNL     1     108.151 129.944 140.103  0.00  0.00    +0.000 OA
ATOM     34  O   UNL     1     109.312 130.142 141.259  0.00  0.00    +0.000 OA
ATOM     35  O   UNL     1     108.296 130.708 138.648  0.00  0.00    +0.000 OA
ATOM     36  C   UNL     1     108.804 130.425 139.954  0.00  0.00    +0.000 C 
ATOM     37  C   UNL     1     109.385 130.525 140.531  0.00  0.00    +0.000 C 
ATOM     38  C   UNL     1     108.877 130.808 139.226  0.00  0.00    +0.000 C 
ATOM     39  C   UNL     1     110.038 131.006 140.381  0.00  0.00    +0.000 C 
ATOM     40  C   UNL     1     109.530 131.289 139.076  0.00  0.00    +0.000 C 
BRANCH  39  42
ATOM     41  O   UNL     1     110.848 131.863 141.188  0.00  0.00    +0.000 OA
ATOM     42  C   UNL     1     110.618 131.105 140.959  0.00  0.00    +0.000 C 
ENDBRANCH  39  42
ENDBRANCH  31  40
ENDBRANCH  23  31
ENDBRANCH  12  24
TORSDOF 6
ENDMDL
MODEL 2
REMARK VINA RESULT:      -9.9      1.250      1.793
REMARK  Name = 44258220
REMARK  6 active torsions:
REMARK  status: ('A' for Active; 'I' for Inactive)
REMARK    1  A    between atoms: O_5  and  C_24
REMARK    2  A    between atoms: O_5  and  C_33
REMARK    3  A    between atoms: O_13  and  C_38
REMARK    4  A    between atoms: C_16  and  C_25
REMARK    5  A    between atoms: C_23  and  C_27
REMARK    6  A    between atoms: C_35  and  C_36
REMARK                            x       y       z     vdW  Elec       q    Type
REMARK                         _______ _______ _______ _____ _____    ______ ____
ROOT
ATOM      1  O   UNL     1     110.495 128.358 137.482  0.00  0.00    +0.000 OA
ATOM      2  O   UNL     1     112.989 127.341 136.423  0.00  0.00    +0.000 OA
ATOM      3  O   UNL     1     111.650 125.931 138.518  0.00  0.00    +0.000 OA
ATOM      4  O   UNL     1     112.444 128.559 135.877  0.00  0.00    +0.000 OA
ATOM      5  C   UNL     1     112.320 126.636 137.471  0.00  0.00    +0.000 A 
ATOM      6  C   UNL     1     112.356 127.272 136.947  0.00  0.00    +0.000 A 
ATOM      7  C   UNL     1     111.686 126.567 137.995  0.00  0.00    +0.000 A 
ATOM      8  C   UNL     1     111.758 127.841 136.948  0.00  0.00    +0.000 A 
ATOM      9  C   UNL     1     111.124 127.772 137.472  0.00  0.00    +0.000 A 
ATOM     10  C   UNL     1     111.088 127.136 137.995  0.00  0.00    +0.000 A 
ATOM     11  C   UNL     1     111.807 128.499 136.398  0.00  0.00    +0.000 A 
ATOM     12  C   UNL     1     110.527 129.024 136.939  0.00  0.00    +0.000 A 
ATOM     13  C   UNL     1     111.187 129.095 136.393  0.00  0.00    +0.000 A 
ENDROOT
BRANCH   5  18
ATOM     14  O   UNL     1     112.861 125.408 136.978  0.00  0.00    +0.000 OA
ATOM     15  O   UNL     1     114.828 125.681 138.454  0.00  0.00    +0.000 OA
ATOM     16  O   UNL     1     114.712 124.362 137.469  0.00  0.00    +0.000 OA
ATOM     17  C   UNL     1     114.172 125.590 137.962  0.00  0.00    +0.000 C 
ATOM     18  C   UNL     1     112.918 126.067 137.470  0.00  0.00    +0.000 C 
ATOM     19  C   UNL     1     114.114 124.930 137.470  0.00  0.00    +0.000 C 
ATOM     20  C   UNL     1     113.574 126.158 137.962  0.00  0.00    +0.000 C 
ATOM     21  C   UNL     1     113.459 124.840 136.978  0.00  0.00    +0.000 C 
ATOM     22  C   UNL     1     113.401 124.180 136.485  0.00  0.00    +0.000 C 
ENDBRANCH   5  18
BRANCH  12  24
ATOM     23  C   UNL     1     109.338 130.765 137.505  0.00  0.00    +0.000 A 
ATOM     24  C   UNL     1     109.927 129.591 136.942  0.00  0.00    +0.000 A 
ATOM     25  C   UNL     1     109.937 130.197 137.500  0.00  0.00    +0.000 A 
ATOM     26  C   UNL     1     108.730 130.724 136.950  0.00  0.00    +0.000 A 
ATOM     27  C   UNL     1     109.319 129.551 136.387  0.00  0.00    +0.000 A 
ATOM     28  C   UNL     1     108.720 130.117 136.391  0.00  0.00    +0.000 A 
BRANCH  26  29
ATOM     29  O   UNL     1     108.130 131.292 136.953  0.00  0.00    +0.000 OA
ATOM     30  C   UNL     1     107.726 131.469 136.256  0.00  0.00    +0.000 C 
ENDBRANCH  26  29
BRANCH  23  31
ATOM     31  O   UNL     1     109.348 131.372 138.063  0.00  0.00    +0.000 OA
BRANCH  31  40
ATOM     32  O   UNL     1     108.980 130.631 139.229  0.00  0.00    +0.000 OA
ATOM     33  O   UNL     1     110.740 131.795 140.523  0.00  0.00    +0.000 OA
ATOM     34  O   UNL     1     109.785 130.667 141.258  0.00  0.00    +0.000 OA
ATOM     35  O   UNL     1     110.521 132.147 138.926  0.00  0.00    +0.000 OA
ATOM     36  C   UNL     1     110.153 131.407 140.092  0.00  0.00    +0.000 C 
ATOM     37  C   UNL     1     109.676 130.843 140.458  0.00  0.00    +0.000 C 
ATOM     38  C   UNL     1     110.044 131.583 139.293  0.00  0.00    +0.000 C 
ATOM     39  C   UNL     1     109.089 130.455 140.027  0.00  0.00    +0.000 C 
ATOM     40  C   UNL     1     109.457 131.195 138.861  0.00  0.00    +0.000 C 
BRANCH  39  42
ATOM     41  O   UNL     1     107.795 129.909 140.288  0.00  0.00    +0.000 OA
ATOM     42  C   UNL     1     108.612 129.891 140.395  0.00  0.00    +0.000 C 
ENDBRANCH  39  42
ENDBRANCH  31  40
ENDBRANCH  23  31
ENDBRANCH  12  24
TORSDOF 6
ENDMDL
MODEL 3
REMARK VINA RESULT:      -9.9      1.495      2.971
REMARK  Name = 44258220
REMARK  6 active torsions:
REMARK  status: ('A' for Active; 'I' for Inactive)
REMARK    1  A    between atoms: O_5  and  C_24
REMARK    2  A    between atoms: O_5  and  C_33
REMARK    3  A    between atoms: O_13  and  C_38
REMARK    4  A    between atoms: C_16  and  C_25
REMARK    5  A    between atoms: C_23  and  C_27
REMARK    6  A    between atoms: C_35  and  C_36
REMARK                            x       y       z     vdW  Elec       q    Type
REMARK                         _______ _______ _______ _____ _____    ______ ____
ROOT
ATOM      1  O   UNL     1     112.519 128.763 139.732  0.00  0.00    +0.000 OA
ATOM      2  O   UNL     1     112.638 125.878 139.531  0.00  0.00    +0.000 OA
ATOM      3  O   UNL     1     113.296 127.492 137.265  0.00  0.00    +0.000 OA
ATOM      4  O   UNL     1     112.244 126.475 140.783  0.00  0.00    +0.000 OA
ATOM      5  C   UNL     1     112.967 126.685 138.398  0.00  0.00    +0.000 A 
ATOM      6  C   UNL     1     112.728 126.622 139.185  0.00  0.00    +0.000 A 
ATOM      7  C   UNL     1     113.057 127.429 138.053  0.00  0.00    +0.000 A 
ATOM      8  C   UNL     1     112.580 127.303 139.627  0.00  0.00    +0.000 A 
ATOM      9  C   UNL     1     112.670 128.047 139.282  0.00  0.00    +0.000 A 
ATOM     10  C   UNL     1     112.909 128.110 138.494  0.00  0.00    +0.000 A 
ATOM     11  C   UNL     1     112.332 127.223 140.446  0.00  0.00    +0.000 A 
ATOM     12  C   UNL     1     112.270 128.703 140.553  0.00  0.00    +0.000 A 
ATOM     13  C   UNL     1     112.176 127.928 140.912  0.00  0.00    +0.000 A 
ENDROOT
BRANCH   5  18
ATOM     14  O   UNL     1     112.500 125.634 137.550  0.00  0.00    +0.000 OA
ATOM     15  O   UNL     1     114.791 124.703 137.443  0.00  0.00    +0.000 OA
ATOM     16  O   UNL     1     113.560 123.962 136.631  0.00  0.00    +0.000 OA
ATOM     17  C   UNL     1     114.027 125.013 137.478  0.00  0.00    +0.000 C 
ATOM     18  C   UNL     1     113.115 126.005 137.956  0.00  0.00    +0.000 C 
ATOM     19  C   UNL     1     113.412 124.643 137.072  0.00  0.00    +0.000 C 
ATOM     20  C   UNL     1     113.878 125.694 137.920  0.00  0.00    +0.000 C 
ATOM     21  C   UNL     1     112.648 124.953 137.108  0.00  0.00    +0.000 C 
ATOM     22  C   UNL     1     112.033 124.583 136.702  0.00  0.00    +0.000 C 
ENDBRANCH   5  18
BRANCH  12  24
ATOM     23  C   UNL     1     111.205 130.360 141.493  0.00  0.00    +0.000 A 
ATOM     24  C   UNL     1     112.123 129.386 140.992  0.00  0.00    +0.000 A 
ATOM     25  C   UNL     1     111.354 129.678 141.054  0.00  0.00    +0.000 A 
ATOM     26  C   UNL     1     111.827 130.751 141.869  0.00  0.00    +0.000 A 
ATOM     27  C   UNL     1     112.743 129.777 141.368  0.00  0.00    +0.000 A 
ATOM     28  C   UNL     1     112.596 130.460 141.806  0.00  0.00    +0.000 A 
BRANCH  26  29
ATOM     29  O   UNL     1     111.678 131.434 142.308  0.00  0.00    +0.000 OA
ATOM     30  C   UNL     1     112.231 131.697 142.861  0.00  0.00    +0.000 C 
ENDBRANCH  26  29
BRANCH  23  31
ATOM     31  O   UNL     1     110.436 130.652 141.555  0.00  0.00    +0.000 OA
BRANCH  31  40
ATOM     32  O   UNL     1     110.249 131.146 140.228  0.00  0.00    +0.000 OA
ATOM     33  O   UNL     1     107.999 130.117 140.162  0.00  0.00    +0.000 OA
ATOM     34  O   UNL     1     108.561 130.954 138.856  0.00  0.00    +0.000 OA
ATOM     35  O   UNL     1     108.936 129.966 141.512  0.00  0.00    +0.000 OA
ATOM     36  C   UNL     1     108.749 130.460 140.184  0.00  0.00    +0.000 C 
ATOM     37  C   UNL     1     109.031 130.878 139.531  0.00  0.00    +0.000 C 
ATOM     38  C   UNL     1     109.218 130.384 140.859  0.00  0.00    +0.000 C 
ATOM     39  C   UNL     1     109.781 131.221 139.553  0.00  0.00    +0.000 C 
ATOM     40  C   UNL     1     109.968 130.728 140.881  0.00  0.00    +0.000 C 
BRANCH  39  42
ATOM     41  O   UNL     1     110.469 132.348 139.007  0.00  0.00    +0.000 OA
ATOM     42  C   UNL     1     110.061 131.640 138.900  0.00  0.00    +0.000 C 
ENDBRANCH  39  42
ENDBRANCH  31  40
ENDBRANCH  23  31
ENDBRANCH  12  24
TORSDOF 6
ENDMDL
MODEL 4
REMARK VINA RESULT:      -9.9      2.396      6.014
REMARK  Name = 44258220
REMARK  6 active torsions:
REMARK  status: ('A' for Active; 'I' for Inactive)
REMARK    1  A    between atoms: O_5  and  C_24
REMARK    2  A    between atoms: O_5  and  C_33
REMARK    3  A    between atoms: O_13  and  C_38
REMARK    4  A    between atoms: C_16  and  C_25
REMARK    5  A    between atoms: C_23  and  C_27
REMARK    6  A    between atoms: C_35  and  C_36
REMARK                            x       y       z     vdW  Elec       q    Type
REMARK                         _______ _______ _______ _____ _____    ______ ____
ROOT
ATOM      1  O   UNL     1     110.459 127.548 136.791  0.00  0.00    +0.000 OA
ATOM      2  O   UNL     1     110.640 129.812 134.997  0.00  0.00    +0.000 OA
ATOM      3  O   UNL     1     108.822 129.883 137.202  0.00  0.00    +0.000 OA
ATOM      4  O   UNL     1     111.477 128.663 134.757  0.00  0.00    +0.000 OA
ATOM      5  C   UNL     1     109.731 129.848 136.099  0.00  0.00    +0.000 A 
ATOM      6  C   UNL     1     110.306 129.452 135.660  0.00  0.00    +0.000 A 
ATOM      7  C   UNL     1     109.397 129.487 136.763  0.00  0.00    +0.000 A 
ATOM      8  C   UNL     1     110.548 128.696 135.884  0.00  0.00    +0.000 A 
ATOM      9  C   UNL     1     110.215 128.335 136.548  0.00  0.00    +0.000 A 
ATOM     10  C   UNL     1     109.640 128.731 136.987  0.00  0.00    +0.000 A 
ATOM     11  C   UNL     1     111.149 128.294 135.419  0.00  0.00    +0.000 A 
ATOM     12  C   UNL     1     111.059 127.131 136.337  0.00  0.00    +0.000 A 
ATOM     13  C   UNL     1     111.406 127.506 135.646  0.00  0.00    +0.000 A 
ENDROOT
BRANCH   5  18
ATOM     14  O   UNL     1     109.880 131.267 136.170  0.00  0.00    +0.000 OA
ATOM     15  O   UNL     1     107.977 131.546 134.612  0.00  0.00    +0.000 OA
ATOM     16  O   UNL     1     108.761 132.872 135.202  0.00  0.00    +0.000 OA
ATOM     17  C   UNL     1     108.611 131.453 135.131  0.00  0.00    +0.000 C 
ATOM     18  C   UNL     1     109.489 130.604 135.875  0.00  0.00    +0.000 C 
ATOM     19  C   UNL     1     109.003 132.116 135.426  0.00  0.00    +0.000 C 
ATOM     20  C   UNL     1     108.854 130.697 135.356  0.00  0.00    +0.000 C 
ATOM     21  C   UNL     1     109.638 132.023 135.946  0.00  0.00    +0.000 C 
ATOM     22  C   UNL     1     110.030 132.686 136.241  0.00  0.00    +0.000 C 
ENDBRANCH   5  18
BRANCH  12  24
ATOM     23  C   UNL     1     112.076 125.526 137.412  0.00  0.00    +0.000 A 
ATOM     24  C   UNL     1     111.299 126.375 136.564  0.00  0.00    +0.000 A 
ATOM     25  C   UNL     1     111.835 126.281 137.184  0.00  0.00    +0.000 A 
ATOM     26  C   UNL     1     111.779 124.864 137.019  0.00  0.00    +0.000 A 
ATOM     27  C   UNL     1     111.003 125.713 136.172  0.00  0.00    +0.000 A 
ATOM     28  C   UNL     1     111.243 124.957 136.399  0.00  0.00    +0.000 A 
BRANCH  26  29
ATOM     29  O   UNL     1     112.020 124.108 137.247  0.00  0.00    +0.000 OA
ATOM     30  C   UNL     1     111.976 123.483 136.710  0.00  0.00    +0.000 C 
ENDBRANCH  26  29
BRANCH  23  31
ATOM     31  O   UNL     1     112.612 125.433 138.032  0.00  0.00    +0.000 OA
BRANCH  31  40
ATOM     32  O   UNL     1     111.813 125.889 139.125  0.00  0.00    +0.000 OA
ATOM     33  O   UNL     1     113.723 127.219 139.966  0.00  0.00    +0.000 OA
ATOM     34  O   UNL     1     112.287 127.232 140.779  0.00  0.00    +0.000 OA
ATOM     35  O   UNL     1     113.885 126.320 138.592  0.00  0.00    +0.000 OA
ATOM     36  C   UNL     1     113.086 126.776 139.686  0.00  0.00    +0.000 C 
ATOM     37  C   UNL     1     112.368 126.782 140.092  0.00  0.00    +0.000 C 
ATOM     38  C   UNL     1     113.167 126.326 138.998  0.00  0.00    +0.000 C 
ATOM     39  C   UNL     1     111.732 126.338 139.811  0.00  0.00    +0.000 C 
ATOM     40  C   UNL     1     112.531 125.882 138.718  0.00  0.00    +0.000 C 
BRANCH  39  42
ATOM     41  O   UNL     1     110.579 125.650 140.300  0.00  0.00    +0.000 OA
ATOM     42  C   UNL     1     111.014 126.345 140.218  0.00  0.00    +0.000 C 
ENDBRANCH  39  42
ENDBRANCH  31  40
ENDBRANCH  23  31
ENDBRANCH  12  24
TORSDOF 6
ENDMDL
MODEL 5
REMARK VINA RESULT:      -9.9      2.945      5.931
REMARK  Name = 44258220
REMARK  6 active torsions:
REMARK  status: ('A' for Active; 'I' for Inactive)
REMARK    1  A    between atoms: O_5  and  C_24
REMARK    2  A    between atoms: O_5  and  C_33
REMARK    3  A    between atoms: O_13  and  C_38
REMARK    4  A    between atoms: C_16  and  C_25
REMARK    5  A    between atoms: C_23  and  C_27
REMARK    6  A    between atoms: C_35  and  C_36
REMARK                            x       y       z     vdW  Elec       q    Type
REMARK                         _______ _______ _______ _____ _____    ______ ____
ROOT
ATOM      1  O   UNL     1     112.768 127.429 138.225  0.00  0.00    +0.000 OA
ATOM      2  O   UNL     1     113.868 128.255 140.771  0.00  0.00    +0.000 OA
ATOM      3  O   UNL     1     113.340 130.204 138.748  0.00  0.00    +0.000 OA
ATOM      4  O   UNL     1     113.596 126.856 140.549  0.00  0.00    +0.000 OA
ATOM      5  C   UNL     1     113.604 129.229 139.760  0.00  0.00    +0.000 A 
ATOM      6  C   UNL     1     113.599 128.445 140.015  0.00  0.00    +0.000 A 
ATOM      7  C   UNL     1     113.335 129.419 139.003  0.00  0.00    +0.000 A 
ATOM      8  C   UNL     1     113.325 127.850 139.513  0.00  0.00    +0.000 A 
ATOM      9  C   UNL     1     113.056 128.039 138.756  0.00  0.00    +0.000 A 
ATOM     10  C   UNL     1     113.061 128.824 138.501  0.00  0.00    +0.000 A 
ATOM     11  C   UNL     1     113.325 127.037 139.790  0.00  0.00    +0.000 A 
ATOM     12  C   UNL     1     112.761 126.609 138.485  0.00  0.00    +0.000 A 
ATOM     13  C   UNL     1     113.041 126.412 139.273  0.00  0.00    +0.000 A 
ENDROOT
BRANCH   5  18
ATOM     14  O   UNL     1     114.656 130.088 140.203  0.00  0.00    +0.000 OA
ATOM     15  O   UNL     1     113.139 131.083 141.886  0.00  0.00    +0.000 OA
ATOM     16  O   UNL     1     114.698 131.609 141.768  0.00  0.00    +0.000 OA
ATOM     17  C   UNL     1     113.644 130.751 141.325  0.00  0.00    +0.000 C 
ATOM     18  C   UNL     1     113.877 129.824 140.262  0.00  0.00    +0.000 C 
ATOM     19  C   UNL     1     114.424 131.014 141.266  0.00  0.00    +0.000 C 
ATOM     20  C   UNL     1     113.371 130.156 140.823  0.00  0.00    +0.000 C 
ATOM     21  C   UNL     1     114.930 130.683 140.705  0.00  0.00    +0.000 C 
ATOM     22  C   UNL     1     115.710 130.946 140.646  0.00  0.00    +0.000 C 
ENDBRANCH   5  18
BRANCH  12  24
ATOM     23  C   UNL     1     111.429 125.437 137.214  0.00  0.00    +0.000 A 
ATOM     24  C   UNL     1     112.487 126.017 137.980  0.00  0.00    +0.000 A 
ATOM     25  C   UNL     1     111.704 126.028 137.719  0.00  0.00    +0.000 A 
ATOM     26  C   UNL     1     111.936 124.833 136.972  0.00  0.00    +0.000 A 
ATOM     27  C   UNL     1     112.993 125.413 137.738  0.00  0.00    +0.000 A 
ATOM     28  C   UNL     1     112.719 124.821 137.234  0.00  0.00    +0.000 A 
BRANCH  26  29
ATOM     29  O   UNL     1     111.661 124.241 136.467  0.00  0.00    +0.000 OA
ATOM     30  C   UNL     1     112.024 123.500 136.465  0.00  0.00    +0.000 C 
ENDBRANCH  26  29
BRANCH  23  31
ATOM     31  O   UNL     1     110.646 125.448 136.953  0.00  0.00    +0.000 OA
BRANCH  31  40
ATOM     32  O   UNL     1     110.709 126.443 135.929  0.00  0.00    +0.000 OA
ATOM     33  O   UNL     1     108.688 127.528 136.860  0.00  0.00    +0.000 OA
ATOM     34  O   UNL     1     109.425 128.161 135.526  0.00  0.00    +0.000 OA
ATOM     35  O   UNL     1     109.299 126.171 137.573  0.00  0.00    +0.000 OA
ATOM     36  C   UNL     1     109.362 127.166 136.549  0.00  0.00    +0.000 C 
ATOM     37  C   UNL     1     109.730 127.483 135.883  0.00  0.00    +0.000 C 
ATOM     38  C   UNL     1     109.668 126.488 136.906  0.00  0.00    +0.000 C 
ATOM     39  C   UNL     1     110.404 127.121 135.572  0.00  0.00    +0.000 C 
ATOM     40  C   UNL     1     110.341 126.126 136.596  0.00  0.00    +0.000 C 
BRANCH  39  42
ATOM     41  O   UNL     1     111.547 127.714 134.953  0.00  0.00    +0.000 OA
ATOM     42  C   UNL     1     110.772 127.438 134.905  0.00  0.00    +0.000 C 
ENDBRANCH  39  42
ENDBRANCH  31  40
ENDBRANCH  23  31
ENDBRANCH  12  24
TORSDOF 6
ENDMDL
MODEL 6
REMARK VINA RESULT:      -9.8      6.055      9.092
REMARK  Name = 44258220
REMARK  6 active torsions:
REMARK  status: ('A' for Active; 'I' for Inactive)
REMARK    1  A    between atoms: O_5  and  C_24
REMARK    2  A    between atoms: O_5  and  C_33
REMARK    3  A    between atoms: O_13  and  C_38
REMARK    4  A    between atoms: C_16  and  C_25
REMARK    5  A    between atoms: C_23  and  C_27
REMARK    6  A    between atoms: C_35  and  C_36
REMARK                            x       y       z     vdW  Elec       q    Type
REMARK                         _______ _______ _______ _____ _____    ______ ____
ROOT
ATOM      1  O   UNL     1     105.658 128.023 144.435  0.00  0.00    +0.000 OA
ATOM      2  O   UNL     1     106.637 125.426 145.255  0.00  0.00    +0.000 OA
ATOM      3  O   UNL     1     106.323 127.506 147.191  0.00  0.00    +0.000 OA
ATOM      4  O   UNL     1     106.316 125.644 143.866  0.00  0.00    +0.000 OA
ATOM      5  C   UNL     1     106.480 126.466 146.223  0.00  0.00    +0.000 A 
ATOM      6  C   UNL     1     106.424 126.201 145.444  0.00  0.00    +0.000 A 
ATOM      7  C   UNL     1     106.267 127.240 146.411  0.00  0.00    +0.000 A 
ATOM      8  C   UNL     1     106.154 126.710 144.853  0.00  0.00    +0.000 A 
ATOM      9  C   UNL     1     105.941 127.484 145.042  0.00  0.00    +0.000 A 
ATOM     10  C   UNL     1     105.997 127.749 145.821  0.00  0.00    +0.000 A 
ATOM     11  C   UNL     1     106.100 126.421 144.046  0.00  0.00    +0.000 A 
ATOM     12  C   UNL     1     105.598 127.752 143.622  0.00  0.00    +0.000 A 
ATOM     13  C   UNL     1     105.820 126.945 143.425  0.00  0.00    +0.000 A 
ENDROOT
BRANCH   5  18
ATOM     14  O   UNL     1     106.212 125.517 147.257  0.00  0.00    +0.000 OA
ATOM     15  O   UNL     1     108.638 125.310 147.699  0.00  0.00    +0.000 OA
ATOM     16  O   UNL     1     107.560 124.430 148.585  0.00  0.00    +0.000 OA
ATOM     17  C   UNL     1     107.829 125.379 147.551  0.00  0.00    +0.000 C 
ATOM     18  C   UNL     1     106.750 125.957 146.813  0.00  0.00    +0.000 C 
ATOM     19  C   UNL     1     107.290 124.939 147.995  0.00  0.00    +0.000 C 
ATOM     20  C   UNL     1     107.559 125.888 146.961  0.00  0.00    +0.000 C 
ATOM     21  C   UNL     1     106.481 125.008 147.848  0.00  0.00    +0.000 C 
ATOM     22  C   UNL     1     105.942 124.568 148.291  0.00  0.00    +0.000 C 
ENDBRANCH   5  18
BRANCH  12  24
ATOM     23  C   UNL     1     105.594 129.117 141.918  0.00  0.00    +0.000 A 
ATOM     24  C   UNL     1     105.327 128.264 143.033  0.00  0.00    +0.000 A 
ATOM     25  C   UNL     1     105.863 128.605 142.506  0.00  0.00    +0.000 A 
ATOM     26  C   UNL     1     104.789 129.287 141.857  0.00  0.00    +0.000 A 
ATOM     27  C   UNL     1     104.523 128.435 142.972  0.00  0.00    +0.000 A 
ATOM     28  C   UNL     1     104.254 128.946 142.384  0.00  0.00    +0.000 A 
BRANCH  26  29
ATOM     29  O   UNL     1     104.520 129.799 141.268  0.00  0.00    +0.000 OA
ATOM     30  C   UNL     1     103.710 129.924 141.170  0.00  0.00    +0.000 C 
ENDBRANCH  26  29
BRANCH  23  31
ATOM     31  O   UNL     1     106.129 129.458 141.391  0.00  0.00    +0.000 OA
BRANCH  31  40
ATOM     32  O   UNL     1     106.682 130.464 142.242  0.00  0.00    +0.000 OA
ATOM     33  O   UNL     1     108.949 129.925 141.407  0.00  0.00    +0.000 OA
ATOM     34  O   UNL     1     108.746 131.111 142.536  0.00  0.00    +0.000 OA
ATOM     35  O   UNL     1     107.640 129.099 140.834  0.00  0.00    +0.000 OA
ATOM     36  C   UNL     1     108.193 130.105 141.685  0.00  0.00    +0.000 C 
ATOM     37  C   UNL     1     108.091 130.697 142.250  0.00  0.00    +0.000 C 
ATOM     38  C   UNL     1     107.538 129.691 141.399  0.00  0.00    +0.000 C 
ATOM     39  C   UNL     1     107.336 130.877 142.528  0.00  0.00    +0.000 C 
ATOM     40  C   UNL     1     106.783 129.871 141.677  0.00  0.00    +0.000 C 
BRANCH  39  42
ATOM     41  O   UNL     1     106.742 132.111 142.935  0.00  0.00    +0.000 OA
ATOM     42  C   UNL     1     107.235 131.470 143.093  0.00  0.00    +0.000 C 
ENDBRANCH  39  42
ENDBRANCH  31  40
ENDBRANCH  23  31
ENDBRANCH  12  24
TORSDOF 6
ENDMDL
MODEL 7
REMARK VINA RESULT:      -9.8      1.462      2.196
REMARK  Name = 44258220
REMARK  6 active torsions:
REMARK  status: ('A' for Active; 'I' for Inactive)
REMARK    1  A    between atoms: O_5  and  C_24
REMARK    2  A    between atoms: O_5  and  C_33
REMARK    3  A    between atoms: O_13  and  C_38
REMARK    4  A    between atoms: C_16  and  C_25
REMARK    5  A    between atoms: C_23  and  C_27
REMARK    6  A    between atoms: C_35  and  C_36
REMARK                            x       y       z     vdW  Elec       q    Type
REMARK                         _______ _______ _______ _____ _____    ______ ____
ROOT
ATOM      1  O   UNL     1     110.612 128.351 136.427  0.00  0.00    +0.000 OA
ATOM      2  O   UNL     1     113.422 127.669 136.306  0.00  0.00    +0.000 OA
ATOM      3  O   UNL     1     111.573 125.877 137.546  0.00  0.00    +0.000 OA
ATOM      4  O   UNL     1     112.982 128.918 135.734  0.00  0.00    +0.000 OA
ATOM      5  C   UNL     1     112.497 126.773 136.926  0.00  0.00    +0.000 A 
ATOM      6  C   UNL     1     112.651 127.482 136.533  0.00  0.00    +0.000 A 
ATOM      7  C   UNL     1     111.726 126.586 137.153  0.00  0.00    +0.000 A 
ATOM      8  C   UNL     1     112.034 128.003 136.367  0.00  0.00    +0.000 A 
ATOM      9  C   UNL     1     111.263 127.816 136.594  0.00  0.00    +0.000 A 
ATOM     10  C   UNL     1     111.109 127.107 136.987  0.00  0.00    +0.000 A 
ATOM     11  C   UNL     1     112.207 128.738 135.958  0.00  0.00    +0.000 A 
ATOM     12  C   UNL     1     110.766 129.092 136.018  0.00  0.00    +0.000 A 
ATOM     13  C   UNL     1     111.569 129.287 135.781  0.00  0.00    +0.000 A 
ENDROOT
BRANCH   5  18
ATOM     14  O   UNL     1     113.358 125.705 136.524  0.00  0.00    +0.000 OA
ATOM     15  O   UNL     1     114.480 125.777 138.729  0.00  0.00    +0.000 OA
ATOM     16  O   UNL     1     114.966 124.686 137.591  0.00  0.00    +0.000 OA
ATOM     17  C   UNL     1     114.106 125.753 137.994  0.00  0.00    +0.000 C 
ATOM     18  C   UNL     1     113.114 126.251 137.092  0.00  0.00    +0.000 C 
ATOM     19  C   UNL     1     114.349 125.207 137.425  0.00  0.00    +0.000 C 
ATOM     20  C   UNL     1     113.488 126.275 137.827  0.00  0.00    +0.000 C 
ATOM     21  C   UNL     1     113.975 125.183 136.690  0.00  0.00    +0.000 C 
ATOM     22  C   UNL     1     114.218 124.638 136.121  0.00  0.00    +0.000 C 
ENDBRANCH   5  18
BRANCH  12  24
ATOM     23  C   UNL     1     109.109 130.482 136.309  0.00  0.00    +0.000 A 
ATOM     24  C   UNL     1     110.147 129.612 135.853  0.00  0.00    +0.000 A 
ATOM     25  C   UNL     1     109.728 129.963 136.472  0.00  0.00    +0.000 A 
ATOM     26  C   UNL     1     108.908 130.650 135.527  0.00  0.00    +0.000 A 
ATOM     27  C   UNL     1     109.946 129.780 135.072  0.00  0.00    +0.000 A 
ATOM     28  C   UNL     1     109.327 130.299 134.908  0.00  0.00    +0.000 A 
BRANCH  26  29
ATOM     29  O   UNL     1     108.288 131.170 135.363  0.00  0.00    +0.000 OA
ATOM     30  C   UNL     1     108.218 131.504 134.612  0.00  0.00    +0.000 C 
ENDBRANCH  26  29
BRANCH  23  31
ATOM     31  O   UNL     1     108.690 130.833 136.927  0.00  0.00    +0.000 OA
BRANCH  31  40
ATOM     32  O   UNL     1     109.605 131.874 137.277  0.00  0.00    +0.000 OA
ATOM     33  O   UNL     1     109.269 131.364 139.675  0.00  0.00    +0.000 OA
ATOM     34  O   UNL     1     110.295 132.575 139.225  0.00  0.00    +0.000 OA
ATOM     35  O   UNL     1     108.466 130.493 138.526  0.00  0.00    +0.000 OA
ATOM     36  C   UNL     1     109.381 131.534 138.876  0.00  0.00    +0.000 C 
ATOM     37  C   UNL     1     109.894 132.139 138.650  0.00  0.00    +0.000 C 
ATOM     38  C   UNL     1     108.979 131.098 138.301  0.00  0.00    +0.000 C 
ATOM     39  C   UNL     1     110.006 132.309 137.851  0.00  0.00    +0.000 C 
ATOM     40  C   UNL     1     109.091 131.268 137.501  0.00  0.00    +0.000 C 
BRANCH  39  42
ATOM     41  O   UNL     1     110.306 133.435 137.023  0.00  0.00    +0.000 OA
ATOM     42  C   UNL     1     110.519 132.915 137.626  0.00  0.00    +0.000 C 
ENDBRANCH  39  42
ENDBRANCH  31  40
ENDBRANCH  23  31
ENDBRANCH  12  24
TORSDOF 6
ENDMDL
MODEL 8
REMARK VINA RESULT:      -9.6      7.859     11.278
REMARK  Name = 44258220
REMARK  6 active torsions:
REMARK  status: ('A' for Active; 'I' for Inactive)
REMARK    1  A    between atoms: O_5  and  C_24
REMARK    2  A    between atoms: O_5  and  C_33
REMARK    3  A    between atoms: O_13  and  C_38
REMARK    4  A    between atoms: C_16  and  C_25
REMARK    5  A    between atoms: C_23  and  C_27
REMARK    6  A    between atoms: C_35  and  C_36
REMARK                            x       y       z     vdW  Elec       q    Type
REMARK                         _______ _______ _______ _____ _____    ______ ____
ROOT
ATOM      1  O   UNL     1     105.799 126.690 144.819  0.00  0.00    +0.000 OA
ATOM      2  O   UNL     1     104.784 129.345 144.279  0.00  0.00    +0.000 OA
ATOM      3  O   UNL     1     105.412 127.592 142.111  0.00  0.00    +0.000 OA
ATOM      4  O   UNL     1     104.963 128.932 145.649  0.00  0.00    +0.000 OA
ATOM      5  C   UNL     1     105.098 128.469 143.195  0.00  0.00    +0.000 A 
ATOM      6  C   UNL     1     105.056 128.616 144.005  0.00  0.00    +0.000 A 
ATOM      7  C   UNL     1     105.370 127.739 142.921  0.00  0.00    +0.000 A 
ATOM      8  C   UNL     1     105.285 128.034 144.543  0.00  0.00    +0.000 A 
ATOM      9  C   UNL     1     105.557 127.304 144.270  0.00  0.00    +0.000 A 
ATOM     10  C   UNL     1     105.599 127.157 143.459  0.00  0.00    +0.000 A 
ATOM     11  C   UNL     1     105.236 128.200 145.384  0.00  0.00    +0.000 A 
ATOM     12  C   UNL     1     105.757 126.838 145.665  0.00  0.00    +0.000 A 
ATOM     13  C   UNL     1     105.474 127.598 145.950  0.00  0.00    +0.000 A 
ENDROOT
BRANCH   5  18
ATOM     14  O   UNL     1     104.079 129.110 142.425  0.00  0.00    +0.000 OA
ATOM     15  O   UNL     1     105.759 130.681 141.509  0.00  0.00    +0.000 OA
ATOM     16  O   UNL     1     104.179 130.798 141.045  0.00  0.00    +0.000 OA
ATOM     17  C   UNL     1     105.199 130.157 141.814  0.00  0.00    +0.000 C 
ATOM     18  C   UNL     1     104.868 129.051 142.657  0.00  0.00    +0.000 C 
ATOM     19  C   UNL     1     104.409 130.216 141.582  0.00  0.00    +0.000 C 
ATOM     20  C   UNL     1     105.428 129.574 142.352  0.00  0.00    +0.000 C 
ATOM     21  C   UNL     1     103.849 129.693 141.888  0.00  0.00    +0.000 C 
ATOM     22  C   UNL     1     103.060 129.752 141.656  0.00  0.00    +0.000 C 
ENDBRANCH   5  18
BRANCH  12  24
ATOM     23  C   UNL     1     105.809 124.952 146.763  0.00  0.00    +0.000 A 
ATOM     24  C   UNL     1     105.988 126.253 146.200  0.00  0.00    +0.000 A 
ATOM     25  C   UNL     1     105.580 125.537 146.229  0.00  0.00    +0.000 A 
ATOM     26  C   UNL     1     106.448 125.084 147.268  0.00  0.00    +0.000 A 
ATOM     27  C   UNL     1     106.626 126.384 146.706  0.00  0.00    +0.000 A 
ATOM     28  C   UNL     1     106.856 125.800 147.240  0.00  0.00    +0.000 A 
BRANCH  26  29
ATOM     29  O   UNL     1     106.678 124.498 147.803  0.00  0.00    +0.000 OA
ATOM     30  C   UNL     1     107.303 124.638 148.323  0.00  0.00    +0.000 C 
ENDBRANCH  26  29
BRANCH  23  31
ATOM     31  O   UNL     1     105.401 124.235 146.792  0.00  0.00    +0.000 OA
BRANCH  31  40
ATOM     32  O   UNL     1     104.166 124.646 147.381  0.00  0.00    +0.000 OA
ATOM     33  O   UNL     1     102.921 123.387 145.652  0.00  0.00    +0.000 OA
ATOM     34  O   UNL     1     102.101 124.217 146.818  0.00  0.00    +0.000 OA
ATOM     35  O   UNL     1     104.571 123.396 145.639  0.00  0.00    +0.000 OA
ATOM     36  C   UNL     1     103.336 123.807 146.228  0.00  0.00    +0.000 C 
ATOM     37  C   UNL     1     102.927 124.222 146.812  0.00  0.00    +0.000 C 
ATOM     38  C   UNL     1     104.162 123.811 146.222  0.00  0.00    +0.000 C 
ATOM     39  C   UNL     1     103.341 124.642 147.388  0.00  0.00    +0.000 C 
ATOM     40  C   UNL     1     104.577 124.231 146.798  0.00  0.00    +0.000 C 
BRANCH  39  42
ATOM     41  O   UNL     1     103.223 125.086 148.741  0.00  0.00    +0.000 OA
ATOM     42  C   UNL     1     102.931 125.057 147.971  0.00  0.00    +0.000 C 
ENDBRANCH  39  42
ENDBRANCH  31  40
ENDBRANCH  23  31
ENDBRANCH  12  24
TORSDOF 6
ENDMDL
MODEL 9
REMARK VINA RESULT:      -9.5      8.344     11.425
REMARK  Name = 44258220
REMARK  6 active torsions:
REMARK  status: ('A' for Active; 'I' for Inactive)
REMARK    1  A    between atoms: O_5  and  C_24
REMARK    2  A    between atoms: O_5  and  C_33
REMARK    3  A    between atoms: O_13  and  C_38
REMARK    4  A    between atoms: C_16  and  C_25
REMARK    5  A    between atoms: C_23  and  C_27
REMARK    6  A    between atoms: C_35  and  C_36
REMARK                            x       y       z     vdW  Elec       q    Type
REMARK                         _______ _______ _______ _____ _____    ______ ____
ROOT
ATOM      1  O   UNL     1     106.386 126.555 146.231  0.00  0.00    +0.000 OA
ATOM      2  O   UNL     1     105.581 126.287 143.464  0.00  0.00    +0.000 OA
ATOM      3  O   UNL     1     106.178 128.871 144.530  0.00  0.00    +0.000 OA
ATOM      4  O   UNL     1     105.673 125.102 144.282  0.00  0.00    +0.000 OA
ATOM      5  C   UNL     1     105.880 127.579 143.997  0.00  0.00    +0.000 A 
ATOM      6  C   UNL     1     105.813 126.762 144.097  0.00  0.00    +0.000 A 
ATOM      7  C   UNL     1     106.112 128.054 144.630  0.00  0.00    +0.000 A 
ATOM      8  C   UNL     1     105.979 126.422 144.830  0.00  0.00    +0.000 A 
ATOM      9  C   UNL     1     106.211 126.898 145.463  0.00  0.00    +0.000 A 
ATOM     10  C   UNL     1     106.277 127.714 145.363  0.00  0.00    +0.000 A 
ATOM     11  C   UNL     1     105.906 125.571 144.921  0.00  0.00    +0.000 A 
ATOM     12  C   UNL     1     106.318 125.705 146.341  0.00  0.00    +0.000 A 
ATOM     13  C   UNL     1     106.076 125.209 145.682  0.00  0.00    +0.000 A 
ENDROOT
BRANCH   5  18
ATOM     14  O   UNL     1     104.957 128.204 143.103  0.00  0.00    +0.000 OA
ATOM     15  O   UNL     1     106.733 128.371 141.386  0.00  0.00    +0.000 OA
ATOM     16  O   UNL     1     105.218 128.941 141.065  0.00  0.00    +0.000 OA
ATOM     17  C   UNL     1     106.141 128.315 141.958  0.00  0.00    +0.000 C 
ATOM     18  C   UNL     1     105.714 127.919 143.264  0.00  0.00    +0.000 C 
ATOM     19  C   UNL     1     105.384 128.600 141.798  0.00  0.00    +0.000 C 
ATOM     20  C   UNL     1     106.306 127.975 142.692  0.00  0.00    +0.000 C 
ATOM     21  C   UNL     1     104.792 128.545 142.370  0.00  0.00    +0.000 C 
ATOM     22  C   UNL     1     104.034 128.830 142.209  0.00  0.00    +0.000 C 
ENDBRANCH   5  18
BRANCH  12  24
ATOM     23  C   UNL     1     106.035 124.854 148.332  0.00  0.00    +0.000 A 
ATOM     24  C   UNL     1     106.485 125.367 147.076  0.00  0.00    +0.000 A 
ATOM     25  C   UNL     1     105.870 125.192 147.597  0.00  0.00    +0.000 A 
ATOM     26  C   UNL     1     106.815 124.693 148.544  0.00  0.00    +0.000 A 
ATOM     27  C   UNL     1     107.264 125.206 147.289  0.00  0.00    +0.000 A 
ATOM     28  C   UNL     1     107.430 124.869 148.023  0.00  0.00    +0.000 A 
BRANCH  26  29
ATOM     29  O   UNL     1     106.981 124.356 149.279  0.00  0.00    +0.000 OA
ATOM     30  C   UNL     1     107.759 124.173 149.482  0.00  0.00    +0.000 C 
ENDBRANCH  26  29
BRANCH  23  31
ATOM     31  O   UNL     1     105.420 124.679 148.853  0.00  0.00    +0.000 OA
BRANCH  31  40
ATOM     32  O   UNL     1     104.968 126.016 149.075  0.00  0.00    +0.000 OA
ATOM     33  O   UNL     1     102.622 125.227 149.045  0.00  0.00    +0.000 OA
ATOM     34  O   UNL     1     102.951 126.827 149.276  0.00  0.00    +0.000 OA
ATOM     35  O   UNL     1     103.856 124.153 148.833  0.00  0.00    +0.000 OA
ATOM     36  C   UNL     1     103.404 125.490 149.055  0.00  0.00    +0.000 C 
ATOM     37  C   UNL     1     103.569 126.290 149.171  0.00  0.00    +0.000 C 
ATOM     38  C   UNL     1     104.022 124.953 148.949  0.00  0.00    +0.000 C 
ATOM     39  C   UNL     1     104.351 126.553 149.180  0.00  0.00    +0.000 C 
ATOM     40  C   UNL     1     104.803 125.216 148.959  0.00  0.00    +0.000 C 
BRANCH  39  42
ATOM     41  O   UNL     1     105.241 127.585 149.611  0.00  0.00    +0.000 OA
ATOM     42  C   UNL     1     104.515 127.353 149.296  0.00  0.00    +0.000 C 
ENDBRANCH  39  42
ENDBRANCH  31  40
ENDBRANCH  23  31
ENDBRANCH  12  24
TORSDOF 6
ENDMDL
MODEL 10
REMARK VINA RESULT:      -9.5      3.715      7.828
REMARK  Name = 44258220
REMARK  6 active torsions:
REMARK  status: ('A' for Active; 'I' for Inactive)
REMARK    1  A    between atoms: O_5  and  C_24
REMARK    2  A    between atoms: O_5  and  C_33
REMARK    3  A    between atoms: O_13  and  C_38
REMARK    4  A    between atoms: C_16  and  C_25
REMARK    5  A    between atoms: C_23  and  C_27
REMARK    6  A    between atoms: C_35  and  C_36
REMARK                            x       y       z     vdW  Elec       q    Type
REMARK                         _______ _______ _______ _____ _____    ______ ____
ROOT
ATOM      1  O   UNL     1     112.420 131.465 142.724  0.00  0.00    +0.000 OA
ATOM      2  O   UNL     1     111.414 131.034 145.403  0.00  0.00    +0.000 OA
ATOM      3  O   UNL     1     112.563 133.555 144.702  0.00  0.00    +0.000 OA
ATOM      4  O   UNL     1     111.324 129.962 144.443  0.00  0.00    +0.000 OA
ATOM      5  C   UNL     1     111.989 132.294 145.053  0.00  0.00    +0.000 A 
ATOM      6  C   UNL     1     111.772 131.526 144.846  0.00  0.00    +0.000 A 
ATOM      7  C   UNL     1     112.346 132.787 144.495  0.00  0.00    +0.000 A 
ATOM      8  C   UNL     1     111.912 131.250 144.081  0.00  0.00    +0.000 A 
ATOM      9  C   UNL     1     112.269 131.742 143.524  0.00  0.00    +0.000 A 
ATOM     10  C   UNL     1     112.486 132.510 143.731  0.00  0.00    +0.000 A 
ATOM     11  C   UNL     1     111.681 130.447 143.879  0.00  0.00    +0.000 A 
ATOM     12  C   UNL     1     112.196 130.665 142.503  0.00  0.00    +0.000 A 
ATOM     13  C   UNL     1     111.824 130.153 143.084  0.00  0.00    +0.000 A 
ENDROOT
BRANCH   5  18
ATOM     14  O   UNL     1     112.394 132.420 146.418  0.00  0.00    +0.000 OA
ATOM     15  O   UNL     1     110.336 133.703 146.912  0.00  0.00    +0.000 OA
ATOM     16  O   UNL     1     111.428 133.400 148.111  0.00  0.00    +0.000 OA
ATOM     17  C   UNL     1     111.022 133.275 146.747  0.00  0.00    +0.000 C 
ATOM     18  C   UNL     1     111.849 132.571 145.817  0.00  0.00    +0.000 C 
ATOM     19  C   UNL     1     111.568 133.124 147.347  0.00  0.00    +0.000 C 
ATOM     20  C   UNL     1     111.163 132.999 145.982  0.00  0.00    +0.000 C 
ATOM     21  C   UNL     1     112.254 132.696 147.182  0.00  0.00    +0.000 C 
ATOM     22  C   UNL     1     112.799 132.545 147.782  0.00  0.00    +0.000 C 
ENDBRANCH   5  18
BRANCH  12  24
ATOM     23  C   UNL     1     111.959 130.316 140.361  0.00  0.00    +0.000 A 
ATOM     24  C   UNL     1     112.337 130.392 141.737  0.00  0.00    +0.000 A 
ATOM     25  C   UNL     1     111.818 130.588 141.127  0.00  0.00    +0.000 A 
ATOM     26  C   UNL     1     112.619 129.847 140.206  0.00  0.00    +0.000 A 
ATOM     27  C   UNL     1     112.997 129.923 141.582  0.00  0.00    +0.000 A 
ATOM     28  C   UNL     1     113.138 129.650 140.817  0.00  0.00    +0.000 A 
BRANCH  26  29
ATOM     29  O   UNL     1     112.760 129.574 139.440  0.00  0.00    +0.000 OA
ATOM     30  C   UNL     1     113.486 129.231 139.252  0.00  0.00    +0.000 C 
ENDBRANCH  26  29
BRANCH  23  31
ATOM     31  O   UNL     1     111.439 130.513 139.751  0.00  0.00    +0.000 OA
BRANCH  31  40
ATOM     32  O   UNL     1     110.365 129.618 140.050  0.00  0.00    +0.000 OA
ATOM     33  O   UNL     1     108.738 131.442 139.659  0.00  0.00    +0.000 OA
ATOM     34  O   UNL     1     108.207 129.940 140.087  0.00  0.00    +0.000 OA
ATOM     35  O   UNL     1     110.355 131.728 139.491  0.00  0.00    +0.000 OA
ATOM     36  C   UNL     1     109.281 130.834 139.789  0.00  0.00    +0.000 C 
ATOM     37  C   UNL     1     109.015 130.083 140.003  0.00  0.00    +0.000 C 
ATOM     38  C   UNL     1     110.090 130.977 139.705  0.00  0.00    +0.000 C 
ATOM     39  C   UNL     1     109.558 129.475 140.134  0.00  0.00    +0.000 C 
ATOM     40  C   UNL     1     110.632 130.369 139.835  0.00  0.00    +0.000 C 
BRANCH  39  42
ATOM     41  O   UNL     1     109.582 128.057 139.961  0.00  0.00    +0.000 OA
ATOM     42  C   UNL     1     109.291 128.724 140.348  0.00  0.00    +0.000 C 
ENDBRANCH  39  42
ENDBRANCH  31  40
ENDBRANCH  23  31
ENDBRANCH  12  24
TORSDOF 6
ENDMDL
