MODEL 1
REMARK VINA RESULT:      -9.3      0.000      0.000
REMARK  Name = 131752459
REMARK  11 active torsions:
REMARK  status: ('A' for Active; 'I' for Inactive)
REMARK    1  A    between atoms: O_1  and  C_19
REMARK    2  A    between atoms: O_1  and  C_23
REMARK    3  A    between atoms: O_8  and  C_26
REMARK    4  A    between atoms: O_8  and  C_30
REMARK    5  A    between atoms: O_10  and  C_29
REMARK    6  A    between atoms: O_10  and  C_33
REMARK    7  A    between atoms: C_20  and  C_28
REMARK    8  A    between atoms: C_25  and  C_29
REMARK    9  A    between atoms: C_31  and  C_35
REMARK   10  A    between atoms: C_33  and  C_37
REMARK   11  A    between atoms: C_37  and  C_44
REMARK                            x       y       z     vdW  Elec       q    Type
REMARK                         _______ _______ _______ _____ _____    ______ ____
ROOT
ATOM      1  O   UNL     1     110.988 128.031 137.320  0.00  0.00    +0.000 OA
ATOM      2  O   UNL     1     109.080 128.815 138.035  0.00  0.00    +0.000 OA
ATOM      3  O   UNL     1     110.204 128.736 135.408  0.00  0.00    +0.000 OA
ATOM      4  C   UNL     1     109.642 128.775 136.722  0.00  0.00    +0.000 C 
ATOM      5  C   UNL     1     109.698 128.609 137.527  0.00  0.00    +0.000 C 
ATOM      6  C   UNL     1     110.260 128.569 136.214  0.00  0.00    +0.000 C 
ATOM      7  C   UNL     1     110.371 128.236 137.827  0.00  0.00    +0.000 C 
ATOM      8  C   UNL     1     110.933 128.197 136.513  0.00  0.00    +0.000 C 
ENDROOT
BRANCH   4   9
ATOM      9  O   UNL     1     108.969 129.147 136.422  0.00  0.00    +0.000 OA
BRANCH   9  15
ATOM     10  O   UNL     1     109.553 130.488 136.568  0.00  0.00    +0.000 OA
ATOM     11  O   UNL     1     108.510 132.034 136.037  0.00  0.00    +0.000 OA
ATOM     12  O   UNL     1     107.596 130.119 135.797  0.00  0.00    +0.000 OA
ATOM     13  C   UNL     1     108.532 131.211 136.102  0.00  0.00    +0.000 C 
ATOM     14  C   UNL     1     108.316 130.416 136.069  0.00  0.00    +0.000 C 
ATOM     15  C   UNL     1     108.948 129.969 136.357  0.00  0.00    +0.000 C 
ATOM     16  C   UNL     1     109.296 131.257 136.410  0.00  0.00    +0.000 C 
BRANCH  13  18
ATOM     17  O   UNL     1     107.661 132.200 135.548  0.00  0.00    +0.000 OA
ATOM     18  C   UNL     1     107.798 131.423 135.789  0.00  0.00    +0.000 C 
ENDBRANCH  13  18
ENDBRANCH   9  15
ENDBRANCH   4   9
BRANCH   8  19
ATOM     19  O   UNL     1     111.550 127.991 136.007  0.00  0.00    +0.000 OA
BRANCH  19  24
ATOM     20  O   UNL     1     113.252 126.684 136.409  0.00  0.00    +0.000 OA
ATOM     21  O   UNL     1     110.805 126.521 136.070  0.00  0.00    +0.000 OA
ATOM     22  O   UNL     1     110.847 125.089 136.244  0.00  0.00    +0.000 OA
ATOM     23  O   UNL     1     113.414 123.799 136.771  0.00  0.00    +0.000 OA
ATOM     24  C   UNL     1     111.993 127.311 136.151  0.00  0.00    +0.000 A 
ATOM     25  C   UNL     1     112.809 127.365 136.264  0.00  0.00    +0.000 A 
ATOM     26  C   UNL     1     111.621 126.575 136.183  0.00  0.00    +0.000 A 
ATOM     27  C   UNL     1     112.064 125.894 136.328  0.00  0.00    +0.000 A 
ATOM     28  C   UNL     1     112.878 125.949 136.440  0.00  0.00    +0.000 A 
ATOM     29  C   UNL     1     111.664 125.134 136.358  0.00  0.00    +0.000 A 
ATOM     30  C   UNL     1     113.352 125.247 136.592  0.00  0.00    +0.000 A 
ATOM     31  C   UNL     1     112.119 124.421 136.508  0.00  0.00    +0.000 A 
ATOM     32  C   UNL     1     112.969 124.478 136.626  0.00  0.00    +0.000 A 
BRANCH  25  34
ATOM     33  O   UNL     1     114.297 130.308 136.140  0.00  0.00    +0.000 OA
ATOM     34  C   UNL     1     113.181 128.100 136.233  0.00  0.00    +0.000 A 
ATOM     35  C   UNL     1     113.304 128.470 135.505  0.00  0.00    +0.000 A 
ATOM     36  C   UNL     1     113.430 128.467 136.930  0.00  0.00    +0.000 A 
ATOM     37  C   UNL     1     113.676 129.206 135.475  0.00  0.00    +0.000 A 
ATOM     38  C   UNL     1     113.801 129.202 136.898  0.00  0.00    +0.000 A 
ATOM     39  C   UNL     1     113.925 129.572 136.171  0.00  0.00    +0.000 A 
ENDBRANCH  25  34
ENDBRANCH  19  24
ENDBRANCH   8  19
BRANCH   7  40
ATOM     40  C   UNL     1     110.426 128.070 138.633  0.00  0.00    +0.000 C 
BRANCH  40  41
ATOM     41  O   UNL     1     111.150 127.848 138.960  0.00  0.00    +0.000 OA
BRANCH  41  43
ATOM     42  O   UNL     1     111.016 128.044 140.369  0.00  0.00    +0.000 OA
ATOM     43  C   UNL     1     111.182 127.550 139.728  0.00  0.00    +0.000 C 
BRANCH  43  44
ATOM     44  C   UNL     1     111.381 126.760 139.857  0.00  0.00    +0.000 C 
BRANCH  44  47
ATOM     45  O   UNL     1     112.028 126.346 141.061  0.00  0.00    +0.000 OA
ATOM     46  O   UNL     1     112.801 126.604 139.888  0.00  0.00    +0.000 OA
ATOM     47  C   UNL     1     112.070 126.570 140.269  0.00  0.00    +0.000 C 
ENDBRANCH  44  47
ENDBRANCH  43  44
ENDBRANCH  41  43
ENDBRANCH  40  41
ENDBRANCH   7  40
TORSDOF 11
ENDMDL
MODEL 2
REMARK VINA RESULT:      -9.3      2.149      3.506
REMARK  Name = 131752459
REMARK  11 active torsions:
REMARK  status: ('A' for Active; 'I' for Inactive)
REMARK    1  A    between atoms: O_1  and  C_19
REMARK    2  A    between atoms: O_1  and  C_23
REMARK    3  A    between atoms: O_8  and  C_26
REMARK    4  A    between atoms: O_8  and  C_30
REMARK    5  A    between atoms: O_10  and  C_29
REMARK    6  A    between atoms: O_10  and  C_33
REMARK    7  A    between atoms: C_20  and  C_28
REMARK    8  A    between atoms: C_25  and  C_29
REMARK    9  A    between atoms: C_31  and  C_35
REMARK   10  A    between atoms: C_33  and  C_37
REMARK   11  A    between atoms: C_37  and  C_44
REMARK                            x       y       z     vdW  Elec       q    Type
REMARK                         _______ _______ _______ _____ _____    ______ ____
ROOT
ATOM      1  O   UNL     1     112.375 128.901 138.686  0.00  0.00    +0.000 OA
ATOM      2  O   UNL     1     112.031 130.937 137.978  0.00  0.00    +0.000 OA
ATOM      3  O   UNL     1     110.375 128.611 137.861  0.00  0.00    +0.000 OA
ATOM      4  C   UNL     1     111.203 129.774 137.919  0.00  0.00    +0.000 C 
ATOM      5  C   UNL     1     111.910 130.137 138.141  0.00  0.00    +0.000 C 
ATOM      6  C   UNL     1     111.082 128.973 138.082  0.00  0.00    +0.000 C 
ATOM      7  C   UNL     1     112.496 129.700 138.524  0.00  0.00    +0.000 C 
ATOM      8  C   UNL     1     111.668 128.537 138.465  0.00  0.00    +0.000 C 
ENDROOT
BRANCH   4   9
ATOM      9  O   UNL     1     110.617 130.210 137.536  0.00  0.00    +0.000 OA
BRANCH   9  15
ATOM     10  O   UNL     1     109.911 130.509 138.790  0.00  0.00    +0.000 OA
ATOM     11  O   UNL     1     108.344 131.650 138.740  0.00  0.00    +0.000 OA
ATOM     12  O   UNL     1     109.317 131.259 136.880  0.00  0.00    +0.000 OA
ATOM     13  C   UNL     1     108.944 131.290 138.302  0.00  0.00    +0.000 C 
ATOM     14  C   UNL     1     109.420 131.052 137.672  0.00  0.00    +0.000 C 
ATOM     15  C   UNL     1     110.018 130.569 137.973  0.00  0.00    +0.000 C 
ATOM     16  C   UNL     1     109.247 130.956 138.992  0.00  0.00    +0.000 C 
BRANCH  13  18
ATOM     17  O   UNL     1     107.789 132.095 138.056  0.00  0.00    +0.000 OA
ATOM     18  C   UNL     1     108.470 131.720 137.781  0.00  0.00    +0.000 C 
ENDBRANCH  13  18
ENDBRANCH   9  15
ENDBRANCH   4   9
BRANCH   8  19
ATOM     19  O   UNL     1     111.547 127.738 138.628  0.00  0.00    +0.000 OA
BRANCH  19  24
ATOM     20  O   UNL     1     113.023 126.184 139.044  0.00  0.00    +0.000 OA
ATOM     21  O   UNL     1     112.282 127.604 137.157  0.00  0.00    +0.000 OA
ATOM     22  O   UNL     1     113.265 127.008 136.285  0.00  0.00    +0.000 OA
ATOM     23  O   UNL     1     115.031 124.936 137.344  0.00  0.00    +0.000 OA
ATOM     24  C   UNL     1     112.161 127.198 138.521  0.00  0.00    +0.000 A 
ATOM     25  C   UNL     1     112.409 126.724 139.151  0.00  0.00    +0.000 A 
ATOM     26  C   UNL     1     112.529 127.130 137.786  0.00  0.00    +0.000 A 
ATOM     27  C   UNL     1     113.144 126.590 137.680  0.00  0.00    +0.000 A 
ATOM     28  C   UNL     1     113.390 126.118 138.308  0.00  0.00    +0.000 A 
ATOM     29  C   UNL     1     113.519 126.530 136.909  0.00  0.00    +0.000 A 
ATOM     30  C   UNL     1     114.030 125.551 138.211  0.00  0.00    +0.000 A 
ATOM     31  C   UNL     1     114.159 125.970 136.791  0.00  0.00    +0.000 A 
ATOM     32  C   UNL     1     114.416 125.476 137.447  0.00  0.00    +0.000 A 
BRANCH  25  34
ATOM     33  O   UNL     1     110.939 126.995 142.093  0.00  0.00    +0.000 OA
ATOM     34  C   UNL     1     112.041 126.792 139.886  0.00  0.00    +0.000 A 
ATOM     35  C   UNL     1     111.269 126.518 139.988  0.00  0.00    +0.000 A 
ATOM     36  C   UNL     1     112.445 127.133 140.520  0.00  0.00    +0.000 A 
ATOM     37  C   UNL     1     110.902 126.586 140.724  0.00  0.00    +0.000 A 
ATOM     38  C   UNL     1     112.077 127.201 141.255  0.00  0.00    +0.000 A 
ATOM     39  C   UNL     1     111.306 126.927 141.357  0.00  0.00    +0.000 A 
ENDBRANCH  25  34
ENDBRANCH  19  24
ENDBRANCH   8  19
BRANCH   7  40
ATOM     40  C   UNL     1     113.203 130.064 138.745  0.00  0.00    +0.000 C 
BRANCH  40  41
ATOM     41  O   UNL     1     113.420 130.094 139.541  0.00  0.00    +0.000 OA
BRANCH  41  43
ATOM     42  O   UNL     1     114.579 130.865 139.218  0.00  0.00    +0.000 OA
ATOM     43  C   UNL     1     114.149 130.412 139.758  0.00  0.00    +0.000 C 
BRANCH  43  44
ATOM     44  C   UNL     1     114.450 130.276 140.514  0.00  0.00    +0.000 C 
BRANCH  44  47
ATOM     45  O   UNL     1     114.134 131.280 141.481  0.00  0.00    +0.000 OA
ATOM     46  O   UNL     1     115.461 131.182 140.961  0.00  0.00    +0.000 OA
ATOM     47  C   UNL     1     114.682 130.913 140.985  0.00  0.00    +0.000 C 
ENDBRANCH  44  47
ENDBRANCH  43  44
ENDBRANCH  41  43
ENDBRANCH  40  41
ENDBRANCH   7  40
TORSDOF 11
ENDMDL
MODEL 3
REMARK VINA RESULT:      -9.3      2.341      4.264
REMARK  Name = 131752459
REMARK  11 active torsions:
REMARK  status: ('A' for Active; 'I' for Inactive)
REMARK    1  A    between atoms: O_1  and  C_19
REMARK    2  A    between atoms: O_1  and  C_23
REMARK    3  A    between atoms: O_8  and  C_26
REMARK    4  A    between atoms: O_8  and  C_30
REMARK    5  A    between atoms: O_10  and  C_29
REMARK    6  A    between atoms: O_10  and  C_33
REMARK    7  A    between atoms: C_20  and  C_28
REMARK    8  A    between atoms: C_25  and  C_29
REMARK    9  A    between atoms: C_31  and  C_35
REMARK   10  A    between atoms: C_33  and  C_37
REMARK   11  A    between atoms: C_37  and  C_44
REMARK                            x       y       z     vdW  Elec       q    Type
REMARK                         _______ _______ _______ _____ _____    ______ ____
ROOT
ATOM      1  O   UNL     1     112.814 127.774 137.891  0.00  0.00    +0.000 OA
ATOM      2  O   UNL     1     113.451 127.642 139.974  0.00  0.00    +0.000 OA
ATOM      3  O   UNL     1     112.210 129.772 138.529  0.00  0.00    +0.000 OA
ATOM      4  C   UNL     1     112.830 128.707 139.251  0.00  0.00    +0.000 C 
ATOM      5  C   UNL     1     113.136 127.941 139.272  0.00  0.00    +0.000 C 
ATOM      6  C   UNL     1     112.516 129.006 138.549  0.00  0.00    +0.000 C 
ATOM      7  C   UNL     1     113.128 127.475 138.592  0.00  0.00    +0.000 C 
ATOM      8  C   UNL     1     112.508 128.540 137.869  0.00  0.00    +0.000 C 
ENDROOT
BRANCH   4   9
ATOM      9  O   UNL     1     112.838 129.173 139.932  0.00  0.00    +0.000 OA
BRANCH   9  15
ATOM     10  O   UNL     1     114.087 129.847 139.549  0.00  0.00    +0.000 OA
ATOM     11  O   UNL     1     114.885 131.121 140.774  0.00  0.00    +0.000 OA
ATOM     12  O   UNL     1     113.072 130.182 141.398  0.00  0.00    +0.000 OA
ATOM     13  C   UNL     1     114.261 130.598 140.640  0.00  0.00    +0.000 C 
ATOM     14  C   UNL     1     113.569 130.160 140.740  0.00  0.00    +0.000 C 
ATOM     15  C   UNL     1     113.461 129.696 140.066  0.00  0.00    +0.000 C 
ATOM     16  C   UNL     1     114.581 130.405 139.904  0.00  0.00    +0.000 C 
BRANCH  13  18
ATOM     17  O   UNL     1     114.649 131.549 141.632  0.00  0.00    +0.000 OA
ATOM     18  C   UNL     1     114.150 130.943 141.380  0.00  0.00    +0.000 C 
ENDBRANCH  13  18
ENDBRANCH   9  15
ENDBRANCH   4   9
BRANCH   8  19
ATOM     19  O   UNL     1     112.193 128.839 137.168  0.00  0.00    +0.000 OA
BRANCH  19  24
ATOM     20  O   UNL     1     111.813 127.755 135.311  0.00  0.00    +0.000 OA
ATOM     21  O   UNL     1     110.875 127.943 137.595  0.00  0.00    +0.000 OA
ATOM     22  O   UNL     1     109.848 126.978 137.284  0.00  0.00    +0.000 OA
ATOM     23  O   UNL     1     109.770 125.800 134.612  0.00  0.00    +0.000 OA
ATOM     24  C   UNL     1     111.847 128.328 136.620  0.00  0.00    +0.000 A 
ATOM     25  C   UNL     1     112.160 128.265 135.859  0.00  0.00    +0.000 A 
ATOM     26  C   UNL     1     111.188 127.880 136.833  0.00  0.00    +0.000 A 
ATOM     27  C   UNL     1     110.841 127.370 136.286  0.00  0.00    +0.000 A 
ATOM     28  C   UNL     1     111.154 127.307 135.525  0.00  0.00    +0.000 A 
ATOM     29  C   UNL     1     110.155 126.909 136.520  0.00  0.00    +0.000 A 
ATOM     30  C   UNL     1     110.802 126.778 134.945  0.00  0.00    +0.000 A 
ATOM     31  C   UNL     1     109.789 126.375 135.955  0.00  0.00    +0.000 A 
ATOM     32  C   UNL     1     110.115 126.310 135.162  0.00  0.00    +0.000 A 
BRANCH  25  34
ATOM     33  O   UNL     1     114.795 130.059 135.008  0.00  0.00    +0.000 OA
ATOM     34  C   UNL     1     112.819 128.713 135.646  0.00  0.00    +0.000 A 
ATOM     35  C   UNL     1     113.555 128.350 135.561  0.00  0.00    +0.000 A 
ATOM     36  C   UNL     1     112.741 129.525 135.518  0.00  0.00    +0.000 A 
ATOM     37  C   UNL     1     114.214 128.799 135.349  0.00  0.00    +0.000 A 
ATOM     38  C   UNL     1     113.401 129.973 135.305  0.00  0.00    +0.000 A 
ATOM     39  C   UNL     1     114.137 129.610 135.220  0.00  0.00    +0.000 A 
ENDBRANCH  25  34
ENDBRANCH  19  24
ENDBRANCH   8  19
BRANCH   7  40
ATOM     40  C   UNL     1     113.434 126.709 138.614  0.00  0.00    +0.000 C 
BRANCH  40  41
ATOM     41  O   UNL     1     113.741 126.368 137.928  0.00  0.00    +0.000 OA
BRANCH  41  43
ATOM     42  O   UNL     1     114.639 125.289 138.194  0.00  0.00    +0.000 OA
ATOM     43  C   UNL     1     113.914 125.561 137.909  0.00  0.00    +0.000 C 
BRANCH  43  44
ATOM     44  C   UNL     1     113.363 125.028 137.606  0.00  0.00    +0.000 C 
BRANCH  44  47
ATOM     45  O   UNL     1     113.725 123.738 137.110  0.00  0.00    +0.000 OA
ATOM     46  O   UNL     1     113.618 124.843 136.212  0.00  0.00    +0.000 OA
ATOM     47  C   UNL     1     113.569 124.537 136.975  0.00  0.00    +0.000 C 
ENDBRANCH  44  47
ENDBRANCH  43  44
ENDBRANCH  41  43
ENDBRANCH  40  41
ENDBRANCH   7  40
TORSDOF 11
ENDMDL
MODEL 4
REMARK VINA RESULT:      -9.2      8.541     11.328
REMARK  Name = 131752459
REMARK  11 active torsions:
REMARK  status: ('A' for Active; 'I' for Inactive)
REMARK    1  A    between atoms: O_1  and  C_19
REMARK    2  A    between atoms: O_1  and  C_23
REMARK    3  A    between atoms: O_8  and  C_26
REMARK    4  A    between atoms: O_8  and  C_30
REMARK    5  A    between atoms: O_10  and  C_29
REMARK    6  A    between atoms: O_10  and  C_33
REMARK    7  A    between atoms: C_20  and  C_28
REMARK    8  A    between atoms: C_25  and  C_29
REMARK    9  A    between atoms: C_31  and  C_35
REMARK   10  A    between atoms: C_33  and  C_37
REMARK   11  A    between atoms: C_37  and  C_44
REMARK                            x       y       z     vdW  Elec       q    Type
REMARK                         _______ _______ _______ _____ _____    ______ ____
ROOT
ATOM      1  O   UNL     1     105.351 126.580 145.931  0.00  0.00    +0.000 OA
ATOM      2  O   UNL     1     105.432 128.348 144.652  0.00  0.00    +0.000 OA
ATOM      3  O   UNL     1     105.723 125.573 144.031  0.00  0.00    +0.000 OA
ATOM      4  C   UNL     1     105.577 126.960 144.342  0.00  0.00    +0.000 C 
ATOM      5  C   UNL     1     105.448 127.558 144.895  0.00  0.00    +0.000 C 
ATOM      6  C   UNL     1     105.593 126.171 144.584  0.00  0.00    +0.000 C 
ATOM      7  C   UNL     1     105.335 127.368 145.690  0.00  0.00    +0.000 C 
ATOM      8  C   UNL     1     105.480 125.981 145.379  0.00  0.00    +0.000 C 
ENDROOT
BRANCH   4   9
ATOM      9  O   UNL     1     105.690 127.151 143.547  0.00  0.00    +0.000 OA
BRANCH   9  15
ATOM     10  O   UNL     1     107.136 127.355 143.722  0.00  0.00    +0.000 OA
ATOM     11  O   UNL     1     108.222 127.783 142.173  0.00  0.00    +0.000 OA
ATOM     12  O   UNL     1     106.131 127.500 141.842  0.00  0.00    +0.000 OA
ATOM     13  C   UNL     1     107.463 127.615 142.454  0.00  0.00    +0.000 C 
ATOM     14  C   UNL     1     106.650 127.479 142.483  0.00  0.00    +0.000 C 
ATOM     15  C   UNL     1     106.448 127.318 143.267  0.00  0.00    +0.000 C 
ATOM     16  C   UNL     1     107.764 127.539 143.218  0.00  0.00    +0.000 C 
BRANCH  13  18
ATOM     17  O   UNL     1     108.084 127.960 141.214  0.00  0.00    +0.000 OA
ATOM     18  C   UNL     1     107.413 127.740 141.640  0.00  0.00    +0.000 C 
ENDBRANCH  13  18
ENDBRANCH   9  15
ENDBRANCH   4   9
BRANCH   8  19
ATOM     19  O   UNL     1     105.496 125.193 145.620  0.00  0.00    +0.000 OA
BRANCH  19  24
ATOM     20  O   UNL     1     105.584 124.417 147.659  0.00  0.00    +0.000 OA
ATOM     21  O   UNL     1     107.050 125.568 146.029  0.00  0.00    +0.000 OA
ATOM     22  O   UNL     1     108.143 125.572 146.971  0.00  0.00    +0.000 OA
ATOM     23  O   UNL     1     107.745 124.389 149.612  0.00  0.00    +0.000 OA
ATOM     24  C   UNL     1     105.785 124.997 146.368  0.00  0.00    +0.000 A 
ATOM     25  C   UNL     1     105.296 124.613 146.911  0.00  0.00    +0.000 A 
ATOM     26  C   UNL     1     106.561 125.184 146.573  0.00  0.00    +0.000 A 
ATOM     27  C   UNL     1     106.850 124.988 147.320  0.00  0.00    +0.000 A 
ATOM     28  C   UNL     1     106.362 124.604 147.863  0.00  0.00    +0.000 A 
ATOM     29  C   UNL     1     107.661 125.188 147.521  0.00  0.00    +0.000 A 
ATOM     30  C   UNL     1     106.650 124.394 148.645  0.00  0.00    +0.000 A 
ATOM     31  C   UNL     1     107.968 124.987 148.298  0.00  0.00    +0.000 A 
ATOM     32  C   UNL     1     107.459 124.587 148.864  0.00  0.00    +0.000 A 
BRANCH  25  34
ATOM     33  O   UNL     1     102.189 123.863 146.089  0.00  0.00    +0.000 OA
ATOM     34  C   UNL     1     104.519 124.426 146.706  0.00  0.00    +0.000 A 
ATOM     35  C   UNL     1     103.891 124.843 147.042  0.00  0.00    +0.000 A 
ATOM     36  C   UNL     1     104.370 123.821 146.164  0.00  0.00    +0.000 A 
ATOM     37  C   UNL     1     103.115 124.655 146.836  0.00  0.00    +0.000 A 
ATOM     38  C   UNL     1     103.593 123.634 145.959  0.00  0.00    +0.000 A 
ATOM     39  C   UNL     1     102.966 124.051 146.295  0.00  0.00    +0.000 A 
ENDBRANCH  25  34
ENDBRANCH  19  24
ENDBRANCH   8  19
BRANCH   7  40
ATOM     40  C   UNL     1     105.205 127.968 146.242  0.00  0.00    +0.000 C 
BRANCH  40  41
ATOM     41  O   UNL     1     105.361 127.832 147.041  0.00  0.00    +0.000 OA
BRANCH  41  43
ATOM     42  O   UNL     1     105.519 129.147 147.578  0.00  0.00    +0.000 OA
ATOM     43  C   UNL     1     105.163 128.402 147.603  0.00  0.00    +0.000 C 
BRANCH  43  44
ATOM     44  C   UNL     1     104.609 128.229 148.189  0.00  0.00    +0.000 C 
BRANCH  44  47
ATOM     45  O   UNL     1     105.147 127.541 149.320  0.00  0.00    +0.000 OA
ATOM     46  O   UNL     1     104.751 128.908 149.438  0.00  0.00    +0.000 OA
ATOM     47  C   UNL     1     104.836 128.227 148.982  0.00  0.00    +0.000 C 
ENDBRANCH  44  47
ENDBRANCH  43  44
ENDBRANCH  41  43
ENDBRANCH  40  41
ENDBRANCH   7  40
TORSDOF 11
ENDMDL
MODEL 5
REMARK VINA RESULT:      -9.2      1.776      2.227
REMARK  Name = 131752459
REMARK  11 active torsions:
REMARK  status: ('A' for Active; 'I' for Inactive)
REMARK    1  A    between atoms: O_1  and  C_19
REMARK    2  A    between atoms: O_1  and  C_23
REMARK    3  A    between atoms: O_8  and  C_26
REMARK    4  A    between atoms: O_8  and  C_30
REMARK    5  A    between atoms: O_10  and  C_29
REMARK    6  A    between atoms: O_10  and  C_33
REMARK    7  A    between atoms: C_20  and  C_28
REMARK    8  A    between atoms: C_25  and  C_29
REMARK    9  A    between atoms: C_31  and  C_35
REMARK   10  A    between atoms: C_33  and  C_37
REMARK   11  A    between atoms: C_37  and  C_44
REMARK                            x       y       z     vdW  Elec       q    Type
REMARK                         _______ _______ _______ _____ _____    ______ ____
ROOT
ATOM      1  O   UNL     1     112.168 129.825 137.160  0.00  0.00    +0.000 OA
ATOM      2  O   UNL     1     110.666 131.207 137.932  0.00  0.00    +0.000 OA
ATOM      3  O   UNL     1     111.162 130.276 135.276  0.00  0.00    +0.000 OA
ATOM      4  C   UNL     1     110.914 130.741 136.604  0.00  0.00    +0.000 C 
ATOM      5  C   UNL     1     111.104 130.745 137.407  0.00  0.00    +0.000 C 
ATOM      6  C   UNL     1     111.352 130.279 136.079  0.00  0.00    +0.000 C 
ATOM      7  C   UNL     1     111.731 130.286 137.685  0.00  0.00    +0.000 C 
ATOM      8  C   UNL     1     111.979 129.821 136.357  0.00  0.00    +0.000 C 
ENDROOT
BRANCH   4   9
ATOM      9  O   UNL     1     110.287 131.200 136.327  0.00  0.00    +0.000 OA
BRANCH   9  15
ATOM     10  O   UNL     1     109.321 130.100 136.466  0.00  0.00    +0.000 OA
ATOM     11  O   UNL     1     107.459 130.419 136.029  0.00  0.00    +0.000 OA
ATOM     12  O   UNL     1     108.803 132.063 135.801  0.00  0.00    +0.000 OA
ATOM     13  C   UNL     1     108.217 130.742 136.076  0.00  0.00    +0.000 C 
ATOM     14  C   UNL     1     108.847 131.274 136.038  0.00  0.00    +0.000 C 
ATOM     15  C   UNL     1     109.530 130.877 136.280  0.00  0.00    +0.000 C 
ATOM     16  C   UNL     1     108.509 130.017 136.340  0.00  0.00    +0.000 C 
BRANCH  13  18
ATOM     17  O   UNL     1     106.899 131.173 135.731  0.00  0.00    +0.000 OA
ATOM     18  C   UNL     1     107.705 131.331 135.810  0.00  0.00    +0.000 C 
ENDBRANCH  13  18
ENDBRANCH   9  15
ENDBRANCH   4   9
BRANCH   8  19
ATOM     19  O   UNL     1     112.416 129.359 135.832  0.00  0.00    +0.000 OA
BRANCH  19  24
ATOM     20  O   UNL     1     113.947 127.876 136.307  0.00  0.00    +0.000 OA
ATOM     21  O   UNL     1     111.490 128.143 136.451  0.00  0.00    +0.000 OA
ATOM     22  O   UNL     1     111.353 126.828 137.030  0.00  0.00    +0.000 OA
ATOM     23  O   UNL     1     113.747 125.214 137.469  0.00  0.00    +0.000 OA
ATOM     24  C   UNL     1     112.772 128.662 136.093  0.00  0.00    +0.000 A 
ATOM     25  C   UNL     1     113.591 128.573 136.045  0.00  0.00    +0.000 A 
ATOM     26  C   UNL     1     112.309 128.054 136.403  0.00  0.00    +0.000 A 
ATOM     27  C   UNL     1     112.665 127.357 136.665  0.00  0.00    +0.000 A 
ATOM     28  C   UNL     1     113.483 127.268 136.616  0.00  0.00    +0.000 A 
ATOM     29  C   UNL     1     112.171 126.730 136.985  0.00  0.00    +0.000 A 
ATOM     30  C   UNL     1     113.866 126.547 136.885  0.00  0.00    +0.000 A 
ATOM     31  C   UNL     1     112.535 126.002 137.259  0.00  0.00    +0.000 A 
ATOM     32  C   UNL     1     113.389 125.910 137.209  0.00  0.00    +0.000 A 
BRANCH  25  34
ATOM     33  O   UNL     1     115.443 131.009 134.808  0.00  0.00    +0.000 OA
ATOM     34  C   UNL     1     114.054 129.182 135.735  0.00  0.00    +0.000 A 
ATOM     35  C   UNL     1     114.075 129.311 134.921  0.00  0.00    +0.000 A 
ATOM     36  C   UNL     1     114.496 129.662 136.241  0.00  0.00    +0.000 A 
ATOM     37  C   UNL     1     114.538 129.920 134.612  0.00  0.00    +0.000 A 
ATOM     38  C   UNL     1     114.959 130.270 135.931  0.00  0.00    +0.000 A 
ATOM     39  C   UNL     1     114.980 130.400 135.117  0.00  0.00    +0.000 A 
ENDBRANCH  25  34
ENDBRANCH  19  24
ENDBRANCH   8  19
BRANCH   7  40
ATOM     40  C   UNL     1     111.920 130.290 138.488  0.00  0.00    +0.000 C 
BRANCH  40  41
ATOM     41  O   UNL     1     112.691 130.462 138.729  0.00  0.00    +0.000 OA
BRANCH  41  43
ATOM     42  O   UNL     1     112.408 130.553 140.127  0.00  0.00    +0.000 OA
ATOM     43  C   UNL     1     112.916 130.336 139.512  0.00  0.00    +0.000 C 
BRANCH  43  44
ATOM     44  C   UNL     1     113.648 129.995 139.682  0.00  0.00    +0.000 C 
BRANCH  44  47
ATOM     45  O   UNL     1     114.557 131.019 140.088  0.00  0.00    +0.000 OA
ATOM     46  O   UNL     1     114.201 129.979 140.999  0.00  0.00    +0.000 OA
ATOM     47  C   UNL     1     114.135 130.331 140.257  0.00  0.00    +0.000 C 
ENDBRANCH  44  47
ENDBRANCH  43  44
ENDBRANCH  41  43
ENDBRANCH  40  41
ENDBRANCH   7  40
TORSDOF 11
ENDMDL
MODEL 6
REMARK VINA RESULT:      -9.1      2.064      4.381
REMARK  Name = 131752459
REMARK  11 active torsions:
REMARK  status: ('A' for Active; 'I' for Inactive)
REMARK    1  A    between atoms: O_1  and  C_19
REMARK    2  A    between atoms: O_1  and  C_23
REMARK    3  A    between atoms: O_8  and  C_26
REMARK    4  A    between atoms: O_8  and  C_30
REMARK    5  A    between atoms: O_10  and  C_29
REMARK    6  A    between atoms: O_10  and  C_33
REMARK    7  A    between atoms: C_20  and  C_28
REMARK    8  A    between atoms: C_25  and  C_29
REMARK    9  A    between atoms: C_31  and  C_35
REMARK   10  A    between atoms: C_33  and  C_37
REMARK   11  A    between atoms: C_37  and  C_44
REMARK                            x       y       z     vdW  Elec       q    Type
REMARK                         _______ _______ _______ _____ _____    ______ ____
ROOT
ATOM      1  O   UNL     1     111.170 126.851 138.561  0.00  0.00    +0.000 OA
ATOM      2  O   UNL     1     108.995 127.032 138.582  0.00  0.00    +0.000 OA
ATOM      3  O   UNL     1     110.774 125.646 140.338  0.00  0.00    +0.000 OA
ATOM      4  C   UNL     1     109.885 126.339 139.460  0.00  0.00    +0.000 C 
ATOM      5  C   UNL     1     109.762 126.813 138.796  0.00  0.00    +0.000 C 
ATOM      6  C   UNL     1     110.652 126.120 139.674  0.00  0.00    +0.000 C 
ATOM      7  C   UNL     1     110.405 127.069 138.347  0.00  0.00    +0.000 C 
ATOM      8  C   UNL     1     111.294 126.376 139.225  0.00  0.00    +0.000 C 
ENDROOT
BRANCH   4   9
ATOM      9  O   UNL     1     109.242 126.083 139.909  0.00  0.00    +0.000 OA
BRANCH   9  15
ATOM     10  O   UNL     1     109.367 127.195 140.862  0.00  0.00    +0.000 OA
ATOM     11  O   UNL     1     108.165 127.275 142.382  0.00  0.00    +0.000 OA
ATOM     12  O   UNL     1     107.924 125.631 141.041  0.00  0.00    +0.000 OA
ATOM     13  C   UNL     1     108.387 126.859 141.704  0.00  0.00    +0.000 C 
ATOM     14  C   UNL     1     108.415 126.291 141.107  0.00  0.00    +0.000 C 
ATOM     15  C   UNL     1     109.021 126.499 140.586  0.00  0.00    +0.000 C 
ATOM     16  C   UNL     1     108.974 127.418 141.554  0.00  0.00    +0.000 C 
BRANCH  13  18
ATOM     17  O   UNL     1     107.526 126.647 142.825  0.00  0.00    +0.000 OA
ATOM     18  C   UNL     1     107.759 126.456 142.057  0.00  0.00    +0.000 C 
ENDBRANCH  13  18
ENDBRANCH   9  15
ENDBRANCH   4   9
BRANCH   8  19
ATOM     19  O   UNL     1     112.060 126.158 139.439  0.00  0.00    +0.000 OA
BRANCH  19  24
ATOM     20  O   UNL     1     113.895 126.301 138.265  0.00  0.00    +0.000 OA
ATOM     21  O   UNL     1     111.786 125.005 138.291  0.00  0.00    +0.000 OA
ATOM     22  O   UNL     1     112.194 124.262 137.123  0.00  0.00    +0.000 OA
ATOM     23  O   UNL     1     114.786 124.842 135.907  0.00  0.00    +0.000 OA
ATOM     24  C   UNL     1     112.626 126.013 138.856  0.00  0.00    +0.000 A 
ATOM     25  C   UNL     1     113.329 126.446 138.848  0.00  0.00    +0.000 A 
ATOM     26  C   UNL     1     112.489 125.437 138.282  0.00  0.00    +0.000 A 
ATOM     27  C   UNL     1     113.055 125.293 137.699  0.00  0.00    +0.000 A 
ATOM     28  C   UNL     1     113.757 125.724 137.691  0.00  0.00    +0.000 A 
ATOM     29  C   UNL     1     112.900 124.690 137.107  0.00  0.00    +0.000 A 
ATOM     30  C   UNL     1     114.355 125.584 137.089  0.00  0.00    +0.000 A 
ATOM     31  C   UNL     1     113.485 124.534 136.497  0.00  0.00    +0.000 A 
ATOM     32  C   UNL     1     114.218 124.985 136.488  0.00  0.00    +0.000 A 
BRANCH  25  34
ATOM     33  O   UNL     1     113.874 128.752 141.143  0.00  0.00    +0.000 OA
ATOM     34  C   UNL     1     113.466 127.022 139.422  0.00  0.00    +0.000 A 
ATOM     35  C   UNL     1     113.668 126.799 140.190  0.00  0.00    +0.000 A 
ATOM     36  C   UNL     1     113.399 127.821 139.227  0.00  0.00    +0.000 A 
ATOM     37  C   UNL     1     113.805 127.377 140.764  0.00  0.00    +0.000 A 
ATOM     38  C   UNL     1     113.535 128.397 139.802  0.00  0.00    +0.000 A 
ATOM     39  C   UNL     1     113.738 128.175 140.570  0.00  0.00    +0.000 A 
ENDBRANCH  25  34
ENDBRANCH  19  24
ENDBRANCH   8  19
BRANCH   7  40
ATOM     40  C   UNL     1     110.281 127.543 137.683  0.00  0.00    +0.000 C 
BRANCH  40  41
ATOM     41  O   UNL     1     110.914 127.944 137.339  0.00  0.00    +0.000 OA
BRANCH  41  43
ATOM     42  O   UNL     1     110.320 128.979 136.553  0.00  0.00    +0.000 OA
ATOM     43  C   UNL     1     110.818 128.323 136.613  0.00  0.00    +0.000 C 
BRANCH  43  44
ATOM     44  C   UNL     1     111.218 128.047 135.946  0.00  0.00    +0.000 C 
BRANCH  44  47
ATOM     45  O   UNL     1     112.587 128.436 135.813  0.00  0.00    +0.000 OA
ATOM     46  O   UNL     1     111.585 129.063 135.011  0.00  0.00    +0.000 OA
ATOM     47  C   UNL     1     111.797 128.516 135.590  0.00  0.00    +0.000 C 
ENDBRANCH  44  47
ENDBRANCH  43  44
ENDBRANCH  41  43
ENDBRANCH  40  41
ENDBRANCH   7  40
TORSDOF 11
ENDMDL
MODEL 7
REMARK VINA RESULT:      -9.1      1.835      4.135
REMARK  Name = 131752459
REMARK  11 active torsions:
REMARK  status: ('A' for Active; 'I' for Inactive)
REMARK    1  A    between atoms: O_1  and  C_19
REMARK    2  A    between atoms: O_1  and  C_23
REMARK    3  A    between atoms: O_8  and  C_26
REMARK    4  A    between atoms: O_8  and  C_30
REMARK    5  A    between atoms: O_10  and  C_29
REMARK    6  A    between atoms: O_10  and  C_33
REMARK    7  A    between atoms: C_20  and  C_28
REMARK    8  A    between atoms: C_25  and  C_29
REMARK    9  A    between atoms: C_31  and  C_35
REMARK   10  A    between atoms: C_33  and  C_37
REMARK   11  A    between atoms: C_37  and  C_44
REMARK                            x       y       z     vdW  Elec       q    Type
REMARK                         _______ _______ _______ _____ _____    ______ ____
ROOT
ATOM      1  O   UNL     1     111.686 128.656 137.867  0.00  0.00    +0.000 OA
ATOM      2  O   UNL     1     110.795 130.026 139.314  0.00  0.00    +0.000 OA
ATOM      3  O   UNL     1     113.494 129.141 138.990  0.00  0.00    +0.000 OA
ATOM      4  C   UNL     1     112.145 129.583 139.152  0.00  0.00    +0.000 C 
ATOM      5  C   UNL     1     111.356 129.572 138.911  0.00  0.00    +0.000 C 
ATOM      6  C   UNL     1     112.705 129.130 138.749  0.00  0.00    +0.000 C 
ATOM      7  C   UNL     1     111.126 129.108 138.269  0.00  0.00    +0.000 C 
ATOM      8  C   UNL     1     112.475 128.666 138.107  0.00  0.00    +0.000 C 
ENDROOT
BRANCH   4   9
ATOM      9  O   UNL     1     112.374 130.047 139.795  0.00  0.00    +0.000 OA
BRANCH   9  15
ATOM     10  O   UNL     1     112.151 128.966 140.765  0.00  0.00    +0.000 OA
ATOM     11  O   UNL     1     112.238 129.366 142.660  0.00  0.00    +0.000 OA
ATOM     12  O   UNL     1     112.572 130.987 141.311  0.00  0.00    +0.000 OA
ATOM     13  C   UNL     1     112.298 129.665 141.893  0.00  0.00    +0.000 C 
ATOM     14  C   UNL     1     112.405 130.181 141.258  0.00  0.00    +0.000 C 
ATOM     15  C   UNL     1     112.313 129.749 140.561  0.00  0.00    +0.000 C 
ATOM     16  C   UNL     1     112.142 128.914 141.589  0.00  0.00    +0.000 C 
BRANCH  13  18
ATOM     17  O   UNL     1     112.279 130.183 143.224  0.00  0.00    +0.000 OA
ATOM     18  C   UNL     1     112.429 130.286 142.419  0.00  0.00    +0.000 C 
ENDBRANCH  13  18
ENDBRANCH   9  15
ENDBRANCH   4   9
BRANCH   8  19
ATOM     19  O   UNL     1     113.035 128.213 137.705  0.00  0.00    +0.000 OA
BRANCH  19  24
ATOM     20  O   UNL     1     112.681 126.682 136.189  0.00  0.00    +0.000 OA
ATOM     21  O   UNL     1     112.413 126.996 138.630  0.00  0.00    +0.000 OA
ATOM     22  O   UNL     1     111.873 125.666 138.771  0.00  0.00    +0.000 OA
ATOM     23  O   UNL     1     111.598 123.986 136.397  0.00  0.00    +0.000 OA
ATOM     24  C   UNL     1     112.813 127.500 137.354  0.00  0.00    +0.000 A 
ATOM     25  C   UNL     1     112.902 127.395 136.540  0.00  0.00    +0.000 A 
ATOM     26  C   UNL     1     112.503 126.891 137.816  0.00  0.00    +0.000 A 
ATOM     27  C   UNL     1     112.281 126.178 137.465  0.00  0.00    +0.000 A 
ATOM     28  C   UNL     1     112.370 126.074 136.652  0.00  0.00    +0.000 A 
ATOM     29  C   UNL     1     111.959 125.552 137.958  0.00  0.00    +0.000 A 
ATOM     30  C   UNL     1     112.143 125.335 136.274  0.00  0.00    +0.000 A 
ATOM     31  C   UNL     1     111.726 124.807 137.599  0.00  0.00    +0.000 A 
ATOM     32  C   UNL     1     111.819 124.698 136.751  0.00  0.00    +0.000 A 
BRANCH  25  34
ATOM     33  O   UNL     1     114.143 129.831 134.691  0.00  0.00    +0.000 OA
ATOM     34  C   UNL     1     113.213 128.004 136.078  0.00  0.00    +0.000 A 
ATOM     35  C   UNL     1     114.020 128.174 136.107  0.00  0.00    +0.000 A 
ATOM     36  C   UNL     1     112.716 128.442 135.586  0.00  0.00    +0.000 A 
ATOM     37  C   UNL     1     114.329 128.783 135.645  0.00  0.00    +0.000 A 
ATOM     38  C   UNL     1     113.027 129.051 135.124  0.00  0.00    +0.000 A 
ATOM     39  C   UNL     1     113.834 129.221 135.153  0.00  0.00    +0.000 A 
ENDBRANCH  25  34
ENDBRANCH  19  24
ENDBRANCH   8  19
BRANCH   7  40
ATOM     40  C   UNL     1     110.337 129.098 138.029  0.00  0.00    +0.000 C 
BRANCH  40  41
ATOM     41  O   UNL     1     110.145 129.225 137.236  0.00  0.00    +0.000 OA
BRANCH  41  43
ATOM     42  O   UNL     1     109.032 128.332 137.159  0.00  0.00    +0.000 OA
ATOM     43  C   UNL     1     109.387 129.051 136.962  0.00  0.00    +0.000 C 
BRANCH  43  44
ATOM     44  C   UNL     1     108.984 129.595 136.490  0.00  0.00    +0.000 C 
BRANCH  44  47
ATOM     45  O   UNL     1     107.892 129.037 135.757  0.00  0.00    +0.000 OA
ATOM     46  O   UNL     1     109.084 129.428 135.075  0.00  0.00    +0.000 OA
ATOM     47  C   UNL     1     108.653 129.353 135.774  0.00  0.00    +0.000 C 
ENDBRANCH  44  47
ENDBRANCH  43  44
ENDBRANCH  41  43
ENDBRANCH  40  41
ENDBRANCH   7  40
TORSDOF 11
ENDMDL
MODEL 8
REMARK VINA RESULT:      -9.1      1.939      3.820
REMARK  Name = 131752459
REMARK  11 active torsions:
REMARK  status: ('A' for Active; 'I' for Inactive)
REMARK    1  A    between atoms: O_1  and  C_19
REMARK    2  A    between atoms: O_1  and  C_23
REMARK    3  A    between atoms: O_8  and  C_26
REMARK    4  A    between atoms: O_8  and  C_30
REMARK    5  A    between atoms: O_10  and  C_29
REMARK    6  A    between atoms: O_10  and  C_33
REMARK    7  A    between atoms: C_20  and  C_28
REMARK    8  A    between atoms: C_25  and  C_29
REMARK    9  A    between atoms: C_31  and  C_35
REMARK   10  A    between atoms: C_33  and  C_37
REMARK   11  A    between atoms: C_37  and  C_44
REMARK                            x       y       z     vdW  Elec       q    Type
REMARK                         _______ _______ _______ _____ _____    ______ ____
ROOT
ATOM      1  O   UNL     1     112.246 127.580 137.270  0.00  0.00    +0.000 OA
ATOM      2  O   UNL     1     113.266 129.384 137.956  0.00  0.00    +0.000 OA
ATOM      3  O   UNL     1     112.304 128.649 135.367  0.00  0.00    +0.000 OA
ATOM      4  C   UNL     1     112.785 129.016 136.662  0.00  0.00    +0.000 C 
ATOM      5  C   UNL     1     112.891 128.840 137.461  0.00  0.00    +0.000 C 
ATOM      6  C   UNL     1     112.410 128.473 136.166  0.00  0.00    +0.000 C 
ATOM      7  C   UNL     1     112.621 128.122 137.765  0.00  0.00    +0.000 C 
ATOM      8  C   UNL     1     112.140 127.755 136.470  0.00  0.00    +0.000 C 
ENDROOT
BRANCH   4   9
ATOM      9  O   UNL     1     113.054 129.735 136.358  0.00  0.00    +0.000 OA
BRANCH   9  15
ATOM     10  O   UNL     1     114.267 129.139 135.778  0.00  0.00    +0.000 OA
ATOM     11  O   UNL     1     115.666 130.306 135.115  0.00  0.00    +0.000 OA
ATOM     12  O   UNL     1     113.935 131.242 135.943  0.00  0.00    +0.000 OA
ATOM     13  C   UNL     1     114.922 130.260 135.469  0.00  0.00    +0.000 C 
ATOM     14  C   UNL     1     114.203 130.473 135.813  0.00  0.00    +0.000 C 
ATOM     15  C   UNL     1     113.798 129.779 136.004  0.00  0.00    +0.000 C 
ATOM     16  C   UNL     1     114.962 129.437 135.448  0.00  0.00    +0.000 C 
BRANCH  13  18
ATOM     17  O   UNL     1     115.710 131.282 134.855  0.00  0.00    +0.000 OA
ATOM     18  C   UNL     1     115.114 131.058 135.380  0.00  0.00    +0.000 C 
ENDBRANCH  13  18
ENDBRANCH   9  15
ENDBRANCH   4   9
BRANCH   8  19
ATOM     19  O   UNL     1     111.765 127.213 135.975  0.00  0.00    +0.000 OA
BRANCH  19  24
ATOM     20  O   UNL     1     110.996 125.237 136.495  0.00  0.00    +0.000 OA
ATOM     21  O   UNL     1     113.172 126.371 136.164  0.00  0.00    +0.000 OA
ATOM     22  O   UNL     1     113.885 125.153 136.462  0.00  0.00    +0.000 OA
ATOM     23  O   UNL     1     112.367 122.742 137.107  0.00  0.00    +0.000 OA
ATOM     24  C   UNL     1     111.743 126.414 136.180  0.00  0.00    +0.000 A 
ATOM     25  C   UNL     1     111.018 126.036 136.290  0.00  0.00    +0.000 A 
ATOM     26  C   UNL     1     112.446 125.993 136.274  0.00  0.00    +0.000 A 
ATOM     27  C   UNL     1     112.424 125.194 136.479  0.00  0.00    +0.000 A 
ATOM     28  C   UNL     1     111.700 124.816 136.589  0.00  0.00    +0.000 A 
ATOM     29  C   UNL     1     113.164 124.766 136.574  0.00  0.00    +0.000 A 
ATOM     30  C   UNL     1     111.663 123.984 136.803  0.00  0.00    +0.000 A 
ATOM     31  C   UNL     1     113.148 123.934 136.787  0.00  0.00    +0.000 A 
ATOM     32  C   UNL     1     112.392 123.540 136.902  0.00  0.00    +0.000 A 
BRANCH  25  34
ATOM     33  O   UNL     1     108.207 127.722 135.909  0.00  0.00    +0.000 OA
ATOM     34  C   UNL     1     110.315 126.457 136.196  0.00  0.00    +0.000 A 
ATOM     35  C   UNL     1     109.877 126.683 136.857  0.00  0.00    +0.000 A 
ATOM     36  C   UNL     1     110.051 126.653 135.438  0.00  0.00    +0.000 A 
ATOM     37  C   UNL     1     109.174 127.105 136.761  0.00  0.00    +0.000 A 
ATOM     38  C   UNL     1     109.348 127.074 135.344  0.00  0.00    +0.000 A 
ATOM     39  C   UNL     1     108.910 127.300 136.005  0.00  0.00    +0.000 A 
ENDBRANCH  25  34
ENDBRANCH  19  24
ENDBRANCH   8  19
BRANCH   7  40
ATOM     40  C   UNL     1     112.727 127.947 138.564  0.00  0.00    +0.000 C 
BRANCH  40  41
ATOM     41  O   UNL     1     112.127 127.572 138.987  0.00  0.00    +0.000 OA
BRANCH  41  43
ATOM     42  O   UNL     1     113.044 126.832 139.795  0.00  0.00    +0.000 OA
ATOM     43  C   UNL     1     112.301 127.176 139.689  0.00  0.00    +0.000 C 
BRANCH  43  44
ATOM     44  C   UNL     1     111.733 127.124 140.286  0.00  0.00    +0.000 C 
BRANCH  44  47
ATOM     45  O   UNL     1     111.673 126.153 141.332  0.00  0.00    +0.000 OA
ATOM     46  O   UNL     1     111.071 125.876 140.067  0.00  0.00    +0.000 OA
ATOM     47  C   UNL     1     111.493 126.384 140.561  0.00  0.00    +0.000 C 
ENDBRANCH  44  47
ENDBRANCH  43  44
ENDBRANCH  41  43
ENDBRANCH  40  41
ENDBRANCH   7  40
TORSDOF 11
ENDMDL
MODEL 9
REMARK VINA RESULT:      -9.0      2.256      4.281
REMARK  Name = 131752459
REMARK  11 active torsions:
REMARK  status: ('A' for Active; 'I' for Inactive)
REMARK    1  A    between atoms: O_1  and  C_19
REMARK    2  A    between atoms: O_1  and  C_23
REMARK    3  A    between atoms: O_8  and  C_26
REMARK    4  A    between atoms: O_8  and  C_30
REMARK    5  A    between atoms: O_10  and  C_29
REMARK    6  A    between atoms: O_10  and  C_33
REMARK    7  A    between atoms: C_20  and  C_28
REMARK    8  A    between atoms: C_25  and  C_29
REMARK    9  A    between atoms: C_31  and  C_35
REMARK   10  A    between atoms: C_33  and  C_37
REMARK   11  A    between atoms: C_37  and  C_44
REMARK                            x       y       z     vdW  Elec       q    Type
REMARK                         _______ _______ _______ _____ _____    ______ ____
ROOT
ATOM      1  O   UNL     1     112.063 127.077 138.481  0.00  0.00    +0.000 OA
ATOM      2  O   UNL     1     111.831 128.371 140.224  0.00  0.00    +0.000 OA
ATOM      3  O   UNL     1     113.231 128.777 137.765  0.00  0.00    +0.000 OA
ATOM      4  C   UNL     1     112.531 128.574 138.995  0.00  0.00    +0.000 C 
ATOM      5  C   UNL     1     112.064 128.098 139.480  0.00  0.00    +0.000 C 
ATOM      6  C   UNL     1     112.764 128.301 138.251  0.00  0.00    +0.000 C 
ATOM      7  C   UNL     1     111.830 127.349 139.223  0.00  0.00    +0.000 C 
ATOM      8  C   UNL     1     112.530 127.553 137.994  0.00  0.00    +0.000 C 
ENDROOT
BRANCH   4   9
ATOM      9  O   UNL     1     112.765 129.322 139.252  0.00  0.00    +0.000 OA
BRANCH   9  15
ATOM     10  O   UNL     1     113.945 128.798 139.955  0.00  0.00    +0.000 OA
ATOM     11  O   UNL     1     115.182 130.044 140.778  0.00  0.00    +0.000 OA
ATOM     12  O   UNL     1     113.492 130.878 139.775  0.00  0.00    +0.000 OA
ATOM     13  C   UNL     1     114.486 129.955 140.344  0.00  0.00    +0.000 C 
ATOM     14  C   UNL     1     113.795 130.125 139.926  0.00  0.00    +0.000 C 
ATOM     15  C   UNL     1     113.461 129.410 139.685  0.00  0.00    +0.000 C 
ATOM     16  C   UNL     1     114.579 129.136 140.362  0.00  0.00    +0.000 C 
BRANCH  13  18
ATOM     17  O   UNL     1     115.269 131.018 140.891  0.00  0.00    +0.000 OA
ATOM     18  C   UNL     1     114.613 130.762 140.461  0.00  0.00    +0.000 C 
ENDBRANCH  13  18
ENDBRANCH   9  15
ENDBRANCH   4   9
BRANCH   8  19
ATOM     19  O   UNL     1     112.763 127.281 137.252  0.00  0.00    +0.000 OA
BRANCH  19  24
ATOM     20  O   UNL     1     111.868 125.687 136.056  0.00  0.00    +0.000 OA
ATOM     21  O   UNL     1     111.345 127.991 136.796  0.00  0.00    +0.000 OA
ATOM     22  O   UNL     1     110.084 127.960 136.096  0.00  0.00    +0.000 OA
ATOM     23  O   UNL     1     109.339 125.553 134.620  0.00  0.00    +0.000 OA
ATOM     24  C   UNL     1     112.229 126.868 136.777  0.00  0.00    +0.000 A 
ATOM     25  C   UNL     1     112.403 126.100 136.531  0.00  0.00    +0.000 A 
ATOM     26  C   UNL     1     111.520 127.223 136.549  0.00  0.00    +0.000 A 
ATOM     27  C   UNL     1     110.985 126.811 136.075  0.00  0.00    +0.000 A 
ATOM     28  C   UNL     1     111.160 126.043 135.829  0.00  0.00    +0.000 A 
ATOM     29  C   UNL     1     110.250 127.192 135.845  0.00  0.00    +0.000 A 
ATOM     30  C   UNL     1     110.611 125.603 135.334  0.00  0.00    +0.000 A 
ATOM     31  C   UNL     1     109.689 126.768 135.351  0.00  0.00    +0.000 A 
ATOM     32  C   UNL     1     109.871 125.968 135.094  0.00  0.00    +0.000 A 
BRANCH  25  34
ATOM     33  O   UNL     1     115.238 124.679 137.445  0.00  0.00    +0.000 OA
ATOM     34  C   UNL     1     113.112 125.745 136.759  0.00  0.00    +0.000 A 
ATOM     35  C   UNL     1     113.823 125.985 136.416  0.00  0.00    +0.000 A 
ATOM     36  C   UNL     1     113.109 125.149 137.331  0.00  0.00    +0.000 A 
ATOM     37  C   UNL     1     114.531 125.629 136.645  0.00  0.00    +0.000 A 
ATOM     38  C   UNL     1     113.818 124.795 137.559  0.00  0.00    +0.000 A 
ATOM     39  C   UNL     1     114.529 125.034 137.216  0.00  0.00    +0.000 A 
ENDBRANCH  25  34
ENDBRANCH  19  24
ENDBRANCH   8  19
BRANCH   7  40
ATOM     40  C   UNL     1     111.363 126.874 139.710  0.00  0.00    +0.000 C 
BRANCH  40  41
ATOM     41  O   UNL     1     110.587 126.700 139.493  0.00  0.00    +0.000 OA
BRANCH  41  43
ATOM     42  O   UNL     1     110.414 125.288 139.631  0.00  0.00    +0.000 OA
ATOM     43  C   UNL     1     110.197 126.058 139.834  0.00  0.00    +0.000 C 
BRANCH  43  44
ATOM     44  C   UNL     1     109.590 126.186 140.379  0.00  0.00    +0.000 C 
BRANCH  44  47
ATOM     45  O   UNL     1     109.039 124.985 140.923  0.00  0.00    +0.000 OA
ATOM     46  O   UNL     1     108.275 125.769 140.006  0.00  0.00    +0.000 OA
ATOM     47  C   UNL     1     108.968 125.647 140.436  0.00  0.00    +0.000 C 
ENDBRANCH  44  47
ENDBRANCH  43  44
ENDBRANCH  41  43
ENDBRANCH  40  41
ENDBRANCH   7  40
TORSDOF 11
ENDMDL
MODEL 10
REMARK VINA RESULT:      -9.0      2.295      4.609
REMARK  Name = 131752459
REMARK  11 active torsions:
REMARK  status: ('A' for Active; 'I' for Inactive)
REMARK    1  A    between atoms: O_1  and  C_19
REMARK    2  A    between atoms: O_1  and  C_23
REMARK    3  A    between atoms: O_8  and  C_26
REMARK    4  A    between atoms: O_8  and  C_30
REMARK    5  A    between atoms: O_10  and  C_29
REMARK    6  A    between atoms: O_10  and  C_33
REMARK    7  A    between atoms: C_20  and  C_28
REMARK    8  A    between atoms: C_25  and  C_29
REMARK    9  A    between atoms: C_31  and  C_35
REMARK   10  A    between atoms: C_33  and  C_37
REMARK   11  A    between atoms: C_37  and  C_44
REMARK                            x       y       z     vdW  Elec       q    Type
REMARK                         _______ _______ _______ _____ _____    ______ ____
ROOT
ATOM      1  O   UNL     1     112.695 126.969 139.326  0.00  0.00    +0.000 OA
ATOM      2  O   UNL     1     111.926 126.852 141.365  0.00  0.00    +0.000 OA
ATOM      3  O   UNL     1     110.951 125.716 138.931  0.00  0.00    +0.000 OA
ATOM      4  C   UNL     1     111.439 126.284 140.148  0.00  0.00    +0.000 C 
ATOM      5  C   UNL     1     111.996 126.739 140.550  0.00  0.00    +0.000 C 
ATOM      6  C   UNL     1     111.509 126.171 139.333  0.00  0.00    +0.000 C 
ATOM      7  C   UNL     1     112.624 127.081 140.139  0.00  0.00    +0.000 C 
ATOM      8  C   UNL     1     112.137 126.514 138.922  0.00  0.00    +0.000 C 
ENDROOT
BRANCH   4   9
ATOM      9  O   UNL     1     110.811 125.941 140.559  0.00  0.00    +0.000 OA
BRANCH   9  15
ATOM     10  O   UNL     1     109.969 127.142 140.450  0.00  0.00    +0.000 OA
ATOM     11  O   UNL     1     108.104 127.036 140.968  0.00  0.00    +0.000 OA
ATOM     12  O   UNL     1     109.264 125.253 141.154  0.00  0.00    +0.000 OA
ATOM     13  C   UNL     1     108.818 126.629 140.892  0.00  0.00    +0.000 C 
ATOM     14  C   UNL     1     109.386 126.031 140.908  0.00  0.00    +0.000 C 
ATOM     15  C   UNL     1     110.097 126.347 140.635  0.00  0.00    +0.000 C 
ATOM     16  C   UNL     1     109.178 127.316 140.610  0.00  0.00    +0.000 C 
BRANCH  13  18
ATOM     17  O   UNL     1     107.465 126.334 141.243  0.00  0.00    +0.000 OA
ATOM     18  C   UNL     1     108.255 126.103 141.185  0.00  0.00    +0.000 C 
ENDBRANCH  13  18
ENDBRANCH   9  15
ENDBRANCH   4   9
BRANCH   8  19
ATOM     19  O   UNL     1     112.207 126.401 138.108  0.00  0.00    +0.000 OA
BRANCH  19  24
ATOM     20  O   UNL     1     113.556 127.431 136.735  0.00  0.00    +0.000 OA
ATOM     21  O   UNL     1     111.494 127.887 138.027  0.00  0.00    +0.000 OA
ATOM     22  O   UNL     1     111.444 129.239 137.525  0.00  0.00    +0.000 OA
ATOM     23  O   UNL     1     113.520 130.146 135.682  0.00  0.00    +0.000 OA
ATOM     24  C   UNL     1     112.538 126.992 137.637  0.00  0.00    +0.000 A 
ATOM     25  C   UNL     1     113.226 126.840 137.206  0.00  0.00    +0.000 A 
ATOM     26  C   UNL     1     112.182 127.735 137.596  0.00  0.00    +0.000 A 
ATOM     27  C   UNL     1     112.513 128.326 137.125  0.00  0.00    +0.000 A 
ATOM     28  C   UNL     1     113.199 128.174 136.695  0.00  0.00    +0.000 A 
ATOM     29  C   UNL     1     112.132 129.096 137.091  0.00  0.00    +0.000 A 
ATOM     30  C   UNL     1     113.554 128.781 136.200  0.00  0.00    +0.000 A 
ATOM     31  C   UNL     1     112.471 129.715 136.603  0.00  0.00    +0.000 A 
ATOM     32  C   UNL     1     113.187 129.557 136.154  0.00  0.00    +0.000 A 
BRANCH  25  34
ATOM     33  O   UNL     1     114.652 123.869 137.372  0.00  0.00    +0.000 OA
ATOM     34  C   UNL     1     113.582 126.097 137.247  0.00  0.00    +0.000 A 
ATOM     35  C   UNL     1     113.249 125.457 136.847  0.00  0.00    +0.000 A 
ATOM     36  C   UNL     1     114.272 125.994 137.689  0.00  0.00    +0.000 A 
ATOM     37  C   UNL     1     113.606 124.714 136.889  0.00  0.00    +0.000 A 
ATOM     38  C   UNL     1     114.628 125.252 137.730  0.00  0.00    +0.000 A 
ATOM     39  C   UNL     1     114.295 124.611 137.330  0.00  0.00    +0.000 A 
ENDBRANCH  25  34
ENDBRANCH  19  24
ENDBRANCH   8  19
BRANCH   7  40
ATOM     40  C   UNL     1     113.182 127.536 140.543  0.00  0.00    +0.000 C 
BRANCH  40  41
ATOM     41  O   UNL     1     113.381 128.287 140.264  0.00  0.00    +0.000 OA
BRANCH  41  43
ATOM     42  O   UNL     1     114.696 128.281 140.825  0.00  0.00    +0.000 OA
ATOM     43  C   UNL     1     114.019 128.694 140.593  0.00  0.00    +0.000 C 
BRANCH  43  44
ATOM     44  C   UNL     1     113.982 129.512 140.689  0.00  0.00    +0.000 C 
BRANCH  44  47
ATOM     45  O   UNL     1     114.319 130.279 139.531  0.00  0.00    +0.000 OA
ATOM     46  O   UNL     1     115.229 130.206 140.629  0.00  0.00    +0.000 OA
ATOM     47  C   UNL     1     114.510 129.999 140.283  0.00  0.00    +0.000 C 
ENDBRANCH  44  47
ENDBRANCH  43  44
ENDBRANCH  41  43
ENDBRANCH  40  41
ENDBRANCH   7  40
TORSDOF 11
ENDMDL
