MODEL 1
REMARK VINA RESULT:     -10.6      0.000      0.000
REMARK  Name = 42607607
REMARK  12 active torsions:
REMARK  status: ('A' for Active; 'I' for Inactive)
REMARK    1  A    between atoms: O_3  and  C_27
REMARK    2  A    between atoms: O_3  and  C_31
REMARK    3  A    between atoms: O_5  and  C_30
REMARK    4  A    between atoms: O_5  and  C_39
REMARK    5  A    between atoms: O_12  and  C_36
REMARK    6  A    between atoms: O_12  and  C_40
REMARK    7  A    between atoms: C_21  and  C_31
REMARK    8  A    between atoms: C_29  and  C_37
REMARK    9  A    between atoms: C_35  and  C_38
REMARK   10  A    between atoms: C_43  and  C_45
REMARK   11  A    between atoms: C_45  and  C_46
REMARK   12  A    between atoms: C_47  and  C_48
REMARK                            x       y       z     vdW  Elec       q    Type
REMARK                         _______ _______ _______ _____ _____    ______ ____
ROOT
ATOM      1  O   UNL     1     110.528 125.426 135.918  0.00  0.00    +0.000 OA
ATOM      2  C   UNL     1     109.570 126.973 137.124  0.00  0.00    +0.000 A 
ATOM      3  C   UNL     1     110.441 126.205 137.956  0.00  0.00    +0.000 A 
ATOM      4  C   UNL     1     109.901 126.821 137.863  0.00  0.00    +0.000 A 
ATOM      5  C   UNL     1     109.779 126.508 136.475  0.00  0.00    +0.000 A 
ATOM      6  C   UNL     1     110.651 125.739 137.307  0.00  0.00    +0.000 A 
ATOM      7  C   UNL     1     110.319 125.891 136.566  0.00  0.00    +0.000 A 
ENDROOT
BRANCH   6   9
ATOM      8  O   UNL     1     111.213 124.332 137.636  0.00  0.00    +0.000 OA
ATOM      9  C   UNL     1     111.191 125.123 137.399  0.00  0.00    +0.000 C 
BRANCH   9  10
ATOM     10  C   UNL     1     111.987 125.241 137.219  0.00  0.00    +0.000 C 
ATOM     11  C   UNL     1     112.520 124.614 137.276  0.00  0.00    +0.000 C 
BRANCH  11  13
ATOM     12  O   UNL     1     115.706 125.088 136.559  0.00  0.00    +0.000 OA
ATOM     13  C   UNL     1     113.317 124.732 137.097  0.00  0.00    +0.000 A 
ATOM     14  C   UNL     1     113.833 125.010 137.676  0.00  0.00    +0.000 A 
ATOM     15  C   UNL     1     113.597 124.573 136.337  0.00  0.00    +0.000 A 
ATOM     16  C   UNL     1     114.630 125.129 137.497  0.00  0.00    +0.000 A 
ATOM     17  C   UNL     1     114.394 124.691 136.157  0.00  0.00    +0.000 A 
ATOM     18  C   UNL     1     114.910 124.969 136.738  0.00  0.00    +0.000 A 
ENDBRANCH  11  13
ENDBRANCH   9  10
ENDBRANCH   6   9
BRANCH   2  19
ATOM     19  O   UNL     1     109.030 127.590 137.031  0.00  0.00    +0.000 OA
BRANCH  19  28
ATOM     20  O   UNL     1     109.965 128.670 136.998  0.00  0.00    +0.000 OA
ATOM     21  O   UNL     1     110.021 130.474 135.771  0.00  0.00    +0.000 OA
ATOM     22  O   UNL     1     108.647 129.756 135.207  0.00  0.00    +0.000 OA
ATOM     23  O   UNL     1     108.152 128.314 135.837  0.00  0.00    +0.000 OA
ATOM     24  C   UNL     1     110.213 129.391 136.683  0.00  0.00    +0.000 C 
ATOM     25  C   UNL     1     109.773 129.753 136.086  0.00  0.00    +0.000 C 
ATOM     26  C   UNL     1     109.087 129.394 135.804  0.00  0.00    +0.000 C 
ATOM     27  C   UNL     1     108.839 128.673 136.119  0.00  0.00    +0.000 C 
ATOM     28  C   UNL     1     109.278 128.311 136.716  0.00  0.00    +0.000 C 
BRANCH  24  29
ATOM     29  C   UNL     1     110.900 129.750 136.965  0.00  0.00    +0.000 C 
BRANCH  29  30
ATOM     30  O   UNL     1     111.075 129.729 137.771  0.00  0.00    +0.000 OA
BRANCH  30  37
ATOM     31  O   UNL     1     112.437 130.081 137.521  0.00  0.00    +0.000 OA
ATOM     32  O   UNL     1     111.259 130.142 139.358  0.00  0.00    +0.000 OA
ATOM     33  O   UNL     1     112.714 130.701 139.901  0.00  0.00    +0.000 OA
ATOM     34  O   UNL     1     113.984 130.846 138.857  0.00  0.00    +0.000 OA
ATOM     35  C   UNL     1     111.895 130.215 138.836  0.00  0.00    +0.000 C 
ATOM     36  C   UNL     1     112.621 130.494 139.108  0.00  0.00    +0.000 C 
ATOM     37  C   UNL     1     111.802 130.009 138.043  0.00  0.00    +0.000 C 
ATOM     38  C   UNL     1     113.257 130.567 138.586  0.00  0.00    +0.000 C 
ATOM     39  C   UNL     1     113.165 130.360 137.793  0.00  0.00    +0.000 C 
BRANCH  39  41
ATOM     40  O   UNL     1     113.965 129.827 136.736  0.00  0.00    +0.000 OA
ATOM     41  C   UNL     1     113.799 130.433 137.271  0.00  0.00    +0.000 C 
ENDBRANCH  39  41
ENDBRANCH  30  37
ENDBRANCH  29  30
ENDBRANCH  24  29
ENDBRANCH  19  28
ENDBRANCH   2  19
BRANCH   3  42
ATOM     42  O   UNL     1     110.772 126.053 138.695  0.00  0.00    +0.000 OA
BRANCH  42  51
ATOM     43  O   UNL     1     109.939 125.793 139.827  0.00  0.00    +0.000 OA
ATOM     44  O   UNL     1     111.425 127.180 141.240  0.00  0.00    +0.000 OA
ATOM     45  O   UNL     1     110.095 126.457 141.900  0.00  0.00    +0.000 OA
ATOM     46  O   UNL     1     111.763 126.977 139.638  0.00  0.00    +0.000 OA
ATOM     47  C   UNL     1     110.930 126.717 140.768  0.00  0.00    +0.000 C 
ATOM     48  C   UNL     1     110.264 126.356 141.099  0.00  0.00    +0.000 C 
ATOM     49  C   UNL     1     111.099 126.616 139.968  0.00  0.00    +0.000 C 
ATOM     50  C   UNL     1     109.769 125.894 140.628  0.00  0.00    +0.000 C 
ATOM     51  C   UNL     1     110.603 126.154 139.497  0.00  0.00    +0.000 C 
BRANCH  50  53
ATOM     52  O   UNL     1     109.029 124.713 140.937  0.00  0.00    +0.000 OA
ATOM     53  C   UNL     1     109.105 125.533 140.958  0.00  0.00    +0.000 C 
ENDBRANCH  50  53
ENDBRANCH  42  51
ENDBRANCH   3  42
TORSDOF 12
ENDMDL
MODEL 2
REMARK VINA RESULT:     -10.6      0.920      1.782
REMARK  Name = 42607607
REMARK  12 active torsions:
REMARK  status: ('A' for Active; 'I' for Inactive)
REMARK    1  A    between atoms: O_3  and  C_27
REMARK    2  A    between atoms: O_3  and  C_31
REMARK    3  A    between atoms: O_5  and  C_30
REMARK    4  A    between atoms: O_5  and  C_39
REMARK    5  A    between atoms: O_12  and  C_36
REMARK    6  A    between atoms: O_12  and  C_40
REMARK    7  A    between atoms: C_21  and  C_31
REMARK    8  A    between atoms: C_29  and  C_37
REMARK    9  A    between atoms: C_35  and  C_38
REMARK   10  A    between atoms: C_43  and  C_45
REMARK   11  A    between atoms: C_45  and  C_46
REMARK   12  A    between atoms: C_47  and  C_48
REMARK                            x       y       z     vdW  Elec       q    Type
REMARK                         _______ _______ _______ _____ _____    ______ ____
ROOT
ATOM      1  O   UNL     1     110.560 125.436 135.765  0.00  0.00    +0.000 OA
ATOM      2  C   UNL     1     109.558 126.952 136.974  0.00  0.00    +0.000 A 
ATOM      3  C   UNL     1     110.412 126.173 137.814  0.00  0.00    +0.000 A 
ATOM      4  C   UNL     1     109.870 126.788 137.719  0.00  0.00    +0.000 A 
ATOM      5  C   UNL     1     109.788 126.501 136.323  0.00  0.00    +0.000 A 
ATOM      6  C   UNL     1     110.642 125.723 137.163  0.00  0.00    +0.000 A 
ATOM      7  C   UNL     1     110.330 125.886 136.416  0.00  0.00    +0.000 A 
ENDROOT
BRANCH   6   9
ATOM      8  O   UNL     1     111.210 124.320 137.501  0.00  0.00    +0.000 OA
ATOM      9  C   UNL     1     111.185 125.108 137.256  0.00  0.00    +0.000 C 
BRANCH   9  10
ATOM     10  C   UNL     1     111.980 125.227 137.071  0.00  0.00    +0.000 C 
ATOM     11  C   UNL     1     112.530 124.628 137.213  0.00  0.00    +0.000 C 
BRANCH  11  13
ATOM     12  O   UNL     1     115.710 125.104 136.471  0.00  0.00    +0.000 OA
ATOM     13  C   UNL     1     113.325 124.747 137.028  0.00  0.00    +0.000 A 
ATOM     14  C   UNL     1     113.620 124.502 136.297  0.00  0.00    +0.000 A 
ATOM     15  C   UNL     1     113.826 125.112 137.573  0.00  0.00    +0.000 A 
ATOM     16  C   UNL     1     114.415 124.621 136.112  0.00  0.00    +0.000 A 
ATOM     17  C   UNL     1     114.621 125.231 137.387  0.00  0.00    +0.000 A 
ATOM     18  C   UNL     1     114.915 124.985 136.656  0.00  0.00    +0.000 A 
ENDBRANCH  11  13
ENDBRANCH   9  10
ENDBRANCH   6   9
BRANCH   2  19
ATOM     19  O   UNL     1     109.015 127.566 136.879  0.00  0.00    +0.000 OA
BRANCH  19  28
ATOM     20  O   UNL     1     110.025 128.551 136.646  0.00  0.00    +0.000 OA
ATOM     21  O   UNL     1     109.971 130.410 135.504  0.00  0.00    +0.000 OA
ATOM     22  O   UNL     1     108.430 129.863 135.283  0.00  0.00    +0.000 OA
ATOM     23  O   UNL     1     107.953 128.441 135.971  0.00  0.00    +0.000 OA
ATOM     24  C   UNL     1     110.264 129.261 136.302  0.00  0.00    +0.000 C 
ATOM     25  C   UNL     1     109.732 129.699 135.847  0.00  0.00    +0.000 C 
ATOM     26  C   UNL     1     108.962 129.426 135.737  0.00  0.00    +0.000 C 
ATOM     27  C   UNL     1     108.723 128.715 136.081  0.00  0.00    +0.000 C 
ATOM     28  C   UNL     1     109.254 128.277 136.535  0.00  0.00    +0.000 C 
BRANCH  24  29
ATOM     29  C   UNL     1     111.034 129.534 136.412  0.00  0.00    +0.000 C 
BRANCH  29  30
ATOM     30  O   UNL     1     111.669 129.011 136.355  0.00  0.00    +0.000 OA
BRANCH  30  37
ATOM     31  O   UNL     1     112.602 130.000 136.796  0.00  0.00    +0.000 OA
ATOM     32  O   UNL     1     112.899 128.167 135.649  0.00  0.00    +0.000 OA
ATOM     33  O   UNL     1     114.446 128.734 135.736  0.00  0.00    +0.000 OA
ATOM     34  O   UNL     1     114.763 130.145 136.531  0.00  0.00    +0.000 OA
ATOM     35  C   UNL     1     113.058 128.873 136.046  0.00  0.00    +0.000 C 
ATOM     36  C   UNL     1     113.831 129.156 136.090  0.00  0.00    +0.000 C 
ATOM     37  C   UNL     1     112.443 129.295 136.399  0.00  0.00    +0.000 C 
ATOM     38  C   UNL     1     113.990 129.862 136.487  0.00  0.00    +0.000 C 
ATOM     39  C   UNL     1     113.376 130.284 136.840  0.00  0.00    +0.000 C 
BRANCH  39  41
ATOM     40  O   UNL     1     113.087 131.200 137.898  0.00  0.00    +0.000 OA
ATOM     41  C   UNL     1     113.534 130.989 137.237  0.00  0.00    +0.000 C 
ENDBRANCH  39  41
ENDBRANCH  30  37
ENDBRANCH  29  30
ENDBRANCH  24  29
ENDBRANCH  19  28
ENDBRANCH   2  19
BRANCH   3  42
ATOM     42  O   UNL     1     110.725 126.010 138.560  0.00  0.00    +0.000 OA
BRANCH  42  51
ATOM     43  O   UNL     1     111.395 127.052 139.270  0.00  0.00    +0.000 OA
ATOM     44  O   UNL     1     110.442 126.218 141.396  0.00  0.00    +0.000 OA
ATOM     45  O   UNL     1     111.431 127.539 141.397  0.00  0.00    +0.000 OA
ATOM     46  O   UNL     1     110.089 125.453 139.977  0.00  0.00    +0.000 OA
ATOM     47  C   UNL     1     110.760 126.496 140.687  0.00  0.00    +0.000 C 
ATOM     48  C   UNL     1     111.255 127.157 140.688  0.00  0.00    +0.000 C 
ATOM     49  C   UNL     1     110.583 126.114 139.978  0.00  0.00    +0.000 C 
ATOM     50  C   UNL     1     111.572 127.435 139.980  0.00  0.00    +0.000 C 
ATOM     51  C   UNL     1     110.901 126.392 139.270  0.00  0.00    +0.000 C 
BRANCH  50  53
ATOM     52  O   UNL     1     112.749 128.100 139.518  0.00  0.00    +0.000 OA
ATOM     53  C   UNL     1     112.066 128.096 139.980  0.00  0.00    +0.000 C 
ENDBRANCH  50  53
ENDBRANCH  42  51
ENDBRANCH   3  42
TORSDOF 12
ENDMDL
MODEL 3
REMARK VINA RESULT:     -10.3      1.915      3.837
REMARK  Name = 42607607
REMARK  12 active torsions:
REMARK  status: ('A' for Active; 'I' for Inactive)
REMARK    1  A    between atoms: O_3  and  C_27
REMARK    2  A    between atoms: O_3  and  C_31
REMARK    3  A    between atoms: O_5  and  C_30
REMARK    4  A    between atoms: O_5  and  C_39
REMARK    5  A    between atoms: O_12  and  C_36
REMARK    6  A    between atoms: O_12  and  C_40
REMARK    7  A    between atoms: C_21  and  C_31
REMARK    8  A    between atoms: C_29  and  C_37
REMARK    9  A    between atoms: C_35  and  C_38
REMARK   10  A    between atoms: C_43  and  C_45
REMARK   11  A    between atoms: C_45  and  C_46
REMARK   12  A    between atoms: C_47  and  C_48
REMARK                            x       y       z     vdW  Elec       q    Type
REMARK                         _______ _______ _______ _____ _____    ______ ____
ROOT
ATOM      1  O   UNL     1     114.549 126.455 139.132  0.00  0.00    +0.000 OA
ATOM      2  C   UNL     1     112.648 125.801 138.281  0.00  0.00    +0.000 A 
ATOM      3  C   UNL     1     112.400 126.467 139.521  0.00  0.00    +0.000 A 
ATOM      4  C   UNL     1     112.120 126.070 138.854  0.00  0.00    +0.000 A 
ATOM      5  C   UNL     1     113.457 125.929 138.374  0.00  0.00    +0.000 A 
ATOM      6  C   UNL     1     113.210 126.595 139.613  0.00  0.00    +0.000 A 
ATOM      7  C   UNL     1     113.739 126.326 139.040  0.00  0.00    +0.000 A 
ENDROOT
BRANCH   6   9
ATOM      8  O   UNL     1     113.690 126.843 141.067  0.00  0.00    +0.000 OA
ATOM      9  C   UNL     1     113.492 126.992 140.279  0.00  0.00    +0.000 C 
BRANCH   9  10
ATOM     10  C   UNL     1     113.657 127.800 140.240  0.00  0.00    +0.000 C 
ATOM     11  C   UNL     1     113.945 128.194 140.905  0.00  0.00    +0.000 C 
BRANCH  11  13
ATOM     12  O   UNL     1     114.605 131.424 140.747  0.00  0.00    +0.000 OA
ATOM     13  C   UNL     1     114.110 129.002 140.866  0.00  0.00    +0.000 A 
ATOM     14  C   UNL     1     114.838 129.261 140.579  0.00  0.00    +0.000 A 
ATOM     15  C   UNL     1     113.545 129.551 141.113  0.00  0.00    +0.000 A 
ATOM     16  C   UNL     1     115.003 130.068 140.539  0.00  0.00    +0.000 A 
ATOM     17  C   UNL     1     113.710 130.359 141.074  0.00  0.00    +0.000 A 
ATOM     18  C   UNL     1     114.440 130.617 140.787  0.00  0.00    +0.000 A 
ENDBRANCH  11  13
ENDBRANCH   9  10
ENDBRANCH   6   9
BRANCH   2  19
ATOM     19  O   UNL     1     112.367 125.404 137.614  0.00  0.00    +0.000 OA
BRANCH  19  28
ATOM     20  O   UNL     1     112.342 126.575 136.794  0.00  0.00    +0.000 OA
ATOM     21  O   UNL     1     111.065 127.109 135.107  0.00  0.00    +0.000 OA
ATOM     22  O   UNL     1     110.465 125.622 135.493  0.00  0.00    +0.000 OA
ATOM     23  O   UNL     1     111.117 124.769 136.746  0.00  0.00    +0.000 OA
ATOM     24  C   UNL     1     112.016 127.001 136.167  0.00  0.00    +0.000 C 
ATOM     25  C   UNL     1     111.390 126.683 135.734  0.00  0.00    +0.000 C 
ATOM     26  C   UNL     1     111.090 125.939 135.926  0.00  0.00    +0.000 C 
ATOM     27  C   UNL     1     111.416 125.513 136.553  0.00  0.00    +0.000 C 
ATOM     28  C   UNL     1     112.041 125.830 136.987  0.00  0.00    +0.000 C 
BRANCH  24  29
ATOM     29  C   UNL     1     112.316 127.744 135.975  0.00  0.00    +0.000 C 
BRANCH  29  30
ATOM     30  O   UNL     1     112.398 128.320 136.560  0.00  0.00    +0.000 OA
BRANCH  30  37
ATOM     31  O   UNL     1     113.431 128.951 135.801  0.00  0.00    +0.000 OA
ATOM     32  O   UNL     1     112.437 129.562 137.646  0.00  0.00    +0.000 OA
ATOM     33  O   UNL     1     113.491 130.813 137.430  0.00  0.00    +0.000 OA
ATOM     34  O   UNL     1     114.504 130.824 136.128  0.00  0.00    +0.000 OA
ATOM     35  C   UNL     1     112.945 129.567 136.995  0.00  0.00    +0.000 C 
ATOM     36  C   UNL     1     113.471 130.193 136.887  0.00  0.00    +0.000 C 
ATOM     37  C   UNL     1     112.925 128.947 136.452  0.00  0.00    +0.000 C 
ATOM     38  C   UNL     1     113.978 130.198 136.236  0.00  0.00    +0.000 C 
ATOM     39  C   UNL     1     113.958 129.578 135.693  0.00  0.00    +0.000 C 
BRANCH  39  41
ATOM     40  O   UNL     1     114.837 128.886 134.804  0.00  0.00    +0.000 OA
ATOM     41  C   UNL     1     114.464 129.582 135.042  0.00  0.00    +0.000 C 
ENDBRANCH  39  41
ENDBRANCH  30  37
ENDBRANCH  29  30
ENDBRANCH  24  29
ENDBRANCH  19  28
ENDBRANCH   2  19
BRANCH   3  42
ATOM     42  O   UNL     1     111.872 126.736 140.094  0.00  0.00    +0.000 OA
BRANCH  42  51
ATOM     43  O   UNL     1     110.747 127.514 139.682  0.00  0.00    +0.000 OA
ATOM     44  O   UNL     1     109.352 126.409 141.403  0.00  0.00    +0.000 OA
ATOM     45  O   UNL     1     108.692 127.556 140.417  0.00  0.00    +0.000 OA
ATOM     46  O   UNL     1     110.942 125.999 141.241  0.00  0.00    +0.000 OA
ATOM     47  C   UNL     1     109.818 126.777 140.829  0.00  0.00    +0.000 C 
ATOM     48  C   UNL     1     109.487 127.352 140.336  0.00  0.00    +0.000 C 
ATOM     49  C   UNL     1     110.612 126.573 140.748  0.00  0.00    +0.000 C 
ATOM     50  C   UNL     1     109.951 127.720 139.763  0.00  0.00    +0.000 C 
ATOM     51  C   UNL     1     111.077 126.941 140.175  0.00  0.00    +0.000 C 
BRANCH  50  53
ATOM     52  O   UNL     1     109.581 128.164 138.457  0.00  0.00    +0.000 OA
ATOM     53  C   UNL     1     109.621 128.293 139.270  0.00  0.00    +0.000 C 
ENDBRANCH  50  53
ENDBRANCH  42  51
ENDBRANCH   3  42
TORSDOF 12
ENDMDL
MODEL 4
REMARK VINA RESULT:     -10.1      1.885      5.188
REMARK  Name = 42607607
REMARK  12 active torsions:
REMARK  status: ('A' for Active; 'I' for Inactive)
REMARK    1  A    between atoms: O_3  and  C_27
REMARK    2  A    between atoms: O_3  and  C_31
REMARK    3  A    between atoms: O_5  and  C_30
REMARK    4  A    between atoms: O_5  and  C_39
REMARK    5  A    between atoms: O_12  and  C_36
REMARK    6  A    between atoms: O_12  and  C_40
REMARK    7  A    between atoms: C_21  and  C_31
REMARK    8  A    between atoms: C_29  and  C_37
REMARK    9  A    between atoms: C_35  and  C_38
REMARK   10  A    between atoms: C_43  and  C_45
REMARK   11  A    between atoms: C_45  and  C_46
REMARK   12  A    between atoms: C_47  and  C_48
REMARK                            x       y       z     vdW  Elec       q    Type
REMARK                         _______ _______ _______ _____ _____    ______ ____
ROOT
ATOM      1  O   UNL     1     111.124 130.887 139.258  0.00  0.00    +0.000 OA
ATOM      2  C   UNL     1     110.999 130.882 137.078  0.00  0.00    +0.000 A 
ATOM      3  C   UNL     1     112.333 130.553 137.470  0.00  0.00    +0.000 A 
ATOM      4  C   UNL     1     111.773 130.684 136.878  0.00  0.00    +0.000 A 
ATOM      5  C   UNL     1     110.782 130.950 137.872  0.00  0.00    +0.000 A 
ATOM      6  C   UNL     1     112.117 130.621 138.264  0.00  0.00    +0.000 A 
ATOM      7  C   UNL     1     111.341 130.819 138.465  0.00  0.00    +0.000 A 
ENDROOT
BRANCH   6   9
ATOM      8  O   UNL     1     113.298 130.880 139.234  0.00  0.00    +0.000 OA
ATOM      9  C   UNL     1     112.675 130.491 138.856  0.00  0.00    +0.000 C 
BRANCH   9  10
ATOM     10  C   UNL     1     112.693 129.770 139.256  0.00  0.00    +0.000 C 
ATOM     11  C   UNL     1     113.266 129.632 139.833  0.00  0.00    +0.000 C 
BRANCH  11  13
ATOM     12  O   UNL     1     113.336 126.747 141.433  0.00  0.00    +0.000 OA
ATOM     13  C   UNL     1     113.284 128.911 140.233  0.00  0.00    +0.000 A 
ATOM     14  C   UNL     1     112.968 128.852 140.993  0.00  0.00    +0.000 A 
ATOM     15  C   UNL     1     113.618 128.247 139.873  0.00  0.00    +0.000 A 
ATOM     16  C   UNL     1     112.985 128.131 141.393  0.00  0.00    +0.000 A 
ATOM     17  C   UNL     1     113.635 127.525 140.273  0.00  0.00    +0.000 A 
ATOM     18  C   UNL     1     113.318 127.468 141.033  0.00  0.00    +0.000 A 
ENDBRANCH  11  13
ENDBRANCH   9  10
ENDBRANCH   6   9
BRANCH   2  19
ATOM     19  O   UNL     1     110.439 131.012 136.486  0.00  0.00    +0.000 OA
BRANCH  19  28
ATOM     20  O   UNL     1     110.057 129.642 136.345  0.00  0.00    +0.000 OA
ATOM     21  O   UNL     1     108.127 128.738 135.874  0.00  0.00    +0.000 OA
ATOM     22  O   UNL     1     107.736 130.340 135.850  0.00  0.00    +0.000 OA
ATOM     23  O   UNL     1     108.891 131.477 136.156  0.00  0.00    +0.000 OA
ATOM     24  C   UNL     1     109.479 129.073 136.192  0.00  0.00    +0.000 C 
ATOM     25  C   UNL     1     108.705 129.307 136.027  0.00  0.00    +0.000 C 
ATOM     26  C   UNL     1     108.509 130.107 136.015  0.00  0.00    +0.000 C 
ATOM     27  C   UNL     1     109.087 130.676 136.168  0.00  0.00    +0.000 C 
ATOM     28  C   UNL     1     109.861 130.444 136.333  0.00  0.00    +0.000 C 
BRANCH  24  29
ATOM     29  C   UNL     1     109.675 128.273 136.205  0.00  0.00    +0.000 C 
BRANCH  29  30
ATOM     30  O   UNL     1     109.981 127.934 136.892  0.00  0.00    +0.000 OA
BRANCH  30  37
ATOM     31  O   UNL     1     110.244 126.724 136.178  0.00  0.00    +0.000 OA
ATOM     32  O   UNL     1     110.610 127.262 138.261  0.00  0.00    +0.000 OA
ATOM     33  O   UNL     1     111.189 125.717 138.232  0.00  0.00    +0.000 OA
ATOM     34  O   UNL     1     111.137 124.843 136.833  0.00  0.00    +0.000 OA
ATOM     35  C   UNL     1     110.585 126.825 137.562  0.00  0.00    +0.000 C 
ATOM     36  C   UNL     1     110.874 126.053 137.547  0.00  0.00    +0.000 C 
ATOM     37  C   UNL     1     110.270 127.160 136.877  0.00  0.00    +0.000 C 
ATOM     38  C   UNL     1     110.849 125.615 136.848  0.00  0.00    +0.000 C 
ATOM     39  C   UNL     1     110.534 125.951 136.163  0.00  0.00    +0.000 C 
BRANCH  39  41
ATOM     40  O   UNL     1     109.831 125.530 134.992  0.00  0.00    +0.000 OA
ATOM     41  C   UNL     1     110.508 125.515 135.464  0.00  0.00    +0.000 C 
ENDBRANCH  39  41
ENDBRANCH  30  37
ENDBRANCH  29  30
ENDBRANCH  24  29
ENDBRANCH  19  28
ENDBRANCH   2  19
BRANCH   3  42
ATOM     42  O   UNL     1     113.108 130.356 137.270  0.00  0.00    +0.000 OA
BRANCH  42  51
ATOM     43  O   UNL     1     113.404 129.188 136.501  0.00  0.00    +0.000 OA
ATOM     44  O   UNL     1     115.048 130.477 135.175  0.00  0.00    +0.000 OA
ATOM     45  O   UNL     1     114.795 128.879 134.848  0.00  0.00    +0.000 OA
ATOM     46  O   UNL     1     114.204 131.215 136.385  0.00  0.00    +0.000 OA
ATOM     47  C   UNL     1     114.500 130.048 135.617  0.00  0.00    +0.000 C 
ATOM     48  C   UNL     1     114.374 129.248 135.453  0.00  0.00    +0.000 C 
ATOM     49  C   UNL     1     114.078 130.416 136.222  0.00  0.00    +0.000 C 
ATOM     50  C   UNL     1     113.826 128.818 135.895  0.00  0.00    +0.000 C 
ATOM     51  C   UNL     1     113.530 129.987 136.664  0.00  0.00    +0.000 C 
BRANCH  50  53
ATOM     52  O   UNL     1     113.728 127.465 136.342  0.00  0.00    +0.000 OA
ATOM     53  C   UNL     1     113.699 128.020 135.732  0.00  0.00    +0.000 C 
ENDBRANCH  50  53
ENDBRANCH  42  51
ENDBRANCH   3  42
TORSDOF 12
ENDMDL
MODEL 5
REMARK VINA RESULT:     -10.1      1.366      3.975
REMARK  Name = 42607607
REMARK  12 active torsions:
REMARK  status: ('A' for Active; 'I' for Inactive)
REMARK    1  A    between atoms: O_3  and  C_27
REMARK    2  A    between atoms: O_3  and  C_31
REMARK    3  A    between atoms: O_5  and  C_30
REMARK    4  A    between atoms: O_5  and  C_39
REMARK    5  A    between atoms: O_12  and  C_36
REMARK    6  A    between atoms: O_12  and  C_40
REMARK    7  A    between atoms: C_21  and  C_31
REMARK    8  A    between atoms: C_29  and  C_37
REMARK    9  A    between atoms: C_35  and  C_38
REMARK   10  A    between atoms: C_43  and  C_45
REMARK   11  A    between atoms: C_45  and  C_46
REMARK   12  A    between atoms: C_47  and  C_48
REMARK                            x       y       z     vdW  Elec       q    Type
REMARK                         _______ _______ _______ _____ _____    ______ ____
ROOT
ATOM      1  O   UNL     1     112.735 128.207 134.710  0.00  0.00    +0.000 OA
ATOM      2  C   UNL     1     111.756 129.750 135.906  0.00  0.00    +0.000 A 
ATOM      3  C   UNL     1     112.925 129.298 136.592  0.00  0.00    +0.000 A 
ATOM      4  C   UNL     1     112.262 129.787 136.556  0.00  0.00    +0.000 A 
ATOM      5  C   UNL     1     111.914 129.223 135.290  0.00  0.00    +0.000 A 
ATOM      6  C   UNL     1     113.083 128.772 135.977  0.00  0.00    +0.000 A 
ATOM      7  C   UNL     1     112.577 128.734 135.325  0.00  0.00    +0.000 A 
ENDROOT
BRANCH   6   9
ATOM      8  O   UNL     1     114.553 128.298 135.836  0.00  0.00    +0.000 OA
ATOM      9  C   UNL     1     113.747 128.283 136.012  0.00  0.00    +0.000 C 
BRANCH   9  10
ATOM     10  C   UNL     1     113.678 127.513 136.302  0.00  0.00    +0.000 C 
ATOM     11  C   UNL     1     114.331 127.009 136.292  0.00  0.00    +0.000 C 
BRANCH  11  13
ATOM     12  O   UNL     1     114.056 123.933 137.453  0.00  0.00    +0.000 OA
ATOM     13  C   UNL     1     114.262 126.240 136.582  0.00  0.00    +0.000 A 
ATOM     14  C   UNL     1     114.309 126.099 137.394  0.00  0.00    +0.000 A 
ATOM     15  C   UNL     1     114.146 125.610 136.061  0.00  0.00    +0.000 A 
ATOM     16  C   UNL     1     114.240 125.330 137.684  0.00  0.00    +0.000 A 
ATOM     17  C   UNL     1     114.077 124.841 136.351  0.00  0.00    +0.000 A 
ATOM     18  C   UNL     1     114.124 124.702 137.163  0.00  0.00    +0.000 A 
ENDBRANCH  11  13
ENDBRANCH   9  10
ENDBRANCH   6   9
BRANCH   2  19
ATOM     19  O   UNL     1     111.092 130.238 135.869  0.00  0.00    +0.000 OA
BRANCH  19  28
ATOM     20  O   UNL     1     110.258 129.316 136.574  0.00  0.00    +0.000 OA
ATOM     21  O   UNL     1     108.100 129.002 136.506  0.00  0.00    +0.000 OA
ATOM     22  O   UNL     1     108.271 130.228 135.416  0.00  0.00    +0.000 OA
ATOM     23  O   UNL     1     109.768 130.846 135.098  0.00  0.00    +0.000 OA
ATOM     24  C   UNL     1     109.510 129.007 136.733  0.00  0.00    +0.000 C 
ATOM     25  C   UNL     1     108.848 129.311 136.347  0.00  0.00    +0.000 C 
ATOM     26  C   UNL     1     108.933 129.924 135.802  0.00  0.00    +0.000 C 
ATOM     27  C   UNL     1     109.681 130.233 135.643  0.00  0.00    +0.000 C 
ATOM     28  C   UNL     1     110.344 129.929 136.028  0.00  0.00    +0.000 C 
BRANCH  24  29
ATOM     29  C   UNL     1     109.425 128.394 137.278  0.00  0.00    +0.000 C 
BRANCH  29  30
ATOM     30  O   UNL     1     109.815 127.678 137.158  0.00  0.00    +0.000 OA
BRANCH  30  37
ATOM     31  O   UNL     1     109.527 127.292 138.503  0.00  0.00    +0.000 OA
ATOM     32  O   UNL     1     110.692 126.295 136.949  0.00  0.00    +0.000 OA
ATOM     33  O   UNL     1     110.842 125.218 138.190  0.00  0.00    +0.000 OA
ATOM     34  O   UNL     1     110.115 125.523 139.640  0.00  0.00    +0.000 OA
ATOM     35  C   UNL     1     110.329 126.447 137.674  0.00  0.00    +0.000 C 
ATOM     36  C   UNL     1     110.404 125.909 138.294  0.00  0.00    +0.000 C 
ATOM     37  C   UNL     1     109.891 127.138 137.778  0.00  0.00    +0.000 C 
ATOM     38  C   UNL     1     110.041 126.061 139.020  0.00  0.00    +0.000 C 
ATOM     39  C   UNL     1     109.602 126.752 139.124  0.00  0.00    +0.000 C 
BRANCH  39  41
ATOM     40  O   UNL     1     109.119 127.684 140.094  0.00  0.00    +0.000 OA
ATOM     41  C   UNL     1     109.238 126.906 139.848  0.00  0.00    +0.000 C 
ENDBRANCH  39  41
ENDBRANCH  30  37
ENDBRANCH  29  30
ENDBRANCH  24  29
ENDBRANCH  19  28
ENDBRANCH   2  19
BRANCH   3  42
ATOM     42  O   UNL     1     113.431 129.336 137.242  0.00  0.00    +0.000 OA
BRANCH  42  51
ATOM     43  O   UNL     1     112.966 129.141 138.579  0.00  0.00    +0.000 OA
ATOM     44  O   UNL     1     114.321 131.070 139.333  0.00  0.00    +0.000 OA
ATOM     45  O   UNL     1     113.403 130.231 140.419  0.00  0.00    +0.000 OA
ATOM     46  O   UNL     1     114.335 130.622 137.745  0.00  0.00    +0.000 OA
ATOM     47  C   UNL     1     113.869 130.427 139.081  0.00  0.00    +0.000 C 
ATOM     48  C   UNL     1     113.410 130.007 139.625  0.00  0.00    +0.000 C 
ATOM     49  C   UNL     1     113.876 130.203 138.288  0.00  0.00    +0.000 C 
ATOM     50  C   UNL     1     112.958 129.365 139.374  0.00  0.00    +0.000 C 
ATOM     51  C   UNL     1     113.424 129.560 138.037  0.00  0.00    +0.000 C 
BRANCH  50  53
ATOM     52  O   UNL     1     112.556 128.124 139.956  0.00  0.00    +0.000 OA
ATOM     53  C   UNL     1     112.500 128.946 139.917  0.00  0.00    +0.000 C 
ENDBRANCH  50  53
ENDBRANCH  42  51
ENDBRANCH   3  42
TORSDOF 12
ENDMDL
MODEL 6
REMARK VINA RESULT:     -10.1      1.782      5.408
REMARK  Name = 42607607
REMARK  12 active torsions:
REMARK  status: ('A' for Active; 'I' for Inactive)
REMARK    1  A    between atoms: O_3  and  C_27
REMARK    2  A    between atoms: O_3  and  C_31
REMARK    3  A    between atoms: O_5  and  C_30
REMARK    4  A    between atoms: O_5  and  C_39
REMARK    5  A    between atoms: O_12  and  C_36
REMARK    6  A    between atoms: O_12  and  C_40
REMARK    7  A    between atoms: C_21  and  C_31
REMARK    8  A    between atoms: C_29  and  C_37
REMARK    9  A    between atoms: C_35  and  C_38
REMARK   10  A    between atoms: C_43  and  C_45
REMARK   11  A    between atoms: C_45  and  C_46
REMARK   12  A    between atoms: C_47  and  C_48
REMARK                            x       y       z     vdW  Elec       q    Type
REMARK                         _______ _______ _______ _____ _____    ______ ____
ROOT
ATOM      1  O   UNL     1     113.159 129.124 135.721  0.00  0.00    +0.000 OA
ATOM      2  C   UNL     1     112.972 130.162 137.633  0.00  0.00    +0.000 A 
ATOM      3  C   UNL     1     111.689 130.100 137.007  0.00  0.00    +0.000 A 
ATOM      4  C   UNL     1     112.165 130.332 137.639  0.00  0.00    +0.000 A 
ATOM      5  C   UNL     1     113.303 129.759 136.993  0.00  0.00    +0.000 A 
ATOM      6  C   UNL     1     112.020 129.698 136.368  0.00  0.00    +0.000 A 
ATOM      7  C   UNL     1     112.828 129.527 136.360  0.00  0.00    +0.000 A 
ENDROOT
BRANCH   6   9
ATOM      8  O   UNL     1     111.235 129.769 135.032  0.00  0.00    +0.000 OA
ATOM      9  C   UNL     1     111.544 129.465 135.735  0.00  0.00    +0.000 C 
BRANCH   9  10
ATOM     10  C   UNL     1     111.233 128.702 135.711  0.00  0.00    +0.000 C 
ATOM     11  C   UNL     1     110.780 128.461 135.064  0.00  0.00    +0.000 C 
BRANCH  11  13
ATOM     12  O   UNL     1     109.534 125.407 134.968  0.00  0.00    +0.000 OA
ATOM     13  C   UNL     1     110.468 127.698 135.040  0.00  0.00    +0.000 A 
ATOM     14  C   UNL     1     110.869 127.101 134.636  0.00  0.00    +0.000 A 
ATOM     15  C   UNL     1     109.755 127.531 135.421  0.00  0.00    +0.000 A 
ATOM     16  C   UNL     1     110.558 126.337 134.612  0.00  0.00    +0.000 A 
ATOM     17  C   UNL     1     109.444 126.767 135.397  0.00  0.00    +0.000 A 
ATOM     18  C   UNL     1     109.846 126.171 134.992  0.00  0.00    +0.000 A 
ENDBRANCH  11  13
ENDBRANCH   9  10
ENDBRANCH   6   9
BRANCH   2  19
ATOM     19  O   UNL     1     113.449 130.394 138.265  0.00  0.00    +0.000 OA
BRANCH  19  28
ATOM     20  O   UNL     1     113.272 129.112 138.873  0.00  0.00    +0.000 OA
ATOM     21  O   UNL     1     113.893 128.361 140.826  0.00  0.00    +0.000 OA
ATOM     22  O   UNL     1     114.467 129.906 140.890  0.00  0.00    +0.000 OA
ATOM     23  O   UNL     1     114.245 130.922 139.609  0.00  0.00    +0.000 OA
ATOM     24  C   UNL     1     113.384 128.604 139.514  0.00  0.00    +0.000 C 
ATOM     25  C   UNL     1     113.782 128.869 140.186  0.00  0.00    +0.000 C 
ATOM     26  C   UNL     1     114.069 129.641 140.218  0.00  0.00    +0.000 C 
ATOM     27  C   UNL     1     113.958 130.150 139.578  0.00  0.00    +0.000 C 
ATOM     28  C   UNL     1     113.560 129.886 138.905  0.00  0.00    +0.000 C 
BRANCH  24  29
ATOM     29  C   UNL     1     113.097 127.832 139.481  0.00  0.00    +0.000 C 
BRANCH  29  30
ATOM     30  O   UNL     1     112.296 127.695 139.338  0.00  0.00    +0.000 OA
BRANCH  30  37
ATOM     31  O   UNL     1     112.560 126.622 138.432  0.00  0.00    +0.000 OA
ATOM     32  O   UNL     1     110.809 127.057 139.661  0.00  0.00    +0.000 OA
ATOM     33  O   UNL     1     110.329 125.665 138.916  0.00  0.00    +0.000 OA
ATOM     34  O   UNL     1     111.337 124.911 137.849  0.00  0.00    +0.000 OA
ATOM     35  C   UNL     1     111.312 126.679 139.127  0.00  0.00    +0.000 C 
ATOM     36  C   UNL     1     111.073 125.984 138.755  0.00  0.00    +0.000 C 
ATOM     37  C   UNL     1     112.056 126.999 138.966  0.00  0.00    +0.000 C 
ATOM     38  C   UNL     1     111.576 125.607 138.221  0.00  0.00    +0.000 C 
ATOM     39  C   UNL     1     112.320 125.926 138.059  0.00  0.00    +0.000 C 
BRANCH  39  41
ATOM     40  O   UNL     1     113.163 125.976 136.906  0.00  0.00    +0.000 OA
ATOM     41  C   UNL     1     112.824 125.550 137.526  0.00  0.00    +0.000 C 
ENDBRANCH  39  41
ENDBRANCH  30  37
ENDBRANCH  29  30
ENDBRANCH  24  29
ENDBRANCH  19  28
ENDBRANCH   2  19
BRANCH   3  42
ATOM     42  O   UNL     1     110.882 130.270 137.014  0.00  0.00    +0.000 OA
BRANCH  42  51
ATOM     43  O   UNL     1     110.428 131.621 137.113  0.00  0.00    +0.000 OA
ATOM     44  O   UNL     1     108.632 130.906 138.658  0.00  0.00    +0.000 OA
ATOM     45  O   UNL     1     108.777 132.496 138.241  0.00  0.00    +0.000 OA
ATOM     46  O   UNL     1     109.684 129.794 138.045  0.00  0.00    +0.000 OA
ATOM     47  C   UNL     1     109.231 131.144 138.143  0.00  0.00    +0.000 C 
ATOM     48  C   UNL     1     109.303 131.940 137.934  0.00  0.00    +0.000 C 
ATOM     49  C   UNL     1     109.757 130.588 137.836  0.00  0.00    +0.000 C 
ATOM     50  C   UNL     1     109.902 132.179 137.419  0.00  0.00    +0.000 C 
ATOM     51  C   UNL     1     110.355 130.827 137.321  0.00  0.00    +0.000 C 
BRANCH  50  53
ATOM     52  O   UNL     1     110.308 133.180 136.486  0.00  0.00    +0.000 OA
ATOM     53  C   UNL     1     109.974 132.973 137.211  0.00  0.00    +0.000 C 
ENDBRANCH  50  53
ENDBRANCH  42  51
ENDBRANCH   3  42
TORSDOF 12
ENDMDL
MODEL 7
REMARK VINA RESULT:     -10.1      1.638      3.851
REMARK  Name = 42607607
REMARK  12 active torsions:
REMARK  status: ('A' for Active; 'I' for Inactive)
REMARK    1  A    between atoms: O_3  and  C_27
REMARK    2  A    between atoms: O_3  and  C_31
REMARK    3  A    between atoms: O_5  and  C_30
REMARK    4  A    between atoms: O_5  and  C_39
REMARK    5  A    between atoms: O_12  and  C_36
REMARK    6  A    between atoms: O_12  and  C_40
REMARK    7  A    between atoms: C_21  and  C_31
REMARK    8  A    between atoms: C_29  and  C_37
REMARK    9  A    between atoms: C_35  and  C_38
REMARK   10  A    between atoms: C_43  and  C_45
REMARK   11  A    between atoms: C_45  and  C_46
REMARK   12  A    between atoms: C_47  and  C_48
REMARK                            x       y       z     vdW  Elec       q    Type
REMARK                         _______ _______ _______ _____ _____    ______ ____
ROOT
ATOM      1  O   UNL     1     113.512 126.086 138.197  0.00  0.00    +0.000 OA
ATOM      2  C   UNL     1     113.273 127.504 139.839  0.00  0.00    +0.000 A 
ATOM      3  C   UNL     1     112.049 126.789 139.657  0.00  0.00    +0.000 A 
ATOM      4  C   UNL     1     112.492 127.358 140.058  0.00  0.00    +0.000 A 
ATOM      5  C   UNL     1     113.613 127.080 139.218  0.00  0.00    +0.000 A 
ATOM      6  C   UNL     1     112.389 126.364 139.037  0.00  0.00    +0.000 A 
ATOM      7  C   UNL     1     113.172 126.510 138.817  0.00  0.00    +0.000 A 
ENDROOT
BRANCH   6   9
ATOM      8  O   UNL     1     111.707 125.009 138.718  0.00  0.00    +0.000 OA
ATOM      9  C   UNL     1     111.948 125.795 138.636  0.00  0.00    +0.000 C 
BRANCH   9  10
ATOM     10  C   UNL     1     111.597 125.978 137.912  0.00  0.00    +0.000 C 
ATOM     11  C   UNL     1     111.162 125.405 137.508  0.00  0.00    +0.000 C 
BRANCH  11  13
ATOM     12  O   UNL     1     109.758 126.139 134.613  0.00  0.00    +0.000 OA
ATOM     13  C   UNL     1     110.811 125.589 136.784  0.00  0.00    +0.000 A 
ATOM     14  C   UNL     1     110.176 126.115 136.755  0.00  0.00    +0.000 A 
ATOM     15  C   UNL     1     111.094 125.245 136.089  0.00  0.00    +0.000 A 
ATOM     16  C   UNL     1     109.825 126.298 136.031  0.00  0.00    +0.000 A 
ATOM     17  C   UNL     1     110.744 125.429 135.365  0.00  0.00    +0.000 A 
ATOM     18  C   UNL     1     110.109 125.956 135.337  0.00  0.00    +0.000 A 
ENDBRANCH  11  13
ENDBRANCH   9  10
ENDBRANCH   6   9
BRANCH   2  19
ATOM     19  O   UNL     1     113.715 128.074 140.240  0.00  0.00    +0.000 OA
BRANCH  19  28
ATOM     20  O   UNL     1     113.452 129.012 139.193  0.00  0.00    +0.000 OA
ATOM     21  O   UNL     1     114.054 131.097 138.960  0.00  0.00    +0.000 OA
ATOM     22  O   UNL     1     114.749 130.732 140.411  0.00  0.00    +0.000 OA
ATOM     23  O   UNL     1     114.579 129.221 141.051  0.00  0.00    +0.000 OA
ATOM     24  C   UNL     1     113.537 129.768 138.874  0.00  0.00    +0.000 C 
ATOM     25  C   UNL     1     113.969 130.341 139.280  0.00  0.00    +0.000 C 
ATOM     26  C   UNL     1     114.317 130.159 140.005  0.00  0.00    +0.000 C 
ATOM     27  C   UNL     1     114.232 129.403 140.325  0.00  0.00    +0.000 C 
ATOM     28  C   UNL     1     113.800 128.830 139.920  0.00  0.00    +0.000 C 
BRANCH  24  29
ATOM     29  C   UNL     1     113.189 129.949 138.149  0.00  0.00    +0.000 C 
BRANCH  29  30
ATOM     30  O   UNL     1     112.383 129.819 138.034  0.00  0.00    +0.000 OA
BRANCH  30  37
ATOM     31  O   UNL     1     112.480 129.267 136.719  0.00  0.00    +0.000 OA
ATOM     32  O   UNL     1     110.989 130.591 137.606  0.00  0.00    +0.000 OA
ATOM     33  O   UNL     1     110.389 130.425 136.077  0.00  0.00    +0.000 OA
ATOM     34  O   UNL     1     111.184 129.487 134.977  0.00  0.00    +0.000 OA
ATOM     35  C   UNL     1     111.386 130.122 137.055  0.00  0.00    +0.000 C 
ATOM     36  C   UNL     1     111.086 130.039 136.291  0.00  0.00    +0.000 C 
ATOM     37  C   UNL     1     112.083 129.736 137.269  0.00  0.00    +0.000 C 
ATOM     38  C   UNL     1     111.483 129.570 135.741  0.00  0.00    +0.000 C 
ATOM     39  C   UNL     1     112.180 129.184 135.954  0.00  0.00    +0.000 C 
BRANCH  39  41
ATOM     40  O   UNL     1     113.139 128.167 135.659  0.00  0.00    +0.000 OA
ATOM     41  C   UNL     1     112.578 128.715 135.405  0.00  0.00    +0.000 C 
ENDBRANCH  39  41
ENDBRANCH  30  37
ENDBRANCH  29  30
ENDBRANCH  24  29
ENDBRANCH  19  28
ENDBRANCH   2  19
BRANCH   3  42
ATOM     42  O   UNL     1     111.268 126.643 139.877  0.00  0.00    +0.000 OA
BRANCH  42  51
ATOM     43  O   UNL     1     110.313 127.702 139.971  0.00  0.00    +0.000 OA
ATOM     44  O   UNL     1     109.433 126.722 142.067  0.00  0.00    +0.000 OA
ATOM     45  O   UNL     1     108.771 128.108 141.461  0.00  0.00    +0.000 OA
ATOM     46  O   UNL     1     110.681 125.990 141.274  0.00  0.00    +0.000 OA
ATOM     47  C   UNL     1     109.726 127.049 141.368  0.00  0.00    +0.000 C 
ATOM     48  C   UNL     1     109.395 127.742 141.065  0.00  0.00    +0.000 C 
ATOM     49  C   UNL     1     110.350 126.683 140.972  0.00  0.00    +0.000 C 
ATOM     50  C   UNL     1     109.688 128.069 140.367  0.00  0.00    +0.000 C 
ATOM     51  C   UNL     1     110.643 127.009 140.273  0.00  0.00    +0.000 C 
BRANCH  50  53
ATOM     52  O   UNL     1     109.127 128.796 139.274  0.00  0.00    +0.000 OA
ATOM     53  C   UNL     1     109.357 128.761 140.065  0.00  0.00    +0.000 C 
ENDBRANCH  50  53
ENDBRANCH  42  51
ENDBRANCH   3  42
TORSDOF 12
ENDMDL
MODEL 8
REMARK VINA RESULT:     -10.0      1.557      5.250
REMARK  Name = 42607607
REMARK  12 active torsions:
REMARK  status: ('A' for Active; 'I' for Inactive)
REMARK    1  A    between atoms: O_3  and  C_27
REMARK    2  A    between atoms: O_3  and  C_31
REMARK    3  A    between atoms: O_5  and  C_30
REMARK    4  A    between atoms: O_5  and  C_39
REMARK    5  A    between atoms: O_12  and  C_36
REMARK    6  A    between atoms: O_12  and  C_40
REMARK    7  A    between atoms: C_21  and  C_31
REMARK    8  A    between atoms: C_29  and  C_37
REMARK    9  A    between atoms: C_35  and  C_38
REMARK   10  A    between atoms: C_43  and  C_45
REMARK   11  A    between atoms: C_45  and  C_46
REMARK   12  A    between atoms: C_47  and  C_48
REMARK                            x       y       z     vdW  Elec       q    Type
REMARK                         _______ _______ _______ _____ _____    ______ ____
ROOT
ATOM      1  O   UNL     1     113.789 128.288 136.508  0.00  0.00    +0.000 OA
ATOM      2  C   UNL     1     111.836 127.357 136.223  0.00  0.00    +0.000 A 
ATOM      3  C   UNL     1     111.653 128.674 136.745  0.00  0.00    +0.000 A 
ATOM      4  C   UNL     1     111.336 127.960 136.478  0.00  0.00    +0.000 A 
ATOM      5  C   UNL     1     112.653 127.466 136.233  0.00  0.00    +0.000 A 
ATOM      6  C   UNL     1     112.471 128.783 136.755  0.00  0.00    +0.000 A 
ATOM      7  C   UNL     1     112.972 128.179 136.498  0.00  0.00    +0.000 A 
ENDROOT
BRANCH   6   9
ATOM      8  O   UNL     1     112.934 130.263 136.751  0.00  0.00    +0.000 OA
ATOM      9  C   UNL     1     112.789 129.496 137.021  0.00  0.00    +0.000 C 
BRANCH   9  10
ATOM     10  C   UNL     1     113.082 129.557 137.790  0.00  0.00    +0.000 C 
ATOM     11  C   UNL     1     113.361 130.282 138.069  0.00  0.00    +0.000 C 
BRANCH  11  13
ATOM     12  O   UNL     1     114.531 130.524 141.145  0.00  0.00    +0.000 OA
ATOM     13  C   UNL     1     113.653 130.342 138.838  0.00  0.00    +0.000 A 
ATOM     14  C   UNL     1     114.449 130.518 138.964  0.00  0.00    +0.000 A 
ATOM     15  C   UNL     1     113.150 130.227 139.482  0.00  0.00    +0.000 A 
ATOM     16  C   UNL     1     114.742 130.579 139.733  0.00  0.00    +0.000 A 
ATOM     17  C   UNL     1     113.442 130.287 140.250  0.00  0.00    +0.000 A 
ATOM     18  C   UNL     1     114.239 130.463 140.376  0.00  0.00    +0.000 A 
ENDBRANCH  11  13
ENDBRANCH   9  10
ENDBRANCH   6   9
BRANCH   2  19
ATOM     19  O   UNL     1     111.519 126.643 135.956  0.00  0.00    +0.000 OA
BRANCH  19  28
ATOM     20  O   UNL     1     111.361 126.092 137.266  0.00  0.00    +0.000 OA
ATOM     21  O   UNL     1     111.435 124.026 137.965  0.00  0.00    +0.000 OA
ATOM     22  O   UNL     1     111.708 123.819 136.351  0.00  0.00    +0.000 OA
ATOM     23  O   UNL     1     111.750 125.128 135.347  0.00  0.00    +0.000 OA
ATOM     24  C   UNL     1     111.340 125.438 137.768  0.00  0.00    +0.000 C 
ATOM     25  C   UNL     1     111.456 124.680 137.463  0.00  0.00    +0.000 C 
ATOM     26  C   UNL     1     111.593 124.576 136.656  0.00  0.00    +0.000 C 
ATOM     27  C   UNL     1     111.614 125.231 136.154  0.00  0.00    +0.000 C 
ATOM     28  C   UNL     1     111.498 125.989 136.458  0.00  0.00    +0.000 C 
BRANCH  24  29
ATOM     29  C   UNL     1     111.204 125.541 138.575  0.00  0.00    +0.000 C 
BRANCH  29  30
ATOM     30  O   UNL     1     111.725 125.994 139.026  0.00  0.00    +0.000 OA
BRANCH  30  37
ATOM     31  O   UNL     1     110.749 126.083 140.066  0.00  0.00    +0.000 OA
ATOM     32  O   UNL     1     112.799 126.827 139.962  0.00  0.00    +0.000 OA
ATOM     33  O   UNL     1     112.359 127.333 141.470  0.00  0.00    +0.000 OA
ATOM     34  O   UNL     1     110.847 127.005 142.042  0.00  0.00    +0.000 OA
ATOM     35  C   UNL     1     112.042 126.664 140.249  0.00  0.00    +0.000 C 
ATOM     36  C   UNL     1     111.823 126.916 141.002  0.00  0.00    +0.000 C 
ATOM     37  C   UNL     1     111.506 126.247 139.781  0.00  0.00    +0.000 C 
ATOM     38  C   UNL     1     111.066 126.753 141.289  0.00  0.00    +0.000 C 
ATOM     39  C   UNL     1     110.530 126.336 140.821  0.00  0.00    +0.000 C 
BRANCH  39  41
ATOM     40  O   UNL     1     109.514 125.391 141.162  0.00  0.00    +0.000 OA
ATOM     41  C   UNL     1     109.773 126.172 141.106  0.00  0.00    +0.000 C 
ENDBRANCH  39  41
ENDBRANCH  30  37
ENDBRANCH  29  30
ENDBRANCH  24  29
ENDBRANCH  19  28
ENDBRANCH   2  19
BRANCH   3  42
ATOM     42  O   UNL     1     111.154 129.278 137.001  0.00  0.00    +0.000 OA
BRANCH  42  51
ATOM     43  O   UNL     1     110.187 129.815 136.096  0.00  0.00    +0.000 OA
ATOM     44  O   UNL     1     108.556 130.002 137.948  0.00  0.00    +0.000 OA
ATOM     45  O   UNL     1     108.134 130.477 136.425  0.00  0.00    +0.000 OA
ATOM     46  O   UNL     1     110.066 129.403 138.235  0.00  0.00    +0.000 OA
ATOM     47  C   UNL     1     109.100 129.940 137.330  0.00  0.00    +0.000 C 
ATOM     48  C   UNL     1     108.888 130.177 136.568  0.00  0.00    +0.000 C 
ATOM     49  C   UNL     1     109.855 129.640 137.474  0.00  0.00    +0.000 C 
ATOM     50  C   UNL     1     109.432 130.115 135.951  0.00  0.00    +0.000 C 
ATOM     51  C   UNL     1     110.398 129.578 136.857  0.00  0.00    +0.000 C 
BRANCH  50  53
ATOM     52  O   UNL     1     109.801 130.603 134.661  0.00  0.00    +0.000 OA
ATOM     53  C   UNL     1     109.220 130.352 135.190  0.00  0.00    +0.000 C 
ENDBRANCH  50  53
ENDBRANCH  42  51
ENDBRANCH   3  42
TORSDOF 12
ENDMDL
MODEL 9
REMARK VINA RESULT:     -10.0      1.417      4.373
REMARK  Name = 42607607
REMARK  12 active torsions:
REMARK  status: ('A' for Active; 'I' for Inactive)
REMARK    1  A    between atoms: O_3  and  C_27
REMARK    2  A    between atoms: O_3  and  C_31
REMARK    3  A    between atoms: O_5  and  C_30
REMARK    4  A    between atoms: O_5  and  C_39
REMARK    5  A    between atoms: O_12  and  C_36
REMARK    6  A    between atoms: O_12  and  C_40
REMARK    7  A    between atoms: C_21  and  C_31
REMARK    8  A    between atoms: C_29  and  C_37
REMARK    9  A    between atoms: C_35  and  C_38
REMARK   10  A    between atoms: C_43  and  C_45
REMARK   11  A    between atoms: C_45  and  C_46
REMARK   12  A    between atoms: C_47  and  C_48
REMARK                            x       y       z     vdW  Elec       q    Type
REMARK                         _______ _______ _______ _____ _____    ______ ____
ROOT
ATOM      1  O   UNL     1     109.906 126.580 134.854  0.00  0.00    +0.000 OA
ATOM      2  C   UNL     1     111.007 125.323 136.258  0.00  0.00    +0.000 A 
ATOM      3  C   UNL     1     110.097 126.150 136.986  0.00  0.00    +0.000 A 
ATOM      4  C   UNL     1     110.681 125.567 136.975  0.00  0.00    +0.000 A 
ATOM      5  C   UNL     1     110.748 125.660 135.551  0.00  0.00    +0.000 A 
ATOM      6  C   UNL     1     109.838 126.488 136.279  0.00  0.00    +0.000 A 
ATOM      7  C   UNL     1     110.164 126.243 135.561  0.00  0.00    +0.000 A 
ENDROOT
BRANCH   6   9
ATOM      8  O   UNL     1     108.432 127.140 136.321  0.00  0.00    +0.000 OA
ATOM      9  C   UNL     1     109.254 127.070 136.289  0.00  0.00    +0.000 C 
BRANCH   9  10
ATOM     10  C   UNL     1     109.465 127.867 136.261  0.00  0.00    +0.000 C 
ATOM     11  C   UNL     1     108.882 128.445 136.180  0.00  0.00    +0.000 C 
BRANCH  11  13
ATOM     12  O   UNL     1     109.726 131.633 136.069  0.00  0.00    +0.000 OA
ATOM     13  C   UNL     1     109.093 129.242 136.152  0.00  0.00    +0.000 A 
ATOM     14  C   UNL     1     109.162 129.675 136.850  0.00  0.00    +0.000 A 
ATOM     15  C   UNL     1     109.234 129.607 135.425  0.00  0.00    +0.000 A 
ATOM     16  C   UNL     1     109.373 130.473 136.823  0.00  0.00    +0.000 A 
ATOM     17  C   UNL     1     109.445 130.404 135.397  0.00  0.00    +0.000 A 
ATOM     18  C   UNL     1     109.515 130.836 136.097  0.00  0.00    +0.000 A 
ENDBRANCH  11  13
ENDBRANCH   9  10
ENDBRANCH   6   9
BRANCH   2  19
ATOM     19  O   UNL     1     111.591 124.740 136.247  0.00  0.00    +0.000 OA
BRANCH  19  28
ATOM     20  O   UNL     1     112.654 125.694 136.315  0.00  0.00    +0.000 OA
ATOM     21  O   UNL     1     114.697 125.506 137.059  0.00  0.00    +0.000 OA
ATOM     22  O   UNL     1     114.125 123.983 137.329  0.00  0.00    +0.000 OA
ATOM     23  O   UNL     1     112.573 123.600 136.923  0.00  0.00    +0.000 OA
ATOM     24  C   UNL     1     113.430 125.886 136.518  0.00  0.00    +0.000 C 
ATOM     25  C   UNL     1     113.920 125.315 136.856  0.00  0.00    +0.000 C 
ATOM     26  C   UNL     1     113.635 124.553 136.991  0.00  0.00    +0.000 C 
ATOM     27  C   UNL     1     112.859 124.362 136.788  0.00  0.00    +0.000 C 
ATOM     28  C   UNL     1     112.368 124.932 136.450  0.00  0.00    +0.000 C 
BRANCH  24  29
ATOM     29  C   UNL     1     113.715 126.647 136.383  0.00  0.00    +0.000 C 
BRANCH  29  30
ATOM     30  O   UNL     1     113.340 127.296 136.729  0.00  0.00    +0.000 OA
BRANCH  30  37
ATOM     31  O   UNL     1     113.950 128.161 135.770  0.00  0.00    +0.000 OA
ATOM     32  O   UNL     1     112.633 128.598 137.454  0.00  0.00    +0.000 OA
ATOM     33  O   UNL     1     112.889 130.115 136.858  0.00  0.00    +0.000 OA
ATOM     34  O   UNL     1     113.853 130.329 135.536  0.00  0.00    +0.000 OA
ATOM     35  C   UNL     1     113.115 128.706 136.793  0.00  0.00    +0.000 C 
ATOM     36  C   UNL     1     113.243 129.464 136.495  0.00  0.00    +0.000 C 
ATOM     37  C   UNL     1     113.468 128.055 136.430  0.00  0.00    +0.000 C 
ATOM     38  C   UNL     1     113.725 129.572 135.834  0.00  0.00    +0.000 C 
ATOM     39  C   UNL     1     114.078 128.921 135.471  0.00  0.00    +0.000 C 
BRANCH  39  41
ATOM     40  O   UNL     1     115.276 128.621 134.751  0.00  0.00    +0.000 OA
ATOM     41  C   UNL     1     114.560 129.027 134.810  0.00  0.00    +0.000 C 
ENDBRANCH  39  41
ENDBRANCH  30  37
ENDBRANCH  29  30
ENDBRANCH  24  29
ENDBRANCH  19  28
ENDBRANCH   2  19
BRANCH   3  42
ATOM     42  O   UNL     1     109.771 126.395 137.703  0.00  0.00    +0.000 OA
BRANCH  42  51
ATOM     43  O   UNL     1     110.665 126.529 138.810  0.00  0.00    +0.000 OA
ATOM     44  O   UNL     1     108.861 125.829 140.353  0.00  0.00    +0.000 OA
ATOM     45  O   UNL     1     110.357 126.197 140.945  0.00  0.00    +0.000 OA
ATOM     46  O   UNL     1     108.569 125.928 138.732  0.00  0.00    +0.000 OA
ATOM     47  C   UNL     1     109.462 126.062 139.838  0.00  0.00    +0.000 C 
ATOM     48  C   UNL     1     110.211 126.246 140.135  0.00  0.00    +0.000 C 
ATOM     49  C   UNL     1     109.316 126.112 139.028  0.00  0.00    +0.000 C 
ATOM     50  C   UNL     1     110.812 126.480 139.621  0.00  0.00    +0.000 C 
ATOM     51  C   UNL     1     109.918 126.345 138.514  0.00  0.00    +0.000 C 
BRANCH  50  53
ATOM     52  O   UNL     1     112.199 126.169 139.757  0.00  0.00    +0.000 OA
ATOM     53  C   UNL     1     111.559 126.664 139.917  0.00  0.00    +0.000 C 
ENDBRANCH  50  53
ENDBRANCH  42  51
ENDBRANCH   3  42
TORSDOF 12
ENDMDL
MODEL 10
REMARK VINA RESULT:     -10.0      1.358      5.295
REMARK  Name = 42607607
REMARK  12 active torsions:
REMARK  status: ('A' for Active; 'I' for Inactive)
REMARK    1  A    between atoms: O_3  and  C_27
REMARK    2  A    between atoms: O_3  and  C_31
REMARK    3  A    between atoms: O_5  and  C_30
REMARK    4  A    between atoms: O_5  and  C_39
REMARK    5  A    between atoms: O_12  and  C_36
REMARK    6  A    between atoms: O_12  and  C_40
REMARK    7  A    between atoms: C_21  and  C_31
REMARK    8  A    between atoms: C_29  and  C_37
REMARK    9  A    between atoms: C_35  and  C_38
REMARK   10  A    between atoms: C_43  and  C_45
REMARK   11  A    between atoms: C_45  and  C_46
REMARK   12  A    between atoms: C_47  and  C_48
REMARK                            x       y       z     vdW  Elec       q    Type
REMARK                         _______ _______ _______ _____ _____    ______ ____
ROOT
ATOM      1  O   UNL     1     112.651 130.579 139.168  0.00  0.00    +0.000 OA
ATOM      2  C   UNL     1     110.811 129.470 139.558  0.00  0.00    +0.000 A 
ATOM      3  C   UNL     1     110.803 129.927 138.204  0.00  0.00    +0.000 A 
ATOM      4  C   UNL     1     110.439 129.523 138.824  0.00  0.00    +0.000 A 
ATOM      5  C   UNL     1     111.548 129.822 139.672  0.00  0.00    +0.000 A 
ATOM      6  C   UNL     1     111.541 130.279 138.319  0.00  0.00    +0.000 A 
ATOM      7  C   UNL     1     111.914 130.227 139.053  0.00  0.00    +0.000 A 
ENDROOT
BRANCH   6   9
ATOM      8  O   UNL     1     111.891 131.423 137.333  0.00  0.00    +0.000 OA
ATOM      9  C   UNL     1     111.906 130.684 137.699  0.00  0.00    +0.000 C 
BRANCH   9  10
ATOM     10  C   UNL     1     112.484 130.309 137.245  0.00  0.00    +0.000 C 
ATOM     11  C   UNL     1     112.873 130.726 136.648  0.00  0.00    +0.000 C 
BRANCH  11  13
ATOM     12  O   UNL     1     115.183 129.227 134.831  0.00  0.00    +0.000 OA
ATOM     13  C   UNL     1     113.450 130.351 136.194  0.00  0.00    +0.000 A 
ATOM     14  C   UNL     1     114.242 130.567 136.273  0.00  0.00    +0.000 A 
ATOM     15  C   UNL     1     113.236 129.759 135.659  0.00  0.00    +0.000 A 
ATOM     16  C   UNL     1     114.820 130.192 135.819  0.00  0.00    +0.000 A 
ATOM     17  C   UNL     1     113.814 129.385 135.205  0.00  0.00    +0.000 A 
ATOM     18  C   UNL     1     114.606 129.602 135.285  0.00  0.00    +0.000 A 
ENDBRANCH  11  13
ENDBRANCH   9  10
ENDBRANCH   6   9
BRANCH   2  19
ATOM     19  O   UNL     1     110.447 129.066 140.178  0.00  0.00    +0.000 OA
BRANCH  19  28
ATOM     20  O   UNL     1     110.989 127.796 139.807  0.00  0.00    +0.000 OA
ATOM     21  O   UNL     1     111.489 126.048 141.014  0.00  0.00    +0.000 OA
ATOM     22  O   UNL     1     110.925 127.077 142.173  0.00  0.00    +0.000 OA
ATOM     23  O   UNL     1     110.404 128.586 141.755  0.00  0.00    +0.000 OA
ATOM     24  C   UNL     1     111.250 127.042 140.016  0.00  0.00    +0.000 C 
ATOM     25  C   UNL     1     111.228 126.802 140.805  0.00  0.00    +0.000 C 
ATOM     26  C   UNL     1     110.947 127.316 141.385  0.00  0.00    +0.000 C 
ATOM     27  C   UNL     1     110.686 128.071 141.176  0.00  0.00    +0.000 C 
ATOM     28  C   UNL     1     110.707 128.311 140.387  0.00  0.00    +0.000 C 
BRANCH  24  29
ATOM     29  C   UNL     1     111.531 126.528 139.436  0.00  0.00    +0.000 C 
BRANCH  29  30
ATOM     30  O   UNL     1     112.091 126.790 138.889  0.00  0.00    +0.000 OA
BRANCH  30  37
ATOM     31  O   UNL     1     111.886 125.619 138.096  0.00  0.00    +0.000 OA
ATOM     32  O   UNL     1     113.414 127.172 137.981  0.00  0.00    +0.000 OA
ATOM     33  O   UNL     1     113.871 126.193 136.735  0.00  0.00    +0.000 OA
ATOM     34  O   UNL     1     113.004 124.830 136.396  0.00  0.00    +0.000 OA
ATOM     35  C   UNL     1     112.981 126.491 137.811  0.00  0.00    +0.000 C 
ATOM     36  C   UNL     1     113.209 126.001 137.188  0.00  0.00    +0.000 C 
ATOM     37  C   UNL     1     112.319 126.300 138.265  0.00  0.00    +0.000 C 
ATOM     38  C   UNL     1     112.776 125.320 137.018  0.00  0.00    +0.000 C 
ATOM     39  C   UNL     1     112.114 125.128 137.472  0.00  0.00    +0.000 C 
BRANCH  39  41
ATOM     40  O   UNL     1     111.440 123.948 137.915  0.00  0.00    +0.000 OA
ATOM     41  C   UNL     1     111.680 124.448 137.303  0.00  0.00    +0.000 C 
ENDBRANCH  39  41
ENDBRANCH  30  37
ENDBRANCH  29  30
ENDBRANCH  24  29
ENDBRANCH  19  28
ENDBRANCH   2  19
BRANCH   3  42
ATOM     42  O   UNL     1     110.431 129.980 137.470  0.00  0.00    +0.000 OA
BRANCH  42  51
ATOM     43  O   UNL     1     110.007 128.808 136.771  0.00  0.00    +0.000 OA
ATOM     44  O   UNL     1     107.896 129.941 136.151  0.00  0.00    +0.000 OA
ATOM     45  O   UNL     1     108.177 128.391 135.658  0.00  0.00    +0.000 OA
ATOM     46  O   UNL     1     109.023 130.735 137.057  0.00  0.00    +0.000 OA
ATOM     47  C   UNL     1     108.600 129.563 136.358  0.00  0.00    +0.000 C 
ATOM     48  C   UNL     1     108.740 128.788 136.111  0.00  0.00    +0.000 C 
ATOM     49  C   UNL     1     109.163 129.960 136.811  0.00  0.00    +0.000 C 
ATOM     50  C   UNL     1     109.444 128.410 136.317  0.00  0.00    +0.000 C 
ATOM     51  C   UNL     1     109.867 129.583 137.017  0.00  0.00    +0.000 C 
BRANCH  50  53
ATOM     52  O   UNL     1     110.296 127.443 135.702  0.00  0.00    +0.000 OA
ATOM     53  C   UNL     1     109.584 127.636 136.071  0.00  0.00    +0.000 C 
ENDBRANCH  50  53
ENDBRANCH  42  51
ENDBRANCH   3  42
TORSDOF 12
ENDMDL
