MODEL 1
REMARK VINA RESULT:      -9.4      0.000      0.000
REMARK  Name = 
REMARK  12 active torsions:
REMARK  status: ('A' for Active; 'I' for Inactive)
REMARK    1  A    between atoms: O_1  and  C_19
REMARK    2  A    between atoms: O_1  and  C_22
REMARK    3  A    between atoms: O_7  and  C_25
REMARK    4  A    between atoms: O_7  and  C_35
REMARK    5  A    between atoms: O_14  and  C_34
REMARK    6  A    between atoms: O_14  and  C_39
REMARK    7  A    between atoms: C_20  and  C_28
REMARK    8  A    between atoms: C_26  and  C_29
REMARK    9  A    between atoms: C_32  and  C_36
REMARK   10  A    between atoms: C_42  and  C_45
REMARK   11  A    between atoms: C_47  and  C_50
REMARK   12  A    between atoms: C_49  and  C_50
REMARK                            x       y       z     vdW  Elec       q    Type
REMARK                         _______ _______ _______ _____ _____    ______ ____
ROOT
ATOM      1  C   UNL     1     108.190 126.569 141.180  0.00  0.00    +0.000 A 
ATOM      2  C   UNL     1     108.169 127.549 141.378  0.00  0.00    +0.000 A 
ATOM      3  C   UNL     1     109.063 126.081 141.163  0.00  0.00    +0.000 A 
ATOM      4  C   UNL     1     109.021 128.041 141.559  0.00  0.00    +0.000 A 
ATOM      5  C   UNL     1     109.915 126.573 141.344  0.00  0.00    +0.000 A 
ATOM      6  C   UNL     1     109.894 127.553 141.542  0.00  0.00    +0.000 A 
ENDROOT
BRANCH   6   7
ATOM      7  C   UNL     1     110.745 128.045 141.723  0.00  0.00    +0.000 C 
ATOM      8  C   UNL     1     110.855 128.558 142.575  0.00  0.00    +0.000 C 
BRANCH   8  10
ATOM      9  O   UNL     1     112.554 128.764 142.307  0.00  0.00    +0.000 OA
ATOM     10  C   UNL     1     111.707 129.050 142.756  0.00  0.00    +0.000 C 
BRANCH  10  16
ATOM     11  O   UNL     1     111.693 128.736 144.731  0.00  0.00    +0.000 OA
ATOM     12  C   UNL     1     111.720 131.380 144.644  0.00  0.00    +0.000 A 
ATOM     13  C   UNL     1     111.709 130.447 145.002  0.00  0.00    +0.000 A 
ATOM     14  C   UNL     1     111.727 131.537 143.657  0.00  0.00    +0.000 A 
ATOM     15  C   UNL     1     111.704 129.670 144.373  0.00  0.00    +0.000 A 
ATOM     16  C   UNL     1     111.711 129.827 143.385  0.00  0.00    +0.000 A 
ATOM     17  C   UNL     1     111.722 130.760 143.027  0.00  0.00    +0.000 A 
BRANCH  12  18
ATOM     18  O   UNL     1     111.724 132.157 145.274  0.00  0.00    +0.000 OA
BRANCH  18  27
ATOM     19  O   UNL     1     109.997 132.274 145.251  0.00  0.00    +0.000 OA
ATOM     20  O   UNL     1     108.312 133.382 146.963  0.00  0.00    +0.000 OA
ATOM     21  O   UNL     1     110.062 133.762 147.854  0.00  0.00    +0.000 OA
ATOM     22  O   UNL     1     111.768 133.150 147.010  0.00  0.00    +0.000 OA
ATOM     23  C   UNL     1     109.165 133.076 146.541  0.00  0.00    +0.000 C 
ATOM     24  C   UNL     1     110.040 133.266 146.987  0.00  0.00    +0.000 C 
ATOM     25  C   UNL     1     109.143 132.580 145.673  0.00  0.00    +0.000 C 
ATOM     26  C   UNL     1     110.893 132.960 146.564  0.00  0.00    +0.000 C 
ATOM     27  C   UNL     1     110.871 132.464 145.696  0.00  0.00    +0.000 C 
BRANCH  25  29
ATOM     28  O   UNL     1     108.250 132.032 144.294  0.00  0.00    +0.000 OA
ATOM     29  C   UNL     1     108.269 132.390 145.228  0.00  0.00    +0.000 C 
ENDBRANCH  25  29
ENDBRANCH  18  27
ENDBRANCH  12  18
ENDBRANCH  10  16
ENDBRANCH   8  10
ENDBRANCH   6   7
BRANCH   1  30
ATOM     30  O   UNL     1     107.339 126.077 140.999  0.00  0.00    +0.000 OA
BRANCH  30  37
ATOM     31  O   UNL     1     106.807 126.160 142.645  0.00  0.00    +0.000 OA
ATOM     32  O   UNL     1     105.224 123.641 142.260  0.00  0.00    +0.000 OA
ATOM     33  O   UNL     1     105.219 124.563 144.035  0.00  0.00    +0.000 OA
ATOM     34  C   UNL     1     106.281 124.859 141.630  0.00  0.00    +0.000 C 
ATOM     35  C   UNL     1     105.751 124.480 142.388  0.00  0.00    +0.000 C 
ATOM     36  C   UNL     1     105.749 124.942 143.276  0.00  0.00    +0.000 C 
ATOM     37  C   UNL     1     106.809 125.699 141.758  0.00  0.00    +0.000 C 
ATOM     38  C   UNL     1     106.277 125.781 143.404  0.00  0.00    +0.000 C 
BRANCH  38  40
ATOM     39  O   UNL     1     107.120 126.637 144.652  0.00  0.00    +0.000 OA
ATOM     40  C   UNL     1     106.275 126.243 144.291  0.00  0.00    +0.000 C 
ENDBRANCH  38  40
BRANCH  34  41
ATOM     41  O   UNL     1     106.283 124.398 140.742  0.00  0.00    +0.000 OA
BRANCH  41  47
ATOM     42  O   UNL     1     105.006 125.392 139.995  0.00  0.00    +0.000 OA
ATOM     43  O   UNL     1     103.678 124.460 138.296  0.00  0.00    +0.000 OA
ATOM     44  O   UNL     1     105.506 122.943 139.322  0.00  0.00    +0.000 OA
ATOM     45  C   UNL     1     104.429 124.310 138.940  0.00  0.00    +0.000 C 
ATOM     46  C   UNL     1     105.175 123.879 139.446  0.00  0.00    +0.000 C 
ATOM     47  C   UNL     1     105.532 124.548 140.099  0.00  0.00    +0.000 C 
ATOM     48  C   UNL     1     104.325 125.245 139.279  0.00  0.00    +0.000 C 
BRANCH  45  50
ATOM     49  O   UNL     1     103.638 123.443 137.666  0.00  0.00    +0.000 OA
ATOM     50  C   UNL     1     104.296 123.467 138.418  0.00  0.00    +0.000 C 
ENDBRANCH  45  50
ENDBRANCH  41  47
ENDBRANCH  34  41
ENDBRANCH  30  37
ENDBRANCH   1  30
TORSDOF 12
ENDMDL
MODEL 2
REMARK VINA RESULT:      -9.1      2.777      4.036
REMARK  Name = 
REMARK  12 active torsions:
REMARK  status: ('A' for Active; 'I' for Inactive)
REMARK    1  A    between atoms: O_1  and  C_19
REMARK    2  A    between atoms: O_1  and  C_22
REMARK    3  A    between atoms: O_7  and  C_25
REMARK    4  A    between atoms: O_7  and  C_35
REMARK    5  A    between atoms: O_14  and  C_34
REMARK    6  A    between atoms: O_14  and  C_39
REMARK    7  A    between atoms: C_20  and  C_28
REMARK    8  A    between atoms: C_26  and  C_29
REMARK    9  A    between atoms: C_32  and  C_36
REMARK   10  A    between atoms: C_42  and  C_45
REMARK   11  A    between atoms: C_47  and  C_50
REMARK   12  A    between atoms: C_49  and  C_50
REMARK                            x       y       z     vdW  Elec       q    Type
REMARK                         _______ _______ _______ _____ _____    ______ ____
ROOT
ATOM      1  C   UNL     1     111.227 128.749 140.899  0.00  0.00    +0.000 A 
ATOM      2  C   UNL     1     111.900 128.520 141.602  0.00  0.00    +0.000 A 
ATOM      3  C   UNL     1     110.987 129.705 140.729  0.00  0.00    +0.000 A 
ATOM      4  C   UNL     1     112.334 129.247 142.134  0.00  0.00    +0.000 A 
ATOM      5  C   UNL     1     111.421 130.432 141.261  0.00  0.00    +0.000 A 
ATOM      6  C   UNL     1     112.095 130.203 141.963  0.00  0.00    +0.000 A 
ENDROOT
BRANCH   6   7
ATOM      7  C   UNL     1     112.529 130.930 142.495  0.00  0.00    +0.000 C 
ATOM      8  C   UNL     1     112.019 131.392 143.220  0.00  0.00    +0.000 C 
BRANCH   8  10
ATOM      9  O   UNL     1     113.353 132.463 143.487  0.00  0.00    +0.000 OA
ATOM     10  C   UNL     1     112.453 132.119 143.752  0.00  0.00    +0.000 C 
BRANCH  10  16
ATOM     11  O   UNL     1     111.699 133.970 143.677  0.00  0.00    +0.000 OA
ATOM     12  C   UNL     1     111.054 133.267 146.145  0.00  0.00    +0.000 A 
ATOM     13  C   UNL     1     111.143 133.810 145.310  0.00  0.00    +0.000 A 
ATOM     14  C   UNL     1     111.431 132.342 146.183  0.00  0.00    +0.000 A 
ATOM     15  C   UNL     1     111.609 133.427 144.512  0.00  0.00    +0.000 A 
ATOM     16  C   UNL     1     111.986 132.502 144.550  0.00  0.00    +0.000 A 
ATOM     17  C   UNL     1     111.897 131.959 145.385  0.00  0.00    +0.000 A 
BRANCH  12  18
ATOM     18  O   UNL     1     110.587 133.650 146.942  0.00  0.00    +0.000 OA
BRANCH  18  27
ATOM     19  O   UNL     1     109.056 133.143 146.312  0.00  0.00    +0.000 OA
ATOM     20  O   UNL     1     106.660 133.072 147.431  0.00  0.00    +0.000 OA
ATOM     21  O   UNL     1     107.759 133.797 148.936  0.00  0.00    +0.000 OA
ATOM     22  O   UNL     1     109.722 134.086 148.692  0.00  0.00    +0.000 OA
ATOM     23  C   UNL     1     107.642 133.217 147.309  0.00  0.00    +0.000 C 
ATOM     24  C   UNL     1     108.191 133.579 148.061  0.00  0.00    +0.000 C 
ATOM     25  C   UNL     1     108.074 132.999 146.434  0.00  0.00    +0.000 C 
ATOM     26  C   UNL     1     109.173 133.724 147.939  0.00  0.00    +0.000 C 
ATOM     27  C   UNL     1     109.605 133.506 147.064  0.00  0.00    +0.000 C 
BRANCH  25  29
ATOM     28  O   UNL     1     107.822 132.769 144.736  0.00  0.00    +0.000 OA
ATOM     29  C   UNL     1     107.525 132.636 145.681  0.00  0.00    +0.000 C 
ENDBRANCH  25  29
ENDBRANCH  18  27
ENDBRANCH  12  18
ENDBRANCH  10  16
ENDBRANCH   8  10
ENDBRANCH   6   7
BRANCH   1  30
ATOM     30  O   UNL     1     110.792 128.022 140.367  0.00  0.00    +0.000 OA
BRANCH  30  37
ATOM     31  O   UNL     1     109.403 127.903 141.395  0.00  0.00    +0.000 OA
ATOM     32  O   UNL     1     109.170 124.984 140.742  0.00  0.00    +0.000 OA
ATOM     33  O   UNL     1     107.859 125.838 141.987  0.00  0.00    +0.000 OA
ATOM     34  C   UNL     1     109.981 126.503 140.555  0.00  0.00    +0.000 C 
ATOM     35  C   UNL     1     109.248 125.957 140.960  0.00  0.00    +0.000 C 
ATOM     36  C   UNL     1     108.592 126.384 141.582  0.00  0.00    +0.000 C 
ATOM     37  C   UNL     1     110.059 127.476 140.772  0.00  0.00    +0.000 C 
ATOM     38  C   UNL     1     108.670 127.357 141.800  0.00  0.00    +0.000 C 
BRANCH  38  40
ATOM     39  O   UNL     1     108.339 128.341 143.186  0.00  0.00    +0.000 OA
ATOM     40  C   UNL     1     108.014 127.784 142.422  0.00  0.00    +0.000 C 
ENDBRANCH  38  40
BRANCH  34  41
ATOM     41  O   UNL     1     110.637 126.076 139.932  0.00  0.00    +0.000 OA
BRANCH  41  47
ATOM     42  O   UNL     1     109.717 126.542 138.478  0.00  0.00    +0.000 OA
ATOM     43  O   UNL     1     110.373 125.692 136.389  0.00  0.00    +0.000 OA
ATOM     44  O   UNL     1     111.766 124.962 138.443  0.00  0.00    +0.000 OA
ATOM     45  C   UNL     1     110.558 125.713 137.371  0.00  0.00    +0.000 C 
ATOM     46  C   UNL     1     110.972 125.543 138.265  0.00  0.00    +0.000 C 
ATOM     47  C   UNL     1     110.453 126.055 138.949  0.00  0.00    +0.000 C 
ATOM     48  C   UNL     1     109.782 126.331 137.503  0.00  0.00    +0.000 C 
BRANCH  45  50
ATOM     49  O   UNL     1     111.181 124.919 135.964  0.00  0.00    +0.000 OA
ATOM     50  C   UNL     1     111.238 125.119 136.942  0.00  0.00    +0.000 C 
ENDBRANCH  45  50
ENDBRANCH  41  47
ENDBRANCH  34  41
ENDBRANCH  30  37
ENDBRANCH   1  30
TORSDOF 12
ENDMDL
MODEL 3
REMARK VINA RESULT:      -9.1      4.458      6.195
REMARK  Name = 
REMARK  12 active torsions:
REMARK  status: ('A' for Active; 'I' for Inactive)
REMARK    1  A    between atoms: O_1  and  C_19
REMARK    2  A    between atoms: O_1  and  C_22
REMARK    3  A    between atoms: O_7  and  C_25
REMARK    4  A    between atoms: O_7  and  C_35
REMARK    5  A    between atoms: O_14  and  C_34
REMARK    6  A    between atoms: O_14  and  C_39
REMARK    7  A    between atoms: C_20  and  C_28
REMARK    8  A    between atoms: C_26  and  C_29
REMARK    9  A    between atoms: C_32  and  C_36
REMARK   10  A    between atoms: C_42  and  C_45
REMARK   11  A    between atoms: C_47  and  C_50
REMARK   12  A    between atoms: C_49  and  C_50
REMARK                            x       y       z     vdW  Elec       q    Type
REMARK                         _______ _______ _______ _____ _____    ______ ____
ROOT
ATOM      1  C   UNL     1     112.879 127.540 139.500  0.00  0.00    +0.000 A 
ATOM      2  C   UNL     1     111.895 127.385 139.582  0.00  0.00    +0.000 A 
ATOM      3  C   UNL     1     113.402 127.864 140.288  0.00  0.00    +0.000 A 
ATOM      4  C   UNL     1     111.433 127.552 140.453  0.00  0.00    +0.000 A 
ATOM      5  C   UNL     1     112.940 128.031 141.160  0.00  0.00    +0.000 A 
ATOM      6  C   UNL     1     111.956 127.876 141.242  0.00  0.00    +0.000 A 
ENDROOT
BRANCH   6   7
ATOM      7  C   UNL     1     111.495 128.043 142.113  0.00  0.00    +0.000 C 
ATOM      8  C   UNL     1     111.577 128.935 142.559  0.00  0.00    +0.000 C 
BRANCH   8  10
ATOM      9  O   UNL     1     110.349 128.523 143.710  0.00  0.00    +0.000 OA
ATOM     10  C   UNL     1     111.115 129.102 143.430  0.00  0.00    +0.000 C 
BRANCH  10  16
ATOM     11  O   UNL     1     111.545 128.745 145.351  0.00  0.00    +0.000 OA
ATOM     12  C   UNL     1     112.029 131.342 145.205  0.00  0.00    +0.000 A 
ATOM     13  C   UNL     1     111.939 130.417 145.574  0.00  0.00    +0.000 A 
ATOM     14  C   UNL     1     111.814 131.521 144.245  0.00  0.00    +0.000 A 
ATOM     15  C   UNL     1     111.635 129.670 144.982  0.00  0.00    +0.000 A 
ATOM     16  C   UNL     1     111.420 129.849 144.022  0.00  0.00    +0.000 A 
ATOM     17  C   UNL     1     111.509 130.774 143.653  0.00  0.00    +0.000 A 
BRANCH  12  18
ATOM     18  O   UNL     1     112.333 132.088 145.797  0.00  0.00    +0.000 OA
BRANCH  18  27
ATOM     19  O   UNL     1     110.756 132.760 146.044  0.00  0.00    +0.000 OA
ATOM     20  O   UNL     1     109.703 133.983 148.140  0.00  0.00    +0.000 OA
ATOM     21  O   UNL     1     111.543 133.587 148.818  0.00  0.00    +0.000 OA
ATOM     22  O   UNL     1     112.858 132.639 147.646  0.00  0.00    +0.000 OA
ATOM     23  C   UNL     1     110.361 133.509 147.554  0.00  0.00    +0.000 C 
ATOM     24  C   UNL     1     111.281 133.311 147.893  0.00  0.00    +0.000 C 
ATOM     25  C   UNL     1     110.099 133.234 146.630  0.00  0.00    +0.000 C 
ATOM     26  C   UNL     1     111.938 132.837 147.307  0.00  0.00    +0.000 C 
ATOM     27  C   UNL     1     111.676 132.562 146.383  0.00  0.00    +0.000 C 
BRANCH  25  29
ATOM     28  O   UNL     1     109.028 133.586 145.314  0.00  0.00    +0.000 OA
ATOM     29  C   UNL     1     109.179 133.432 146.291  0.00  0.00    +0.000 C 
ENDBRANCH  25  29
ENDBRANCH  18  27
ENDBRANCH  12  18
ENDBRANCH  10  16
ENDBRANCH   8  10
ENDBRANCH   6   7
BRANCH   1  30
ATOM     30  O   UNL     1     113.340 127.373 138.629  0.00  0.00    +0.000 OA
BRANCH  30  37
ATOM     31  O   UNL     1     113.045 129.000 138.113  0.00  0.00    +0.000 OA
ATOM     32  O   UNL     1     113.660 128.215 135.284  0.00  0.00    +0.000 OA
ATOM     33  O   UNL     1     113.160 130.104 135.711  0.00  0.00    +0.000 OA
ATOM     34  C   UNL     1     113.500 127.794 136.956  0.00  0.00    +0.000 C 
ATOM     35  C   UNL     1     113.455 128.477 136.227  0.00  0.00    +0.000 C 
ATOM     36  C   UNL     1     113.205 129.421 136.441  0.00  0.00    +0.000 C 
ATOM     37  C   UNL     1     113.295 128.055 137.899  0.00  0.00    +0.000 C 
ATOM     38  C   UNL     1     113.000 129.682 137.384  0.00  0.00    +0.000 C 
BRANCH  38  40
ATOM     39  O   UNL     1     112.740 130.938 138.548  0.00  0.00    +0.000 OA
ATOM     40  C   UNL     1     112.750 130.627 137.598  0.00  0.00    +0.000 C 
ENDBRANCH  38  40
BRANCH  34  41
ATOM     41  O   UNL     1     113.750 126.850 136.742  0.00  0.00    +0.000 OA
BRANCH  41  47
ATOM     42  O   UNL     1     112.124 126.357 136.202  0.00  0.00    +0.000 OA
ATOM     43  O   UNL     1     111.532 124.085 136.284  0.00  0.00    +0.000 OA
ATOM     44  O   UNL     1     113.911 124.707 137.087  0.00  0.00    +0.000 OA
ATOM     45  C   UNL     1     112.245 124.764 136.459  0.00  0.00    +0.000 C 
ATOM     46  C   UNL     1     113.111 125.186 136.726  0.00  0.00    +0.000 C 
ATOM     47  C   UNL     1     113.037 126.171 136.567  0.00  0.00    +0.000 C 
ATOM     48  C   UNL     1     111.635 125.488 136.136  0.00  0.00    +0.000 C 
BRANCH  45  50
ATOM     49  O   UNL     1     111.978 123.101 136.863  0.00  0.00    +0.000 OA
ATOM     50  C   UNL     1     112.604 123.866 136.712  0.00  0.00    +0.000 C 
ENDBRANCH  45  50
ENDBRANCH  41  47
ENDBRANCH  34  41
ENDBRANCH  30  37
ENDBRANCH   1  30
TORSDOF 12
ENDMDL
MODEL 4
REMARK VINA RESULT:      -9.1      4.469      7.867
REMARK  Name = 
REMARK  12 active torsions:
REMARK  status: ('A' for Active; 'I' for Inactive)
REMARK    1  A    between atoms: O_1  and  C_19
REMARK    2  A    between atoms: O_1  and  C_22
REMARK    3  A    between atoms: O_7  and  C_25
REMARK    4  A    between atoms: O_7  and  C_35
REMARK    5  A    between atoms: O_14  and  C_34
REMARK    6  A    between atoms: O_14  and  C_39
REMARK    7  A    between atoms: C_20  and  C_28
REMARK    8  A    between atoms: C_26  and  C_29
REMARK    9  A    between atoms: C_32  and  C_36
REMARK   10  A    between atoms: C_42  and  C_45
REMARK   11  A    between atoms: C_47  and  C_50
REMARK   12  A    between atoms: C_49  and  C_50
REMARK                            x       y       z     vdW  Elec       q    Type
REMARK                         _______ _______ _______ _____ _____    ______ ____
ROOT
ATOM      1  C   UNL     1     109.646 128.313 141.419  0.00  0.00    +0.000 A 
ATOM      2  C   UNL     1     109.347 128.784 142.249  0.00  0.00    +0.000 A 
ATOM      3  C   UNL     1     109.030 127.673 140.959  0.00  0.00    +0.000 A 
ATOM      4  C   UNL     1     108.433 128.617 142.618  0.00  0.00    +0.000 A 
ATOM      5  C   UNL     1     108.116 127.505 141.329  0.00  0.00    +0.000 A 
ATOM      6  C   UNL     1     107.818 127.977 142.158  0.00  0.00    +0.000 A 
ENDROOT
BRANCH   6   7
ATOM      7  C   UNL     1     106.903 127.809 142.527  0.00  0.00    +0.000 C 
ATOM      8  C   UNL     1     106.106 128.240 142.105  0.00  0.00    +0.000 C 
BRANCH   8  10
ATOM      9  O   UNL     1     105.020 127.261 143.033  0.00  0.00    +0.000 OA
ATOM     10  C   UNL     1     105.192 128.073 142.474  0.00  0.00    +0.000 C 
BRANCH  10  16
ATOM     11  O   UNL     1     104.214 127.987 140.732  0.00  0.00    +0.000 OA
ATOM     12  C   UNL     1     102.968 130.003 141.907  0.00  0.00    +0.000 A 
ATOM     13  C   UNL     1     103.220 129.317 141.225  0.00  0.00    +0.000 A 
ATOM     14  C   UNL     1     103.457 130.046 142.778  0.00  0.00    +0.000 A 
ATOM     15  C   UNL     1     103.962 128.673 141.414  0.00  0.00    +0.000 A 
ATOM     16  C   UNL     1     104.451 128.716 142.285  0.00  0.00    +0.000 A 
ATOM     17  C   UNL     1     104.198 129.403 142.967  0.00  0.00    +0.000 A 
BRANCH  12  18
ATOM     18  O   UNL     1     102.226 130.647 141.718  0.00  0.00    +0.000 OA
BRANCH  18  27
ATOM     19  O   UNL     1     103.259 131.816 140.966  0.00  0.00    +0.000 OA
ATOM     20  O   UNL     1     103.063 134.449 140.801  0.00  0.00    +0.000 OA
ATOM     21  O   UNL     1     101.415 134.012 141.847  0.00  0.00    +0.000 OA
ATOM     22  O   UNL     1     100.997 132.111 142.305  0.00  0.00    +0.000 OA
ATOM     23  C   UNL     1     102.853 133.499 141.030  0.00  0.00    +0.000 C 
ATOM     24  C   UNL     1     102.030 133.280 141.553  0.00  0.00    +0.000 C 
ATOM     25  C   UNL     1     103.468 132.767 140.737  0.00  0.00    +0.000 C 
ATOM     26  C   UNL     1     101.820 132.329 141.782  0.00  0.00    +0.000 C 
ATOM     27  C   UNL     1     102.435 131.597 141.489  0.00  0.00    +0.000 C 
BRANCH  25  29
ATOM     28  O   UNL     1     105.074 132.363 140.229  0.00  0.00    +0.000 OA
ATOM     29  C   UNL     1     104.292 132.985 140.214  0.00  0.00    +0.000 C 
ENDBRANCH  25  29
ENDBRANCH  18  27
ENDBRANCH  12  18
ENDBRANCH  10  16
ENDBRANCH   8  10
ENDBRANCH   6   7
BRANCH   1  30
ATOM     30  O   UNL     1     110.560 128.480 141.050  0.00  0.00    +0.000 OA
BRANCH  30  37
ATOM     31  O   UNL     1     109.983 129.903 140.249  0.00  0.00    +0.000 OA
ATOM     32  O   UNL     1     112.622 130.184 138.849  0.00  0.00    +0.000 OA
ATOM     33  O   UNL     1     111.166 131.513 138.514  0.00  0.00    +0.000 OA
ATOM     34  C   UNL     1     111.591 129.332 139.950  0.00  0.00    +0.000 C 
ATOM     35  C   UNL     1     111.742 130.090 139.315  0.00  0.00    +0.000 C 
ATOM     36  C   UNL     1     111.014 130.755 139.148  0.00  0.00    +0.000 C 
ATOM     37  C   UNL     1     110.711 129.239 140.416  0.00  0.00    +0.000 C 
ATOM     38  C   UNL     1     110.135 130.662 139.614  0.00  0.00    +0.000 C 
BRANCH  38  40
ATOM     39  O   UNL     1     108.465 131.112 139.705  0.00  0.00    +0.000 OA
ATOM     40  C   UNL     1     109.407 131.326 139.447  0.00  0.00    +0.000 C 
ENDBRANCH  38  40
BRANCH  34  41
ATOM     41  O   UNL     1     112.319 128.667 140.117  0.00  0.00    +0.000 OA
BRANCH  41  47
ATOM     42  O   UNL     1     111.789 127.583 138.805  0.00  0.00    +0.000 OA
ATOM     43  O   UNL     1     113.212 125.847 138.111  0.00  0.00    +0.000 OA
ATOM     44  O   UNL     1     114.064 127.371 140.021  0.00  0.00    +0.000 OA
ATOM     45  C   UNL     1     113.087 126.619 138.734  0.00  0.00    +0.000 C 
ATOM     46  C   UNL     1     113.246 127.299 139.450  0.00  0.00    +0.000 C 
ATOM     47  C   UNL     1     112.444 127.895 139.494  0.00  0.00    +0.000 C 
ATOM     48  C   UNL     1     112.187 126.795 138.336  0.00  0.00    +0.000 C 
BRANCH  45  50
ATOM     49  O   UNL     1     114.355 125.522 138.303  0.00  0.00    +0.000 OA
ATOM     50  C   UNL     1     113.982 126.214 138.920  0.00  0.00    +0.000 C 
ENDBRANCH  45  50
ENDBRANCH  41  47
ENDBRANCH  34  41
ENDBRANCH  30  37
ENDBRANCH   1  30
TORSDOF 12
ENDMDL
MODEL 5
REMARK VINA RESULT:      -9.0      4.450      8.147
REMARK  Name = 
REMARK  12 active torsions:
REMARK  status: ('A' for Active; 'I' for Inactive)
REMARK    1  A    between atoms: O_1  and  C_19
REMARK    2  A    between atoms: O_1  and  C_22
REMARK    3  A    between atoms: O_7  and  C_25
REMARK    4  A    between atoms: O_7  and  C_35
REMARK    5  A    between atoms: O_14  and  C_34
REMARK    6  A    between atoms: O_14  and  C_39
REMARK    7  A    between atoms: C_20  and  C_28
REMARK    8  A    between atoms: C_26  and  C_29
REMARK    9  A    between atoms: C_32  and  C_36
REMARK   10  A    between atoms: C_42  and  C_45
REMARK   11  A    between atoms: C_47  and  C_50
REMARK   12  A    between atoms: C_49  and  C_50
REMARK                            x       y       z     vdW  Elec       q    Type
REMARK                         _______ _______ _______ _____ _____    ______ ____
ROOT
ATOM      1  C   UNL     1     109.694 128.247 140.861  0.00  0.00    +0.000 A 
ATOM      2  C   UNL     1     109.537 127.395 141.360  0.00  0.00    +0.000 A 
ATOM      3  C   UNL     1     108.983 128.950 140.836  0.00  0.00    +0.000 A 
ATOM      4  C   UNL     1     108.669 127.246 141.834  0.00  0.00    +0.000 A 
ATOM      5  C   UNL     1     108.115 128.801 141.310  0.00  0.00    +0.000 A 
ATOM      6  C   UNL     1     107.958 127.949 141.809  0.00  0.00    +0.000 A 
ENDROOT
BRANCH   6   7
ATOM      7  C   UNL     1     107.090 127.799 142.283  0.00  0.00    +0.000 C 
ATOM      8  C   UNL     1     106.238 128.137 141.883  0.00  0.00    +0.000 C 
BRANCH   8  10
ATOM      9  O   UNL     1     105.263 127.204 142.969  0.00  0.00    +0.000 OA
ATOM     10  C   UNL     1     105.370 127.988 142.357  0.00  0.00    +0.000 C 
BRANCH  10  16
ATOM     11  O   UNL     1     104.279 127.892 140.684  0.00  0.00    +0.000 OA
ATOM     12  C   UNL     1     103.088 129.890 141.943  0.00  0.00    +0.000 A 
ATOM     13  C   UNL     1     103.303 129.208 141.244  0.00  0.00    +0.000 A 
ATOM     14  C   UNL     1     103.634 129.939 142.780  0.00  0.00    +0.000 A 
ATOM     15  C   UNL     1     104.064 128.574 141.382  0.00  0.00    +0.000 A 
ATOM     16  C   UNL     1     104.609 128.622 142.219  0.00  0.00    +0.000 A 
ATOM     17  C   UNL     1     104.394 129.304 142.918  0.00  0.00    +0.000 A 
BRANCH  12  18
ATOM     18  O   UNL     1     102.327 130.525 141.805  0.00  0.00    +0.000 OA
BRANCH  18  27
ATOM     19  O   UNL     1     103.342 131.709 141.051  0.00  0.00    +0.000 OA
ATOM     20  O   UNL     1     103.051 134.326 140.790  0.00  0.00    +0.000 OA
ATOM     21  O   UNL     1     101.384 133.858 141.791  0.00  0.00    +0.000 OA
ATOM     22  O   UNL     1     101.022 131.957 142.299  0.00  0.00    +0.000 OA
ATOM     23  C   UNL     1     102.870 133.375 141.044  0.00  0.00    +0.000 C 
ATOM     24  C   UNL     1     102.037 133.141 141.544  0.00  0.00    +0.000 C 
ATOM     25  C   UNL     1     103.523 132.659 140.797  0.00  0.00    +0.000 C 
ATOM     26  C   UNL     1     101.856 132.191 141.798  0.00  0.00    +0.000 C 
ATOM     27  C   UNL     1     102.508 131.475 141.551  0.00  0.00    +0.000 C 
BRANCH  25  29
ATOM     28  O   UNL     1     105.151 132.288 140.339  0.00  0.00    +0.000 OA
ATOM     29  C   UNL     1     104.356 132.893 140.297  0.00  0.00    +0.000 C 
ENDBRANCH  25  29
ENDBRANCH  18  27
ENDBRANCH  12  18
ENDBRANCH  10  16
ENDBRANCH   8  10
ENDBRANCH   6   7
BRANCH   1  30
ATOM     30  O   UNL     1     110.562 128.397 140.387  0.00  0.00    +0.000 OA
BRANCH  30  37
ATOM     31  O   UNL     1     110.096 127.454 139.011  0.00  0.00    +0.000 OA
ATOM     32  O   UNL     1     112.981 126.846 138.453  0.00  0.00    +0.000 OA
ATOM     33  O   UNL     1     111.554 126.105 137.262  0.00  0.00    +0.000 OA
ATOM     34  C   UNL     1     111.771 127.621 139.420  0.00  0.00    +0.000 C 
ATOM     35  C   UNL     1     112.019 127.048 138.639  0.00  0.00    +0.000 C 
ATOM     36  C   UNL     1     111.306 126.678 138.044  0.00  0.00    +0.000 C 
ATOM     37  C   UNL     1     110.810 127.824 139.606  0.00  0.00    +0.000 C 
ATOM     38  C   UNL     1     110.345 126.881 138.230  0.00  0.00    +0.000 C 
BRANCH  38  40
ATOM     39  O   UNL     1     108.680 126.499 137.942  0.00  0.00    +0.000 OA
ATOM     40  C   UNL     1     109.631 126.510 137.635  0.00  0.00    +0.000 C 
ENDBRANCH  38  40
BRANCH  34  41
ATOM     41  O   UNL     1     112.484 127.991 140.015  0.00  0.00    +0.000 OA
BRANCH  41  47
ATOM     42  O   UNL     1     112.765 129.404 138.965  0.00  0.00    +0.000 OA
ATOM     43  O   UNL     1     114.236 131.089 139.684  0.00  0.00    +0.000 OA
ATOM     44  O   UNL     1     113.890 129.077 141.273  0.00  0.00    +0.000 OA
ATOM     45  C   UNL     1     113.810 130.211 139.901  0.00  0.00    +0.000 C 
ATOM     46  C   UNL     1     113.556 129.369 140.377  0.00  0.00    +0.000 C 
ATOM     47  C   UNL     1     112.910 128.870 139.798  0.00  0.00    +0.000 C 
ATOM     48  C   UNL     1     113.321 130.233 139.029  0.00  0.00    +0.000 C 
BRANCH  45  50
ATOM     49  O   UNL     1     114.829 131.367 140.690  0.00  0.00    +0.000 OA
ATOM     50  C   UNL     1     114.406 130.462 140.663  0.00  0.00    +0.000 C 
ENDBRANCH  45  50
ENDBRANCH  41  47
ENDBRANCH  34  41
ENDBRANCH  30  37
ENDBRANCH   1  30
TORSDOF 12
ENDMDL
MODEL 6
REMARK VINA RESULT:      -9.0      4.169      9.539
REMARK  Name = 
REMARK  12 active torsions:
REMARK  status: ('A' for Active; 'I' for Inactive)
REMARK    1  A    between atoms: O_1  and  C_19
REMARK    2  A    between atoms: O_1  and  C_22
REMARK    3  A    between atoms: O_7  and  C_25
REMARK    4  A    between atoms: O_7  and  C_35
REMARK    5  A    between atoms: O_14  and  C_34
REMARK    6  A    between atoms: O_14  and  C_39
REMARK    7  A    between atoms: C_20  and  C_28
REMARK    8  A    between atoms: C_26  and  C_29
REMARK    9  A    between atoms: C_32  and  C_36
REMARK   10  A    between atoms: C_42  and  C_45
REMARK   11  A    between atoms: C_47  and  C_50
REMARK   12  A    between atoms: C_49  and  C_50
REMARK                            x       y       z     vdW  Elec       q    Type
REMARK                         _______ _______ _______ _____ _____    ______ ____
ROOT
ATOM      1  C   UNL     1     109.421 130.470 144.808  0.00  0.00    +0.000 A 
ATOM      2  C   UNL     1     108.813 130.823 144.096  0.00  0.00    +0.000 A 
ATOM      3  C   UNL     1     109.213 129.602 145.258  0.00  0.00    +0.000 A 
ATOM      4  C   UNL     1     107.997 130.307 143.835  0.00  0.00    +0.000 A 
ATOM      5  C   UNL     1     108.398 129.086 144.997  0.00  0.00    +0.000 A 
ATOM      6  C   UNL     1     107.790 129.438 144.286  0.00  0.00    +0.000 A 
ENDROOT
BRANCH   6   7
ATOM      7  C   UNL     1     106.974 128.922 144.025  0.00  0.00    +0.000 C 
ATOM      8  C   UNL     1     106.208 129.388 143.581  0.00  0.00    +0.000 C 
BRANCH   8  10
ATOM      9  O   UNL     1     105.366 127.880 143.447  0.00  0.00    +0.000 OA
ATOM     10  C   UNL     1     105.392 128.872 143.320  0.00  0.00    +0.000 C 
BRANCH  10  16
ATOM     11  O   UNL     1     104.950 128.660 141.382  0.00  0.00    +0.000 OA
ATOM     12  C   UNL     1     103.023 130.298 142.157  0.00  0.00    +0.000 A 
ATOM     13  C   UNL     1     103.592 129.717 141.576  0.00  0.00    +0.000 A 
ATOM     14  C   UNL     1     103.244 130.405 143.127  0.00  0.00    +0.000 A 
ATOM     15  C   UNL     1     104.381 129.241 141.963  0.00  0.00    +0.000 A 
ATOM     16  C   UNL     1     104.603 129.347 142.933  0.00  0.00    +0.000 A 
ATOM     17  C   UNL     1     104.034 129.929 143.515  0.00  0.00    +0.000 A 
BRANCH  12  18
ATOM     18  O   UNL     1     102.234 130.774 141.770  0.00  0.00    +0.000 OA
BRANCH  18  27
ATOM     19  O   UNL     1     103.116 132.112 141.114  0.00  0.00    +0.000 OA
ATOM     20  O   UNL     1     102.475 134.670 140.898  0.00  0.00    +0.000 OA
ATOM     21  O   UNL     1     100.831 133.941 141.773  0.00  0.00    +0.000 OA
ATOM     22  O   UNL     1     100.710 131.993 142.209  0.00  0.00    +0.000 OA
ATOM     23  C   UNL     1     102.415 133.696 141.116  0.00  0.00    +0.000 C 
ATOM     24  C   UNL     1     101.593 133.332 141.553  0.00  0.00    +0.000 C 
ATOM     25  C   UNL     1     103.176 133.087 140.896  0.00  0.00    +0.000 C 
ATOM     26  C   UNL     1     101.532 132.358 141.771  0.00  0.00    +0.000 C 
ATOM     27  C   UNL     1     102.294 131.748 141.552  0.00  0.00    +0.000 C 
BRANCH  25  29
ATOM     28  O   UNL     1     104.574 132.854 139.901  0.00  0.00    +0.000 OA
ATOM     29  C   UNL     1     103.998 133.451 140.459  0.00  0.00    +0.000 C 
ENDBRANCH  25  29
ENDBRANCH  18  27
ENDBRANCH  12  18
ENDBRANCH  10  16
ENDBRANCH   8  10
ENDBRANCH   6   7
BRANCH   1  30
ATOM     30  O   UNL     1     110.237 130.986 145.069  0.00  0.00    +0.000 OA
BRANCH  30  37
ATOM     31  O   UNL     1     111.098 130.520 143.640  0.00  0.00    +0.000 OA
ATOM     32  O   UNL     1     112.826 132.960 143.886  0.00  0.00    +0.000 OA
ATOM     33  O   UNL     1     113.112 131.680 142.375  0.00  0.00    +0.000 OA
ATOM     34  C   UNL     1     111.532 131.973 144.477  0.00  0.00    +0.000 C 
ATOM     35  C   UNL     1     112.250 132.147 143.804  0.00  0.00    +0.000 C 
ATOM     36  C   UNL     1     112.393 131.507 143.049  0.00  0.00    +0.000 C 
ATOM     37  C   UNL     1     110.956 131.160 144.396  0.00  0.00    +0.000 C 
ATOM     38  C   UNL     1     111.817 130.694 142.967  0.00  0.00    +0.000 C 
BRANCH  38  40
ATOM     39  O   UNL     1     111.442 129.199 142.177  0.00  0.00    +0.000 OA
ATOM     40  C   UNL     1     111.960 130.054 142.212  0.00  0.00    +0.000 C 
ENDBRANCH  38  40
BRANCH  34  41
ATOM     41  O   UNL     1     111.389 132.613 145.232  0.00  0.00    +0.000 OA
BRANCH  41  47
ATOM     42  O   UNL     1     112.678 131.893 146.231  0.00  0.00    +0.000 OA
ATOM     43  O   UNL     1     112.879 132.540 148.480  0.00  0.00    +0.000 OA
ATOM     44  O   UNL     1     110.979 133.637 147.108  0.00  0.00    +0.000 OA
ATOM     45  C   UNL     1     112.373 132.655 147.625  0.00  0.00    +0.000 C 
ATOM     46  C   UNL     1     111.706 132.969 146.950  0.00  0.00    +0.000 C 
ATOM     47  C   UNL     1     111.895 132.499 146.087  0.00  0.00    +0.000 C 
ATOM     48  C   UNL     1     112.973 131.990 147.181  0.00  0.00    +0.000 C 
BRANCH  45  50
ATOM     49  O   UNL     1     112.317 133.264 149.245  0.00  0.00    +0.000 OA
ATOM     50  C   UNL     1     111.958 133.251 148.312  0.00  0.00    +0.000 C 
ENDBRANCH  45  50
ENDBRANCH  41  47
ENDBRANCH  34  41
ENDBRANCH  30  37
ENDBRANCH   1  30
TORSDOF 12
ENDMDL
MODEL 7
REMARK VINA RESULT:      -9.0      4.483      7.914
REMARK  Name = 
REMARK  12 active torsions:
REMARK  status: ('A' for Active; 'I' for Inactive)
REMARK    1  A    between atoms: O_1  and  C_19
REMARK    2  A    between atoms: O_1  and  C_22
REMARK    3  A    between atoms: O_7  and  C_25
REMARK    4  A    between atoms: O_7  and  C_35
REMARK    5  A    between atoms: O_14  and  C_34
REMARK    6  A    between atoms: O_14  and  C_39
REMARK    7  A    between atoms: C_20  and  C_28
REMARK    8  A    between atoms: C_26  and  C_29
REMARK    9  A    between atoms: C_32  and  C_36
REMARK   10  A    between atoms: C_42  and  C_45
REMARK   11  A    between atoms: C_47  and  C_50
REMARK   12  A    between atoms: C_49  and  C_50
REMARK                            x       y       z     vdW  Elec       q    Type
REMARK                         _______ _______ _______ _____ _____    ______ ____
ROOT
ATOM      1  C   UNL     1     109.352 128.386 140.954  0.00  0.00    +0.000 A 
ATOM      2  C   UNL     1     109.115 127.509 141.373  0.00  0.00    +0.000 A 
ATOM      3  C   UNL     1     108.709 129.150 140.996  0.00  0.00    +0.000 A 
ATOM      4  C   UNL     1     108.235 127.397 141.833  0.00  0.00    +0.000 A 
ATOM      5  C   UNL     1     107.828 129.038 141.456  0.00  0.00    +0.000 A 
ATOM      6  C   UNL     1     107.591 128.161 141.875  0.00  0.00    +0.000 A 
ENDROOT
BRANCH   6   7
ATOM      7  C   UNL     1     106.710 128.049 142.335  0.00  0.00    +0.000 C 
ATOM      8  C   UNL     1     105.869 128.350 141.886  0.00  0.00    +0.000 C 
BRANCH   8  10
ATOM      9  O   UNL     1     104.842 127.463 142.962  0.00  0.00    +0.000 OA
ATOM     10  C   UNL     1     104.989 128.237 142.346  0.00  0.00    +0.000 C 
BRANCH  10  16
ATOM     11  O   UNL     1     103.964 128.208 140.629  0.00  0.00    +0.000 OA
ATOM     12  C   UNL     1     102.788 130.221 141.879  0.00  0.00    +0.000 A 
ATOM     13  C   UNL     1     103.009 129.545 141.176  0.00  0.00    +0.000 A 
ATOM     14  C   UNL     1     103.300 130.236 142.737  0.00  0.00    +0.000 A 
ATOM     15  C   UNL     1     103.743 128.884 141.332  0.00  0.00    +0.000 A 
ATOM     16  C   UNL     1     104.255 128.898 142.190  0.00  0.00    +0.000 A 
ATOM     17  C   UNL     1     104.034 129.574 142.893  0.00  0.00    +0.000 A 
BRANCH  12  18
ATOM     18  O   UNL     1     102.054 130.883 141.723  0.00  0.00    +0.000 OA
BRANCH  18  27
ATOM     19  O   UNL     1     103.114 132.045 141.000  0.00  0.00    +0.000 OA
ATOM     20  O   UNL     1     102.940 134.680 140.833  0.00  0.00    +0.000 OA
ATOM     21  O   UNL     1     101.263 134.253 141.834  0.00  0.00    +0.000 OA
ATOM     22  O   UNL     1     100.820 132.354 142.280  0.00  0.00    +0.000 OA
ATOM     23  C   UNL     1     102.719 133.731 141.055  0.00  0.00    +0.000 C 
ATOM     24  C   UNL     1     101.880 133.517 141.556  0.00  0.00    +0.000 C 
ATOM     25  C   UNL     1     103.336 132.995 140.777  0.00  0.00    +0.000 C 
ATOM     26  C   UNL     1     101.658 132.568 141.779  0.00  0.00    +0.000 C 
ATOM     27  C   UNL     1     102.276 131.832 141.500  0.00  0.00    +0.000 C 
BRANCH  25  29
ATOM     28  O   UNL     1     104.910 132.533 140.222  0.00  0.00    +0.000 OA
ATOM     29  C   UNL     1     104.175 133.208 140.276  0.00  0.00    +0.000 C 
ENDBRANCH  25  29
ENDBRANCH  18  27
ENDBRANCH  12  18
ENDBRANCH  10  16
ENDBRANCH   8  10
ENDBRANCH   6   7
BRANCH   1  30
ATOM     30  O   UNL     1     110.233 128.498 140.494  0.00  0.00    +0.000 OA
BRANCH  30  37
ATOM     31  O   UNL     1     111.068 129.017 141.919  0.00  0.00    +0.000 OA
ATOM     32  O   UNL     1     112.912 130.679 140.234  0.00  0.00    +0.000 OA
ATOM     33  O   UNL     1     113.133 130.644 142.222  0.00  0.00    +0.000 OA
ATOM     34  C   UNL     1     111.572 129.589 140.364  0.00  0.00    +0.000 C 
ATOM     35  C   UNL     1     112.297 130.125 140.796  0.00  0.00    +0.000 C 
ATOM     36  C   UNL     1     112.408 130.108 141.790  0.00  0.00    +0.000 C 
ATOM     37  C   UNL     1     110.958 129.035 140.926  0.00  0.00    +0.000 C 
ATOM     38  C   UNL     1     111.793 129.554 142.351  0.00  0.00    +0.000 C 
BRANCH  38  40
ATOM     39  O   UNL     1     111.447 128.831 143.887  0.00  0.00    +0.000 OA
ATOM     40  C   UNL     1     111.904 129.536 143.345  0.00  0.00    +0.000 C 
ENDBRANCH  38  40
BRANCH  34  41
ATOM     41  O   UNL     1     111.462 129.606 139.370  0.00  0.00    +0.000 OA
BRANCH  41  47
ATOM     42  O   UNL     1     112.488 128.171 139.116  0.00  0.00    +0.000 OA
ATOM     43  O   UNL     1     113.199 127.646 136.939  0.00  0.00    +0.000 OA
ATOM     44  O   UNL     1     111.714 129.746 137.213  0.00  0.00    +0.000 OA
ATOM     45  C   UNL     1     112.675 128.276 137.512  0.00  0.00    +0.000 C 
ATOM     46  C   UNL     1     112.102 129.041 137.806  0.00  0.00    +0.000 C 
ATOM     47  C   UNL     1     111.986 128.976 138.798  0.00  0.00    +0.000 C 
ATOM     48  C   UNL     1     112.913 127.738 138.321  0.00  0.00    +0.000 C 
BRANCH  45  50
ATOM     49  O   UNL     1     113.057 128.076 135.834  0.00  0.00    +0.000 OA
ATOM     50  C   UNL     1     112.611 128.592 136.565  0.00  0.00    +0.000 C 
ENDBRANCH  45  50
ENDBRANCH  41  47
ENDBRANCH  34  41
ENDBRANCH  30  37
ENDBRANCH   1  30
TORSDOF 12
ENDMDL
MODEL 8
REMARK VINA RESULT:      -8.9      2.634      8.904
REMARK  Name = 
REMARK  12 active torsions:
REMARK  status: ('A' for Active; 'I' for Inactive)
REMARK    1  A    between atoms: O_1  and  C_19
REMARK    2  A    between atoms: O_1  and  C_22
REMARK    3  A    between atoms: O_7  and  C_25
REMARK    4  A    between atoms: O_7  and  C_35
REMARK    5  A    between atoms: O_14  and  C_34
REMARK    6  A    between atoms: O_14  and  C_39
REMARK    7  A    between atoms: C_20  and  C_28
REMARK    8  A    between atoms: C_26  and  C_29
REMARK    9  A    between atoms: C_32  and  C_36
REMARK   10  A    between atoms: C_42  and  C_45
REMARK   11  A    between atoms: C_47  and  C_50
REMARK   12  A    between atoms: C_49  and  C_50
REMARK                            x       y       z     vdW  Elec       q    Type
REMARK                         _______ _______ _______ _____ _____    ______ ____
ROOT
ATOM      1  C   UNL     1     109.213 130.225 142.672  0.00  0.00    +0.000 A 
ATOM      2  C   UNL     1     109.085 129.529 143.378  0.00  0.00    +0.000 A 
ATOM      3  C   UNL     1     108.609 130.247 141.875  0.00  0.00    +0.000 A 
ATOM      4  C   UNL     1     108.353 128.854 143.288  0.00  0.00    +0.000 A 
ATOM      5  C   UNL     1     107.876 129.572 141.785  0.00  0.00    +0.000 A 
ATOM      6  C   UNL     1     107.748 128.876 142.492  0.00  0.00    +0.000 A 
ENDROOT
BRANCH   6   7
ATOM      7  C   UNL     1     107.016 128.201 142.402  0.00  0.00    +0.000 C 
ATOM      8  C   UNL     1     106.943 127.451 143.060  0.00  0.00    +0.000 C 
BRANCH   8  10
ATOM      9  O   UNL     1     105.764 126.638 142.086  0.00  0.00    +0.000 OA
ATOM     10  C   UNL     1     106.211 126.777 142.970  0.00  0.00    +0.000 C 
BRANCH  10  16
ATOM     11  O   UNL     1     106.491 124.797 142.992  0.00  0.00    +0.000 OA
ATOM     12  C   UNL     1     105.354 125.166 145.352  0.00  0.00    +0.000 A 
ATOM     13  C   UNL     1     105.780 124.713 144.569  0.00  0.00    +0.000 A 
ATOM     14  C   UNL     1     105.213 126.156 145.341  0.00  0.00    +0.000 A 
ATOM     15  C   UNL     1     106.065 125.250 143.775  0.00  0.00    +0.000 A 
ATOM     16  C   UNL     1     105.925 126.240 143.764  0.00  0.00    +0.000 A 
ATOM     17  C   UNL     1     105.499 126.693 144.547  0.00  0.00    +0.000 A 
BRANCH  12  18
ATOM     18  O   UNL     1     105.068 124.630 146.145  0.00  0.00    +0.000 OA
BRANCH  18  27
ATOM     19  O   UNL     1     106.558 124.867 146.997  0.00  0.00    +0.000 OA
ATOM     20  O   UNL     1     107.080 124.927 149.590  0.00  0.00    +0.000 OA
ATOM     21  O   UNL     1     105.107 124.602 149.609  0.00  0.00    +0.000 OA
ATOM     22  O   UNL     1     104.101 124.453 147.887  0.00  0.00    +0.000 OA
ATOM     23  C   UNL     1     106.577 124.853 148.729  0.00  0.00    +0.000 C 
ATOM     24  C   UNL     1     105.591 124.690 148.738  0.00  0.00    +0.000 C 
ATOM     25  C   UNL     1     107.061 124.941 147.858  0.00  0.00    +0.000 C 
ATOM     26  C   UNL     1     105.088 124.616 147.877  0.00  0.00    +0.000 C 
ATOM     27  C   UNL     1     105.571 124.704 147.007  0.00  0.00    +0.000 C 
BRANCH  25  29
ATOM     28  O   UNL     1     108.426 125.847 147.297  0.00  0.00    +0.000 OA
ATOM     29  C   UNL     1     108.048 125.104 147.848  0.00  0.00    +0.000 C 
ENDBRANCH  25  29
ENDBRANCH  18  27
ENDBRANCH  12  18
ENDBRANCH  10  16
ENDBRANCH   8  10
ENDBRANCH   6   7
BRANCH   1  30
ATOM     30  O   UNL     1     109.946 130.900 142.762  0.00  0.00    +0.000 OA
BRANCH  30  37
ATOM     31  O   UNL     1     111.034 129.834 141.938  0.00  0.00    +0.000 OA
ATOM     32  O   UNL     1     113.288 131.751 142.435  0.00  0.00    +0.000 OA
ATOM     33  O   UNL     1     113.625 130.046 141.446  0.00  0.00    +0.000 OA
ATOM     34  C   UNL     1     111.617 131.326 142.598  0.00  0.00    +0.000 C 
ATOM     35  C   UNL     1     112.537 131.112 142.270  0.00  0.00    +0.000 C 
ATOM     36  C   UNL     1     112.705 130.259 141.775  0.00  0.00    +0.000 C 
ATOM     37  C   UNL     1     110.866 130.687 142.433  0.00  0.00    +0.000 C 
ATOM     38  C   UNL     1     111.954 129.620 141.609  0.00  0.00    +0.000 C 
BRANCH  38  40
ATOM     39  O   UNL     1     111.461 128.020 141.167  0.00  0.00    +0.000 OA
ATOM     40  C   UNL     1     112.123 128.768 141.115  0.00  0.00    +0.000 C 
ENDBRANCH  38  40
BRANCH  34  41
ATOM     41  O   UNL     1     111.448 132.178 143.093  0.00  0.00    +0.000 OA
BRANCH  41  47
ATOM     42  O   UNL     1     111.875 131.463 144.669  0.00  0.00    +0.000 OA
ATOM     43  O   UNL     1     111.601 132.744 146.619  0.00  0.00    +0.000 OA
ATOM     44  O   UNL     1     110.956 133.864 144.378  0.00  0.00    +0.000 OA
ATOM     45  C   UNL     1     111.509 132.717 145.623  0.00  0.00    +0.000 C 
ATOM     46  C   UNL     1     111.314 132.981 144.679  0.00  0.00    +0.000 C 
ATOM     47  C   UNL     1     111.540 132.206 144.088  0.00  0.00    +0.000 C 
ATOM     48  C   UNL     1     111.856 131.779 145.617  0.00  0.00    +0.000 C 
BRANCH  45  50
ATOM     49  O   UNL     1     111.088 133.792 146.914  0.00  0.00    +0.000 OA
ATOM     50  C   UNL     1     111.208 133.617 145.937  0.00  0.00    +0.000 C 
ENDBRANCH  45  50
ENDBRANCH  41  47
ENDBRANCH  34  41
ENDBRANCH  30  37
ENDBRANCH   1  30
TORSDOF 12
ENDMDL
MODEL 9
REMARK VINA RESULT:      -8.9      5.113      9.299
REMARK  Name = 
REMARK  12 active torsions:
REMARK  status: ('A' for Active; 'I' for Inactive)
REMARK    1  A    between atoms: O_1  and  C_19
REMARK    2  A    between atoms: O_1  and  C_22
REMARK    3  A    between atoms: O_7  and  C_25
REMARK    4  A    between atoms: O_7  and  C_35
REMARK    5  A    between atoms: O_14  and  C_34
REMARK    6  A    between atoms: O_14  and  C_39
REMARK    7  A    between atoms: C_20  and  C_28
REMARK    8  A    between atoms: C_26  and  C_29
REMARK    9  A    between atoms: C_32  and  C_36
REMARK   10  A    between atoms: C_42  and  C_45
REMARK   11  A    between atoms: C_47  and  C_50
REMARK   12  A    between atoms: C_49  and  C_50
REMARK                            x       y       z     vdW  Elec       q    Type
REMARK                         _______ _______ _______ _____ _____    ______ ____
ROOT
ATOM      1  C   UNL     1     102.667 131.522 141.816  0.00  0.00    +0.000 A 
ATOM      2  C   UNL     1     102.291 130.900 141.129  0.00  0.00    +0.000 A 
ATOM      3  C   UNL     1     103.434 131.231 142.387  0.00  0.00    +0.000 A 
ATOM      4  C   UNL     1     102.682 129.987 141.014  0.00  0.00    +0.000 A 
ATOM      5  C   UNL     1     103.826 130.318 142.272  0.00  0.00    +0.000 A 
ATOM      6  C   UNL     1     103.450 129.696 141.585  0.00  0.00    +0.000 A 
ENDROOT
BRANCH   6   7
ATOM      7  C   UNL     1     103.842 128.784 141.469  0.00  0.00    +0.000 C 
ATOM      8  C   UNL     1     104.610 128.494 142.039  0.00  0.00    +0.000 C 
BRANCH   8  10
ATOM      9  O   UNL     1     104.931 127.114 141.042  0.00  0.00    +0.000 OA
ATOM     10  C   UNL     1     105.002 127.581 141.924  0.00  0.00    +0.000 C 
BRANCH  10  16
ATOM     11  O   UNL     1     105.509 125.650 141.798  0.00  0.00    +0.000 OA
ATOM     12  C   UNL     1     106.391 126.242 144.221  0.00  0.00    +0.000 A 
ATOM     13  C   UNL     1     106.181 125.723 143.393  0.00  0.00    +0.000 A 
ATOM     14  C   UNL     1     106.138 127.208 144.284  0.00  0.00    +0.000 A 
ATOM     15  C   UNL     1     105.718 126.169 142.627  0.00  0.00    +0.000 A 
ATOM     16  C   UNL     1     105.465 127.135 142.689  0.00  0.00    +0.000 A 
ATOM     17  C   UNL     1     105.675 127.654 143.518  0.00  0.00    +0.000 A 
BRANCH  12  18
ATOM     18  O   UNL     1     106.854 125.796 144.987  0.00  0.00    +0.000 OA
BRANCH  18  27
ATOM     19  O   UNL     1     105.451 125.024 145.646  0.00  0.00    +0.000 OA
ATOM     20  O   UNL     1     104.746 124.562 148.154  0.00  0.00    +0.000 OA
ATOM     21  O   UNL     1     106.497 125.490 148.419  0.00  0.00    +0.000 OA
ATOM     22  O   UNL     1     107.551 126.107 146.836  0.00  0.00    +0.000 OA
ATOM     23  C   UNL     1     105.273 124.871 147.362  0.00  0.00    +0.000 C 
ATOM     24  C   UNL     1     106.149 125.335 147.495  0.00  0.00    +0.000 C 
ATOM     25  C   UNL     1     104.924 124.715 146.438  0.00  0.00    +0.000 C 
ATOM     26  C   UNL     1     106.676 125.643 146.703  0.00  0.00    +0.000 C 
ATOM     27  C   UNL     1     106.327 125.488 145.779  0.00  0.00    +0.000 C 
BRANCH  25  29
ATOM     28  O   UNL     1     103.674 124.144 145.385  0.00  0.00    +0.000 OA
ATOM     29  C   UNL     1     104.048 124.251 146.306  0.00  0.00    +0.000 C 
ENDBRANCH  25  29
ENDBRANCH  18  27
ENDBRANCH  12  18
ENDBRANCH  10  16
ENDBRANCH   8  10
ENDBRANCH   6   7
BRANCH   1  30
ATOM     30  O   UNL     1     102.275 132.435 141.932  0.00  0.00    +0.000 OA
BRANCH  30  37
ATOM     31  O   UNL     1     103.259 133.048 140.645  0.00  0.00    +0.000 OA
ATOM     32  O   UNL     1     102.571 135.853 141.456  0.00  0.00    +0.000 OA
ATOM     33  O   UNL     1     103.784 135.531 139.898  0.00  0.00    +0.000 OA
ATOM     34  C   UNL     1     102.423 134.144 141.694  0.00  0.00    +0.000 C 
ATOM     35  C   UNL     1     102.801 134.918 141.185  0.00  0.00    +0.000 C 
ATOM     36  C   UNL     1     103.407 134.757 140.407  0.00  0.00    +0.000 C 
ATOM     37  C   UNL     1     102.652 133.209 141.423  0.00  0.00    +0.000 C 
ATOM     38  C   UNL     1     103.636 133.822 140.136  0.00  0.00    +0.000 C 
BRANCH  38  40
ATOM     39  O   UNL     1     104.888 132.897 139.376  0.00  0.00    +0.000 OA
ATOM     40  C   UNL     1     104.242 133.661 139.358  0.00  0.00    +0.000 C 
ENDBRANCH  38  40
BRANCH  34  41
ATOM     41  O   UNL     1     101.817 134.305 142.472  0.00  0.00    +0.000 OA
BRANCH  41  47
ATOM     42  O   UNL     1     103.154 134.588 143.617  0.00  0.00    +0.000 OA
ATOM     43  O   UNL     1     102.713 134.540 145.924  0.00  0.00    +0.000 OA
ATOM     44  O   UNL     1     100.713 134.119 144.338  0.00  0.00    +0.000 OA
ATOM     45  C   UNL     1     102.332 134.450 145.004  0.00  0.00    +0.000 C 
ATOM     46  C   UNL     1     101.690 134.310 144.250  0.00  0.00    +0.000 C 
ATOM     47  C   UNL     1     102.198 134.396 143.392  0.00  0.00    +0.000 C 
ATOM     48  C   UNL     1     103.236 134.621 144.613  0.00  0.00    +0.000 C 
BRANCH  45  50
ATOM     49  O   UNL     1     101.777 134.355 146.642  0.00  0.00    +0.000 OA
ATOM     50  C   UNL     1     101.590 134.315 145.661  0.00  0.00    +0.000 C 
ENDBRANCH  45  50
ENDBRANCH  41  47
ENDBRANCH  34  41
ENDBRANCH  30  37
ENDBRANCH   1  30
TORSDOF 12
ENDMDL
MODEL 10
REMARK VINA RESULT:      -8.9      3.987      5.454
REMARK  Name = 
REMARK  12 active torsions:
REMARK  status: ('A' for Active; 'I' for Inactive)
REMARK    1  A    between atoms: O_1  and  C_19
REMARK    2  A    between atoms: O_1  and  C_22
REMARK    3  A    between atoms: O_7  and  C_25
REMARK    4  A    between atoms: O_7  and  C_35
REMARK    5  A    between atoms: O_14  and  C_34
REMARK    6  A    between atoms: O_14  and  C_39
REMARK    7  A    between atoms: C_20  and  C_28
REMARK    8  A    between atoms: C_26  and  C_29
REMARK    9  A    between atoms: C_32  and  C_36
REMARK   10  A    between atoms: C_42  and  C_45
REMARK   11  A    between atoms: C_47  and  C_50
REMARK   12  A    between atoms: C_49  and  C_50
REMARK                            x       y       z     vdW  Elec       q    Type
REMARK                         _______ _______ _______ _____ _____    ______ ____
ROOT
ATOM      1  C   UNL     1     109.867 127.912 138.925  0.00  0.00    +0.000 A 
ATOM      2  C   UNL     1     110.675 128.497 138.997  0.00  0.00    +0.000 A 
ATOM      3  C   UNL     1     109.494 127.473 139.742  0.00  0.00    +0.000 A 
ATOM      4  C   UNL     1     111.109 128.643 139.885  0.00  0.00    +0.000 A 
ATOM      5  C   UNL     1     109.928 127.619 140.631  0.00  0.00    +0.000 A 
ATOM      6  C   UNL     1     110.736 128.204 140.703  0.00  0.00    +0.000 A 
ENDROOT
BRANCH   6   7
ATOM      7  C   UNL     1     111.170 128.350 141.591  0.00  0.00    +0.000 C 
ATOM      8  C   UNL     1     110.778 129.004 142.238  0.00  0.00    +0.000 C 
BRANCH   8  10
ATOM      9  O   UNL     1     111.783 128.433 143.528  0.00  0.00    +0.000 OA
ATOM     10  C   UNL     1     111.212 129.150 143.127  0.00  0.00    +0.000 C 
BRANCH  10  16
ATOM     11  O   UNL     1     109.806 129.286 144.543  0.00  0.00    +0.000 OA
ATOM     12  C   UNL     1     110.802 131.736 144.590  0.00  0.00    +0.000 A 
ATOM     13  C   UNL     1     110.235 130.942 144.810  0.00  0.00    +0.000 A 
ATOM     14  C   UNL     1     111.505 131.668 143.882  0.00  0.00    +0.000 A 
ATOM     15  C   UNL     1     110.372 130.080 144.323  0.00  0.00    +0.000 A 
ATOM     16  C   UNL     1     111.075 130.012 143.615  0.00  0.00    +0.000 A 
ATOM     17  C   UNL     1     111.642 130.806 143.395  0.00  0.00    +0.000 A 
BRANCH  12  18
ATOM     18  O   UNL     1     110.665 132.598 145.078  0.00  0.00    +0.000 OA
BRANCH  18  27
ATOM     19  O   UNL     1     111.967 132.385 146.200  0.00  0.00    +0.000 OA
ATOM     20  O   UNL     1     112.198 133.090 148.740  0.00  0.00    +0.000 OA
ATOM     21  O   UNL     1     110.360 133.762 148.327  0.00  0.00    +0.000 OA
ATOM     22  O   UNL     1     109.594 133.516 146.496  0.00  0.00    +0.000 OA
ATOM     23  C   UNL     1     111.815 132.967 147.824  0.00  0.00    +0.000 C 
ATOM     24  C   UNL     1     110.896 133.303 147.618  0.00  0.00    +0.000 C 
ATOM     25  C   UNL     1     112.350 132.508 147.115  0.00  0.00    +0.000 C 
ATOM     26  C   UNL     1     110.513 133.180 146.702  0.00  0.00    +0.000 C 
ATOM     27  C   UNL     1     111.048 132.721 145.993  0.00  0.00    +0.000 C 
BRANCH  25  29
ATOM     28  O   UNL     1     114.011 132.308 146.665  0.00  0.00    +0.000 OA
ATOM     29  C   UNL     1     113.269 132.173 147.322  0.00  0.00    +0.000 C 
ENDBRANCH  25  29
ENDBRANCH  18  27
ENDBRANCH  12  18
ENDBRANCH  10  16
ENDBRANCH   8  10
ENDBRANCH   6   7
BRANCH   1  30
ATOM     30  O   UNL     1     109.433 127.766 138.036  0.00  0.00    +0.000 OA
BRANCH  30  37
ATOM     31  O   UNL     1     110.417 126.367 137.762  0.00  0.00    +0.000 OA
ATOM     32  O   UNL     1     109.535 126.307 134.896  0.00  0.00    +0.000 OA
ATOM     33  O   UNL     1     110.813 124.928 135.578  0.00  0.00    +0.000 OA
ATOM     34  C   UNL     1     109.484 127.037 136.466  0.00  0.00    +0.000 C 
ATOM     35  C   UNL     1     109.829 126.327 135.851  0.00  0.00    +0.000 C 
ATOM     36  C   UNL     1     110.468 125.638 136.192  0.00  0.00    +0.000 C 
ATOM     37  C   UNL     1     109.778 127.056 137.421  0.00  0.00    +0.000 C 
ATOM     38  C   UNL     1     110.762 125.658 137.148  0.00  0.00    +0.000 C 
BRANCH  38  40
ATOM     39  O   UNL     1     111.600 124.911 138.467  0.00  0.00    +0.000 OA
ATOM     40  C   UNL     1     111.401 124.968 137.489  0.00  0.00    +0.000 C 
ENDBRANCH  38  40
BRANCH  34  41
ATOM     41  O   UNL     1     108.845 127.726 136.125  0.00  0.00    +0.000 OA
BRANCH  41  47
ATOM     42  O   UNL     1     110.103 128.750 135.385  0.00  0.00    +0.000 OA
ATOM     43  O   UNL     1     109.628 131.010 134.951  0.00  0.00    +0.000 OA
ATOM     44  O   UNL     1     107.743 129.600 136.026  0.00  0.00    +0.000 OA
ATOM     45  C   UNL     1     109.283 130.143 135.312  0.00  0.00    +0.000 C 
ATOM     46  C   UNL     1     108.684 129.454 135.718  0.00  0.00    +0.000 C 
ATOM     47  C   UNL     1     109.190 128.592 135.764  0.00  0.00    +0.000 C 
ATOM     48  C   UNL     1     110.159 129.709 135.106  0.00  0.00    +0.000 C 
BRANCH  45  50
ATOM     49  O   UNL     1     108.722 131.770 135.117  0.00  0.00    +0.000 OA
ATOM     50  C   UNL     1     108.556 130.825 135.396  0.00  0.00    +0.000 C 
ENDBRANCH  45  50
ENDBRANCH  41  47
ENDBRANCH  34  41
ENDBRANCH  30  37
ENDBRANCH   1  30
TORSDOF 12
ENDMDL
