MODEL 1
REMARK VINA RESULT:     -10.8      0.000      0.000
REMARK  Name = 44258773
REMARK  10 active torsions:
REMARK  status: ('A' for Active; 'I' for Inactive)
REMARK    1  A    between atoms: O_1  and  C_21
REMARK    2  A    between atoms: O_1  and  C_26
REMARK    3  A    between atoms: O_3  and  C_25
REMARK    4  A    between atoms: O_3  and  C_33
REMARK    5  A    between atoms: O_5  and  C_22
REMARK    6  A    between atoms: O_5  and  C_39
REMARK    7  A    between atoms: O_13  and  C_37
REMARK    8  A    between atoms: O_13  and  C_40
REMARK    9  A    between atoms: C_29  and  C_33
REMARK   10  A    between atoms: C_42  and  C_45
REMARK                            x       y       z     vdW  Elec       q    Type
REMARK                         _______ _______ _______ _____ _____    ______ ____
ROOT
ATOM      1  O   UNL     1     113.386 129.360 138.643  0.00  0.00    +0.000 OA
ATOM      2  O   UNL     1     113.946 128.393 140.519  0.00  0.00    +0.000 OA
ATOM      3  O   UNL     1     114.530 129.916 140.767  0.00  0.00    +0.000 OA
ATOM      4  O   UNL     1     114.352 131.068 139.599  0.00  0.00    +0.000 OA
ATOM      5  C   UNL     1     113.475 128.784 139.226  0.00  0.00    +0.000 C 
ATOM      6  C   UNL     1     113.857 128.969 139.935  0.00  0.00    +0.000 C 
ATOM      7  C   UNL     1     114.149 129.731 140.058  0.00  0.00    +0.000 C 
ATOM      8  C   UNL     1     114.060 130.307 139.475  0.00  0.00    +0.000 C 
ATOM      9  C   UNL     1     113.679 130.122 138.768  0.00  0.00    +0.000 C 
ENDROOT
BRANCH   9  10
ATOM     10  O   UNL     1     113.590 130.698 138.184  0.00  0.00    +0.000 OA
BRANCH  10  15
ATOM     11  O   UNL     1     112.119 130.778 136.573  0.00  0.00    +0.000 OA
ATOM     12  O   UNL     1     112.212 131.013 139.035  0.00  0.00    +0.000 OA
ATOM     13  O   UNL     1     110.790 131.255 139.094  0.00  0.00    +0.000 OA
ATOM     14  O   UNL     1     109.246 131.259 136.615  0.00  0.00    +0.000 OA
ATOM     15  C   UNL     1     112.869 130.777 137.788  0.00  0.00    +0.000 A 
ATOM     16  C   UNL     1     112.838 130.699 136.968  0.00  0.00    +0.000 A 
ATOM     17  C   UNL     1     112.181 130.935 138.214  0.00  0.00    +0.000 A 
ATOM     18  C   UNL     1     111.460 131.014 137.819  0.00  0.00    +0.000 A 
ATOM     19  C   UNL     1     111.429 130.936 136.998  0.00  0.00    +0.000 A 
ATOM     20  C   UNL     1     110.750 131.178 138.273  0.00  0.00    +0.000 A 
ATOM     21  C   UNL     1     110.686 131.016 136.575  0.00  0.00    +0.000 A 
ATOM     22  C   UNL     1     109.997 131.262 137.867  0.00  0.00    +0.000 A 
ATOM     23  C   UNL     1     109.965 131.181 137.013  0.00  0.00    +0.000 A 
BRANCH  16  25
ATOM     24  O   UNL     1     115.595 130.066 135.267  0.00  0.00    +0.000 OA
ATOM     25  C   UNL     1     113.528 130.541 136.542  0.00  0.00    +0.000 A 
ATOM     26  C   UNL     1     114.097 131.130 136.446  0.00  0.00    +0.000 A 
ATOM     27  C   UNL     1     113.647 129.794 136.214  0.00  0.00    +0.000 A 
ATOM     28  C   UNL     1     114.786 130.972 136.021  0.00  0.00    +0.000 A 
ATOM     29  C   UNL     1     114.336 129.635 135.789  0.00  0.00    +0.000 A 
ATOM     30  C   UNL     1     114.906 130.225 135.692  0.00  0.00    +0.000 A 
ENDBRANCH  16  25
ENDBRANCH  10  15
ENDBRANCH   9  10
BRANCH   5  31
ATOM     31  C   UNL     1     113.183 128.022 139.103  0.00  0.00    +0.000 C 
BRANCH  31  32
ATOM     32  O   UNL     1     112.395 127.913 138.884  0.00  0.00    +0.000 OA
BRANCH  32  39
ATOM     33  O   UNL     1     112.741 126.679 138.252  0.00  0.00    +0.000 OA
ATOM     34  O   UNL     1     110.839 127.744 138.361  0.00  0.00    +0.000 OA
ATOM     35  C   UNL     1     111.185 126.510 137.729  0.00  0.00    +0.000 C 
ATOM     36  C   UNL     1     111.748 125.935 137.544  0.00  0.00    +0.000 C 
ATOM     37  C   UNL     1     111.402 127.169 138.176  0.00  0.00    +0.000 C 
ATOM     38  C   UNL     1     112.526 126.019 137.805  0.00  0.00    +0.000 C 
ATOM     39  C   UNL     1     112.180 127.253 138.437  0.00  0.00    +0.000 C 
ATOM     40  C   UNL     1     113.087 125.445 137.620  0.00  0.00    +0.000 C 
BRANCH  35  41
ATOM     41  O   UNL     1     110.408 126.426 137.468  0.00  0.00    +0.000 OA
BRANCH  41  46
ATOM     42  O   UNL     1     110.672 127.109 136.241  0.00  0.00    +0.000 OA
ATOM     43  O   UNL     1     108.808 126.811 137.338  0.00  0.00    +0.000 OA
ATOM     44  O   UNL     1     108.273 127.687 136.046  0.00  0.00    +0.000 OA
ATOM     45  O   UNL     1     109.337 128.178 134.884  0.00  0.00    +0.000 OA
ATOM     46  C   UNL     1     110.140 126.864 136.821  0.00  0.00    +0.000 C 
ATOM     47  C   UNL     1     109.341 127.057 136.756  0.00  0.00    +0.000 C 
ATOM     48  C   UNL     1     109.073 127.495 136.111  0.00  0.00    +0.000 C 
ATOM     49  C   UNL     1     109.605 127.739 135.530  0.00  0.00    +0.000 C 
ATOM     50  C   UNL     1     110.405 127.547 135.595  0.00  0.00    +0.000 C 
ATOM     51  C   UNL     1     110.936 127.792 135.014  0.00  0.00    +0.000 C 
ENDBRANCH  41  46
ENDBRANCH  35  41
BRANCH  36  52
ATOM     52  O   UNL     1     111.531 125.276 137.097  0.00  0.00    +0.000 OA
BRANCH  52  54
ATOM     53  O   UNL     1     111.242 124.380 138.172  0.00  0.00    +0.000 OA
ATOM     54  C   UNL     1     111.572 124.522 137.429  0.00  0.00    +0.000 C 
ATOM     55  C   UNL     1     111.944 123.910 137.018  0.00  0.00    +0.000 C 
ENDBRANCH  52  54
ENDBRANCH  36  52
ENDBRANCH  32  39
ENDBRANCH  31  32
ENDBRANCH   5  31
TORSDOF 10
ENDMDL
MODEL 2
REMARK VINA RESULT:     -10.7      1.226      2.050
REMARK  Name = 44258773
REMARK  10 active torsions:
REMARK  status: ('A' for Active; 'I' for Inactive)
REMARK    1  A    between atoms: O_1  and  C_21
REMARK    2  A    between atoms: O_1  and  C_26
REMARK    3  A    between atoms: O_3  and  C_25
REMARK    4  A    between atoms: O_3  and  C_33
REMARK    5  A    between atoms: O_5  and  C_22
REMARK    6  A    between atoms: O_5  and  C_39
REMARK    7  A    between atoms: O_13  and  C_37
REMARK    8  A    between atoms: O_13  and  C_40
REMARK    9  A    between atoms: C_29  and  C_33
REMARK   10  A    between atoms: C_42  and  C_45
REMARK                            x       y       z     vdW  Elec       q    Type
REMARK                         _______ _______ _______ _____ _____    ______ ____
ROOT
ATOM      1  O   UNL     1     112.942 129.521 138.773  0.00  0.00    +0.000 OA
ATOM      2  O   UNL     1     113.616 129.121 140.811  0.00  0.00    +0.000 OA
ATOM      3  O   UNL     1     114.628 130.353 140.384  0.00  0.00    +0.000 OA
ATOM      4  O   UNL     1     114.516 131.030 138.884  0.00  0.00    +0.000 OA
ATOM      5  C   UNL     1     112.998 129.183 139.523  0.00  0.00    +0.000 C 
ATOM      6  C   UNL     1     113.560 129.460 140.060  0.00  0.00    +0.000 C 
ATOM      7  C   UNL     1     114.065 130.076 139.847  0.00  0.00    +0.000 C 
ATOM      8  C   UNL     1     114.009 130.414 139.096  0.00  0.00    +0.000 C 
ATOM      9  C   UNL     1     113.448 130.137 138.560  0.00  0.00    +0.000 C 
ENDROOT
BRANCH   9  10
ATOM     10  O   UNL     1     113.392 130.476 137.810  0.00  0.00    +0.000 OA
BRANCH  10  15
ATOM     11  O   UNL     1     111.769 130.322 136.358  0.00  0.00    +0.000 OA
ATOM     12  O   UNL     1     112.210 131.339 138.571  0.00  0.00    +0.000 OA
ATOM     13  O   UNL     1     110.872 131.880 138.620  0.00  0.00    +0.000 OA
ATOM     14  O   UNL     1     109.056 131.381 136.388  0.00  0.00    +0.000 OA
ATOM     15  C   UNL     1     112.654 130.568 137.452  0.00  0.00    +0.000 A 
ATOM     16  C   UNL     1     112.507 130.229 136.715  0.00  0.00    +0.000 A 
ATOM     17  C   UNL     1     112.063 131.000 137.833  0.00  0.00    +0.000 A 
ATOM     18  C   UNL     1     111.324 131.092 137.476  0.00  0.00    +0.000 A 
ATOM     19  C   UNL     1     111.177 130.753 136.738  0.00  0.00    +0.000 A 
ATOM     20  C   UNL     1     110.717 131.544 137.882  0.00  0.00    +0.000 A 
ATOM     21  C   UNL     1     110.413 130.842 136.356  0.00  0.00    +0.000 A 
ATOM     22  C   UNL     1     109.946 131.644 137.516  0.00  0.00    +0.000 A 
ATOM     23  C   UNL     1     109.793 131.291 136.748  0.00  0.00    +0.000 A 
BRANCH  16  25
ATOM     24  O   UNL     1     114.872 128.501 135.195  0.00  0.00    +0.000 OA
ATOM     25  C   UNL     1     113.099 129.798 136.335  0.00  0.00    +0.000 A 
ATOM     26  C   UNL     1     113.748 130.186 136.008  0.00  0.00    +0.000 A 
ATOM     27  C   UNL     1     113.040 128.976 136.282  0.00  0.00    +0.000 A 
ATOM     28  C   UNL     1     114.340 129.755 135.628  0.00  0.00    +0.000 A 
ATOM     29  C   UNL     1     113.631 128.544 135.902  0.00  0.00    +0.000 A 
ATOM     30  C   UNL     1     114.281 128.934 135.575  0.00  0.00    +0.000 A 
ENDBRANCH  16  25
ENDBRANCH  10  15
ENDBRANCH   9  10
BRANCH   5  31
ATOM     31  C   UNL     1     112.492 128.567 139.737  0.00  0.00    +0.000 C 
BRANCH  31  32
ATOM     32  O   UNL     1     112.465 127.879 139.283  0.00  0.00    +0.000 OA
BRANCH  32  39
ATOM     33  O   UNL     1     111.114 127.651 139.690  0.00  0.00    +0.000 OA
ATOM     34  O   UNL     1     112.512 126.378 138.598  0.00  0.00    +0.000 OA
ATOM     35  C   UNL     1     111.161 126.150 139.005  0.00  0.00    +0.000 C 
ATOM     36  C   UNL     1     110.473 126.412 139.379  0.00  0.00    +0.000 C 
ATOM     37  C   UNL     1     111.824 126.640 138.973  0.00  0.00    +0.000 C 
ATOM     38  C   UNL     1     110.450 127.162 139.722  0.00  0.00    +0.000 C 
ATOM     39  C   UNL     1     111.801 127.390 139.315  0.00  0.00    +0.000 C 
ATOM     40  C   UNL     1     109.763 127.423 140.096  0.00  0.00    +0.000 C 
BRANCH  35  41
ATOM     41  O   UNL     1     111.184 125.400 138.662  0.00  0.00    +0.000 OA
BRANCH  41  46
ATOM     42  O   UNL     1     110.746 125.904 137.399  0.00  0.00    +0.000 OA
ATOM     43  O   UNL     1     111.802 124.065 137.915  0.00  0.00    +0.000 OA
ATOM     44  O   UNL     1     111.672 123.901 136.279  0.00  0.00    +0.000 OA
ATOM     45  O   UNL     1     110.925 125.072 135.389  0.00  0.00    +0.000 OA
ATOM     46  C   UNL     1     111.119 125.319 137.844  0.00  0.00    +0.000 C 
ATOM     47  C   UNL     1     111.428 124.651 137.470  0.00  0.00    +0.000 C 
ATOM     48  C   UNL     1     111.363 124.568 136.652  0.00  0.00    +0.000 C 
ATOM     49  C   UNL     1     110.990 125.154 136.208  0.00  0.00    +0.000 C 
ATOM     50  C   UNL     1     110.681 125.822 136.581  0.00  0.00    +0.000 C 
ATOM     51  C   UNL     1     110.308 126.408 136.135  0.00  0.00    +0.000 C 
ENDBRANCH  41  46
ENDBRANCH  35  41
BRANCH  36  52
ATOM     52  O   UNL     1     109.810 125.923 139.411  0.00  0.00    +0.000 OA
BRANCH  52  54
ATOM     53  O   UNL     1     110.034 125.327 140.691  0.00  0.00    +0.000 OA
ATOM     54  C   UNL     1     109.522 125.667 140.141  0.00  0.00    +0.000 C 
ATOM     55  C   UNL     1     108.720 125.751 140.320  0.00  0.00    +0.000 C 
ENDBRANCH  52  54
ENDBRANCH  36  52
ENDBRANCH  32  39
ENDBRANCH  31  32
ENDBRANCH   5  31
TORSDOF 10
ENDMDL
MODEL 3
REMARK VINA RESULT:     -10.7      1.598      5.416
REMARK  Name = 44258773
REMARK  10 active torsions:
REMARK  status: ('A' for Active; 'I' for Inactive)
REMARK    1  A    between atoms: O_1  and  C_21
REMARK    2  A    between atoms: O_1  and  C_26
REMARK    3  A    between atoms: O_3  and  C_25
REMARK    4  A    between atoms: O_3  and  C_33
REMARK    5  A    between atoms: O_5  and  C_22
REMARK    6  A    between atoms: O_5  and  C_39
REMARK    7  A    between atoms: O_13  and  C_37
REMARK    8  A    between atoms: O_13  and  C_40
REMARK    9  A    between atoms: C_29  and  C_33
REMARK   10  A    between atoms: C_42  and  C_45
REMARK                            x       y       z     vdW  Elec       q    Type
REMARK                         _______ _______ _______ _____ _____    ______ ____
ROOT
ATOM      1  O   UNL     1     111.593 126.598 136.233  0.00  0.00    +0.000 OA
ATOM      2  O   UNL     1     110.240 127.160 134.615  0.00  0.00    +0.000 OA
ATOM      3  O   UNL     1     109.998 125.529 134.671  0.00  0.00    +0.000 OA
ATOM      4  O   UNL     1     110.820 124.610 135.769  0.00  0.00    +0.000 OA
ATOM      5  C   UNL     1     111.183 127.058 135.685  0.00  0.00    +0.000 C 
ATOM      6  C   UNL     1     110.651 126.701 135.164  0.00  0.00    +0.000 C 
ATOM      7  C   UNL     1     110.530 125.885 135.192  0.00  0.00    +0.000 C 
ATOM      8  C   UNL     1     110.941 125.426 135.741  0.00  0.00    +0.000 C 
ATOM      9  C   UNL     1     111.472 125.783 136.261  0.00  0.00    +0.000 C 
ENDROOT
BRANCH   9  10
ATOM     10  O   UNL     1     111.883 125.324 136.810  0.00  0.00    +0.000 OA
BRANCH  10  15
ATOM     11  O   UNL     1     112.908 126.004 138.613  0.00  0.00    +0.000 OA
ATOM     12  O   UNL     1     110.599 125.674 137.785  0.00  0.00    +0.000 OA
ATOM     13  O   UNL     1     110.054 126.136 139.039  0.00  0.00    +0.000 OA
ATOM     14  O   UNL     1     111.879 126.946 141.170  0.00  0.00    +0.000 OA
ATOM     15  C   UNL     1     112.011 125.609 137.574  0.00  0.00    +0.000 A 
ATOM     16  C   UNL     1     112.781 125.719 137.850  0.00  0.00    +0.000 A 
ATOM     17  C   UNL     1     111.369 125.784 138.061  0.00  0.00    +0.000 A 
ATOM     18  C   UNL     1     111.497 126.070 138.825  0.00  0.00    +0.000 A 
ATOM     19  C   UNL     1     112.267 126.180 139.101  0.00  0.00    +0.000 A 
ATOM     20  C   UNL     1     110.820 126.249 139.323  0.00  0.00    +0.000 A 
ATOM     21  C   UNL     1     112.413 126.477 139.894  0.00  0.00    +0.000 A 
ATOM     22  C   UNL     1     110.947 126.546 140.119  0.00  0.00    +0.000 A 
ATOM     23  C   UNL     1     111.748 126.661 140.407  0.00  0.00    +0.000 A 
BRANCH  16  25
ATOM     24  O   UNL     1     115.348 125.020 135.897  0.00  0.00    +0.000 OA
ATOM     25  C   UNL     1     113.423 125.544 137.361  0.00  0.00    +0.000 A 
ATOM     26  C   UNL     1     113.623 124.759 137.210  0.00  0.00    +0.000 A 
ATOM     27  C   UNL     1     113.863 126.155 137.025  0.00  0.00    +0.000 A 
ATOM     28  C   UNL     1     114.265 124.583 136.721  0.00  0.00    +0.000 A 
ATOM     29  C   UNL     1     114.505 125.980 136.537  0.00  0.00    +0.000 A 
ATOM     30  C   UNL     1     114.706 125.194 136.385  0.00  0.00    +0.000 A 
ENDBRANCH  16  25
ENDBRANCH  10  15
ENDBRANCH   9  10
BRANCH   5  31
ATOM     31  C   UNL     1     111.303 127.873 135.656  0.00  0.00    +0.000 C 
BRANCH  31  32
ATOM     32  O   UNL     1     111.184 128.332 136.331  0.00  0.00    +0.000 OA
BRANCH  32  39
ATOM     33  O   UNL     1     112.236 129.208 135.923  0.00  0.00    +0.000 OA
ATOM     34  O   UNL     1     110.887 129.297 137.636  0.00  0.00    +0.000 OA
ATOM     35  C   UNL     1     111.940 130.173 137.228  0.00  0.00    +0.000 C 
ATOM     36  C   UNL     1     112.541 130.370 136.697  0.00  0.00    +0.000 C 
ATOM     37  C   UNL     1     111.488 129.494 137.105  0.00  0.00    +0.000 C 
ATOM     38  C   UNL     1     112.689 129.887 136.044  0.00  0.00    +0.000 C 
ATOM     39  C   UNL     1     111.636 129.011 136.453  0.00  0.00    +0.000 C 
ATOM     40  C   UNL     1     113.289 130.084 135.514  0.00  0.00    +0.000 C 
BRANCH  35  41
ATOM     41  O   UNL     1     111.792 130.655 137.880  0.00  0.00    +0.000 OA
BRANCH  41  46
ATOM     42  O   UNL     1     110.821 131.402 137.143  0.00  0.00    +0.000 OA
ATOM     43  O   UNL     1     111.223 131.304 139.287  0.00  0.00    +0.000 OA
ATOM     44  O   UNL     1     109.968 132.375 139.253  0.00  0.00    +0.000 OA
ATOM     45  O   UNL     1     109.282 132.797 137.813  0.00  0.00    +0.000 OA
ATOM     46  C   UNL     1     111.164 131.191 137.863  0.00  0.00    +0.000 C 
ATOM     47  C   UNL     1     110.879 131.515 138.566  0.00  0.00    +0.000 C 
ATOM     48  C   UNL     1     110.252 132.051 138.550  0.00  0.00    +0.000 C 
ATOM     49  C   UNL     1     109.910 132.261 137.829  0.00  0.00    +0.000 C 
ATOM     50  C   UNL     1     110.194 131.937 137.126  0.00  0.00    +0.000 C 
ATOM     51  C   UNL     1     109.850 132.148 136.406  0.00  0.00    +0.000 C 
ENDBRANCH  41  46
ENDBRANCH  35  41
BRANCH  36  52
ATOM     52  O   UNL     1     112.992 131.049 136.819  0.00  0.00    +0.000 OA
BRANCH  52  54
ATOM     53  O   UNL     1     114.090 130.536 137.578  0.00  0.00    +0.000 OA
ATOM     54  C   UNL     1     113.805 130.985 136.947  0.00  0.00    +0.000 C 
ATOM     55  C   UNL     1     114.333 131.370 136.443  0.00  0.00    +0.000 C 
ENDBRANCH  52  54
ENDBRANCH  36  52
ENDBRANCH  32  39
ENDBRANCH  31  32
ENDBRANCH   5  31
TORSDOF 10
ENDMDL
MODEL 4
REMARK VINA RESULT:     -10.7      1.585      5.040
REMARK  Name = 44258773
REMARK  10 active torsions:
REMARK  status: ('A' for Active; 'I' for Inactive)
REMARK    1  A    between atoms: O_1  and  C_21
REMARK    2  A    between atoms: O_1  and  C_26
REMARK    3  A    between atoms: O_3  and  C_25
REMARK    4  A    between atoms: O_3  and  C_33
REMARK    5  A    between atoms: O_5  and  C_22
REMARK    6  A    between atoms: O_5  and  C_39
REMARK    7  A    between atoms: O_13  and  C_37
REMARK    8  A    between atoms: O_13  and  C_40
REMARK    9  A    between atoms: C_29  and  C_33
REMARK   10  A    between atoms: C_42  and  C_45
REMARK                            x       y       z     vdW  Elec       q    Type
REMARK                         _______ _______ _______ _____ _____    ______ ____
ROOT
ATOM      1  O   UNL     1     111.156 127.361 136.115  0.00  0.00    +0.000 OA
ATOM      2  O   UNL     1     109.541 126.337 135.061  0.00  0.00    +0.000 OA
ATOM      3  O   UNL     1     110.650 125.122 135.187  0.00  0.00    +0.000 OA
ATOM      4  O   UNL     1     112.097 125.399 135.931  0.00  0.00    +0.000 OA
ATOM      5  C   UNL     1     110.433 127.222 135.743  0.00  0.00    +0.000 C 
ATOM      6  C   UNL     1     110.264 126.475 135.433  0.00  0.00    +0.000 C 
ATOM      7  C   UNL     1     110.819 125.868 135.497  0.00  0.00    +0.000 C 
ATOM      8  C   UNL     1     111.542 126.007 135.868  0.00  0.00    +0.000 C 
ATOM      9  C   UNL     1     111.710 126.752 136.177  0.00  0.00    +0.000 C 
ENDROOT
BRANCH   9  10
ATOM     10  O   UNL     1     112.434 126.891 136.549  0.00  0.00    +0.000 OA
BRANCH  10  15
ATOM     11  O   UNL     1     112.922 128.459 137.987  0.00  0.00    +0.000 OA
ATOM     12  O   UNL     1     111.618 126.358 137.881  0.00  0.00    +0.000 OA
ATOM     13  O   UNL     1     111.218 126.504 139.260  0.00  0.00    +0.000 OA
ATOM     14  O   UNL     1     112.156 128.817 140.775  0.00  0.00    +0.000 OA
ATOM     15  C   UNL     1     112.461 127.325 137.251  0.00  0.00    +0.000 A 
ATOM     16  C   UNL     1     112.896 128.025 137.287  0.00  0.00    +0.000 A 
ATOM     17  C   UNL     1     112.052 127.058 137.916  0.00  0.00    +0.000 A 
ATOM     18  C   UNL     1     112.079 127.493 138.618  0.00  0.00    +0.000 A 
ATOM     19  C   UNL     1     112.514 128.193 138.654  0.00  0.00    +0.000 A 
ATOM     20  C   UNL     1     111.650 127.205 139.304  0.00  0.00    +0.000 A 
ATOM     21  C   UNL     1     112.550 128.653 139.378  0.00  0.00    +0.000 A 
ATOM     22  C   UNL     1     111.674 127.652 140.038  0.00  0.00    +0.000 A 
ATOM     23  C   UNL     1     112.127 128.381 140.075  0.00  0.00    +0.000 A 
BRANCH  16  25
ATOM     24  O   UNL     1     114.525 129.091 134.622  0.00  0.00    +0.000 OA
ATOM     25  C   UNL     1     113.304 128.291 136.620  0.00  0.00    +0.000 A 
ATOM     26  C   UNL     1     113.971 127.887 136.356  0.00  0.00    +0.000 A 
ATOM     27  C   UNL     1     113.043 128.963 136.218  0.00  0.00    +0.000 A 
ATOM     28  C   UNL     1     114.379 128.153 135.690  0.00  0.00    +0.000 A 
ATOM     29  C   UNL     1     113.449 129.230 135.552  0.00  0.00    +0.000 A 
ATOM     30  C   UNL     1     114.118 128.824 135.288  0.00  0.00    +0.000 A 
ENDBRANCH  16  25
ENDBRANCH  10  15
ENDBRANCH   9  10
BRANCH   5  31
ATOM     31  C   UNL     1     109.878 127.829 135.680  0.00  0.00    +0.000 C 
BRANCH  31  32
ATOM     32  O   UNL     1     109.601 128.208 136.358  0.00  0.00    +0.000 OA
BRANCH  32  39
ATOM     33  O   UNL     1     109.299 129.372 135.586  0.00  0.00    +0.000 OA
ATOM     34  O   UNL     1     109.107 128.987 137.726  0.00  0.00    +0.000 OA
ATOM     35  C   UNL     1     108.805 130.151 136.954  0.00  0.00    +0.000 C 
ATOM     36  C   UNL     1     108.777 130.538 136.225  0.00  0.00    +0.000 C 
ATOM     37  C   UNL     1     109.079 129.374 136.997  0.00  0.00    +0.000 C 
ATOM     38  C   UNL     1     109.025 130.148 135.541  0.00  0.00    +0.000 C 
ATOM     39  C   UNL     1     109.326 128.985 136.313  0.00  0.00    +0.000 C 
ATOM     40  C   UNL     1     108.997 130.535 134.814  0.00  0.00    +0.000 C 
BRANCH  35  41
ATOM     41  O   UNL     1     108.558 130.540 137.638  0.00  0.00    +0.000 OA
BRANCH  41  46
ATOM     42  O   UNL     1     109.865 131.062 137.885  0.00  0.00    +0.000 OA
ATOM     43  O   UNL     1     108.176 130.744 139.230  0.00  0.00    +0.000 OA
ATOM     44  O   UNL     1     109.292 131.368 140.273  0.00  0.00    +0.000 OA
ATOM     45  O   UNL     1     110.790 131.787 139.724  0.00  0.00    +0.000 OA
ATOM     46  C   UNL     1     109.116 130.852 138.159  0.00  0.00    +0.000 C 
ATOM     47  C   UNL     1     108.925 130.954 138.955  0.00  0.00    +0.000 C 
ATOM     48  C   UNL     1     109.483 131.266 139.477  0.00  0.00    +0.000 C 
ATOM     49  C   UNL     1     110.232 131.475 139.202  0.00  0.00    +0.000 C 
ATOM     50  C   UNL     1     110.423 131.373 138.406  0.00  0.00    +0.000 C 
ATOM     51  C   UNL     1     111.172 131.583 138.132  0.00  0.00    +0.000 C 
ENDBRANCH  41  46
ENDBRANCH  35  41
BRANCH  36  52
ATOM     52  O   UNL     1     108.503 131.315 136.182  0.00  0.00    +0.000 OA
BRANCH  52  54
ATOM     53  O   UNL     1     107.119 131.071 135.922  0.00  0.00    +0.000 OA
ATOM     54  C   UNL     1     107.814 131.485 135.761  0.00  0.00    +0.000 C 
ATOM     55  C   UNL     1     107.822 132.069 135.177  0.00  0.00    +0.000 C 
ENDBRANCH  52  54
ENDBRANCH  36  52
ENDBRANCH  32  39
ENDBRANCH  31  32
ENDBRANCH   5  31
TORSDOF 10
ENDMDL
MODEL 5
REMARK VINA RESULT:     -10.7      1.656      5.223
REMARK  Name = 44258773
REMARK  10 active torsions:
REMARK  status: ('A' for Active; 'I' for Inactive)
REMARK    1  A    between atoms: O_1  and  C_21
REMARK    2  A    between atoms: O_1  and  C_26
REMARK    3  A    between atoms: O_3  and  C_25
REMARK    4  A    between atoms: O_3  and  C_33
REMARK    5  A    between atoms: O_5  and  C_22
REMARK    6  A    between atoms: O_5  and  C_39
REMARK    7  A    between atoms: O_13  and  C_37
REMARK    8  A    between atoms: O_13  and  C_40
REMARK    9  A    between atoms: C_29  and  C_33
REMARK   10  A    between atoms: C_42  and  C_45
REMARK                            x       y       z     vdW  Elec       q    Type
REMARK                         _______ _______ _______ _____ _____    ______ ____
ROOT
ATOM      1  O   UNL     1     111.334 127.266 136.373  0.00  0.00    +0.000 OA
ATOM      2  O   UNL     1     109.776 126.270 135.212  0.00  0.00    +0.000 OA
ATOM      3  O   UNL     1     110.885 125.056 135.352  0.00  0.00    +0.000 OA
ATOM      4  O   UNL     1     112.293 125.315 136.172  0.00  0.00    +0.000 OA
ATOM      5  C   UNL     1     110.630 127.137 135.963  0.00  0.00    +0.000 C 
ATOM      6  C   UNL     1     110.480 126.399 135.622  0.00  0.00    +0.000 C 
ATOM      7  C   UNL     1     111.035 125.793 135.692  0.00  0.00    +0.000 C 
ATOM      8  C   UNL     1     111.739 125.923 136.103  0.00  0.00    +0.000 C 
ATOM      9  C   UNL     1     111.888 126.659 136.443  0.00  0.00    +0.000 C 
ENDROOT
BRANCH   9  10
ATOM     10  O   UNL     1     112.592 126.788 136.853  0.00  0.00    +0.000 OA
BRANCH  10  15
ATOM     11  O   UNL     1     113.361 128.662 137.667  0.00  0.00    +0.000 OA
ATOM     12  O   UNL     1     112.976 127.596 135.466  0.00  0.00    +0.000 OA
ATOM     13  O   UNL     1     113.489 128.759 134.782  0.00  0.00    +0.000 OA
ATOM     14  O   UNL     1     114.408 131.042 136.353  0.00  0.00    +0.000 OA
ATOM     15  C   UNL     1     112.912 127.548 136.893  0.00  0.00    +0.000 A 
ATOM     16  C   UNL     1     113.041 127.903 137.627  0.00  0.00    +0.000 A 
ATOM     17  C   UNL     1     113.104 127.951 136.200  0.00  0.00    +0.000 A 
ATOM     18  C   UNL     1     113.425 128.711 136.240  0.00  0.00    +0.000 A 
ATOM     19  C   UNL     1     113.553 129.066 136.974  0.00  0.00    +0.000 A 
ATOM     20  C   UNL     1     113.621 129.121 135.511  0.00  0.00    +0.000 A 
ATOM     21  C   UNL     1     113.886 129.856 137.029  0.00  0.00    +0.000 A 
ATOM     22  C   UNL     1     113.955 129.913 135.546  0.00  0.00    +0.000 A 
ATOM     23  C   UNL     1     114.088 130.283 136.310  0.00  0.00    +0.000 A 
BRANCH  16  25
ATOM     24  O   UNL     1     112.273 126.284 140.398  0.00  0.00    +0.000 OA
ATOM     25  C   UNL     1     112.848 127.499 138.320  0.00  0.00    +0.000 A 
ATOM     26  C   UNL     1     112.189 127.725 138.760  0.00  0.00    +0.000 A 
ATOM     27  C   UNL     1     113.316 126.868 138.572  0.00  0.00    +0.000 A 
ATOM     28  C   UNL     1     111.997 127.320 139.453  0.00  0.00    +0.000 A 
ATOM     29  C   UNL     1     113.125 126.463 139.264  0.00  0.00    +0.000 A 
ATOM     30  C   UNL     1     112.465 126.689 139.705  0.00  0.00    +0.000 A 
ENDBRANCH  16  25
ENDBRANCH  10  15
ENDBRANCH   9  10
BRANCH   5  31
ATOM     31  C   UNL     1     110.075 127.743 135.892  0.00  0.00    +0.000 C 
BRANCH  31  32
ATOM     32  O   UNL     1     109.780 128.114 136.568  0.00  0.00    +0.000 OA
BRANCH  32  39
ATOM     33  O   UNL     1     109.481 129.279 135.798  0.00  0.00    +0.000 OA
ATOM     34  O   UNL     1     109.190 128.854 137.919  0.00  0.00    +0.000 OA
ATOM     35  C   UNL     1     108.891 130.020 137.149  0.00  0.00    +0.000 C 
ATOM     36  C   UNL     1     108.889 130.418 136.425  0.00  0.00    +0.000 C 
ATOM     37  C   UNL     1     109.188 129.252 137.195  0.00  0.00    +0.000 C 
ATOM     38  C   UNL     1     109.184 130.048 135.750  0.00  0.00    +0.000 C 
ATOM     39  C   UNL     1     109.483 128.882 136.520  0.00  0.00    +0.000 C 
ATOM     40  C   UNL     1     109.182 130.445 135.028  0.00  0.00    +0.000 C 
BRANCH  35  41
ATOM     41  O   UNL     1     108.596 130.391 137.824  0.00  0.00    +0.000 OA
BRANCH  41  46
ATOM     42  O   UNL     1     109.889 130.900 138.157  0.00  0.00    +0.000 OA
ATOM     43  O   UNL     1     108.087 130.672 139.369  0.00  0.00    +0.000 OA
ATOM     44  O   UNL     1     109.126 131.322 140.474  0.00  0.00    +0.000 OA
ATOM     45  O   UNL     1     110.673 131.690 140.035  0.00  0.00    +0.000 OA
ATOM     46  C   UNL     1     109.116 130.716 138.377  0.00  0.00    +0.000 C 
ATOM     47  C   UNL     1     108.861 130.856 139.149  0.00  0.00    +0.000 C 
ATOM     48  C   UNL     1     109.380 131.181 139.702  0.00  0.00    +0.000 C 
ATOM     49  C   UNL     1     110.154 131.365 139.482  0.00  0.00    +0.000 C 
ATOM     50  C   UNL     1     110.408 131.224 138.709  0.00  0.00    +0.000 C 
ATOM     51  C   UNL     1     111.182 131.409 138.490  0.00  0.00    +0.000 C 
ENDBRANCH  41  46
ENDBRANCH  35  41
BRANCH  36  52
ATOM     52  O   UNL     1     108.591 131.186 136.379  0.00  0.00    +0.000 OA
BRANCH  52  54
ATOM     53  O   UNL     1     107.247 130.890 135.994  0.00  0.00    +0.000 OA
ATOM     54  C   UNL     1     107.931 131.344 135.910  0.00  0.00    +0.000 C 
ATOM     55  C   UNL     1     107.955 131.957 135.357  0.00  0.00    +0.000 C 
ENDBRANCH  52  54
ENDBRANCH  36  52
ENDBRANCH  32  39
ENDBRANCH  31  32
ENDBRANCH   5  31
TORSDOF 10
ENDMDL
MODEL 6
REMARK VINA RESULT:     -10.4      1.727      5.185
REMARK  Name = 44258773
REMARK  10 active torsions:
REMARK  status: ('A' for Active; 'I' for Inactive)
REMARK    1  A    between atoms: O_1  and  C_21
REMARK    2  A    between atoms: O_1  and  C_26
REMARK    3  A    between atoms: O_3  and  C_25
REMARK    4  A    between atoms: O_3  and  C_33
REMARK    5  A    between atoms: O_5  and  C_22
REMARK    6  A    between atoms: O_5  and  C_39
REMARK    7  A    between atoms: O_13  and  C_37
REMARK    8  A    between atoms: O_13  and  C_40
REMARK    9  A    between atoms: C_29  and  C_33
REMARK   10  A    between atoms: C_42  and  C_45
REMARK                            x       y       z     vdW  Elec       q    Type
REMARK                         _______ _______ _______ _____ _____    ______ ____
ROOT
ATOM      1  O   UNL     1     111.624 129.061 136.680  0.00  0.00    +0.000 OA
ATOM      2  O   UNL     1     109.708 130.025 137.087  0.00  0.00    +0.000 OA
ATOM      3  O   UNL     1     109.751 130.101 135.439  0.00  0.00    +0.000 OA
ATOM      4  O   UNL     1     111.043 129.484 134.619  0.00  0.00    +0.000 OA
ATOM      5  C   UNL     1     110.978 129.370 137.091  0.00  0.00    +0.000 C 
ATOM      6  C   UNL     1     110.353 129.717 136.677  0.00  0.00    +0.000 C 
ATOM      7  C   UNL     1     110.376 129.754 135.853  0.00  0.00    +0.000 C 
ATOM      8  C   UNL     1     111.022 129.446 135.443  0.00  0.00    +0.000 C 
ATOM      9  C   UNL     1     111.645 129.100 135.856  0.00  0.00    +0.000 C 
ENDROOT
BRANCH   9  10
ATOM     10  O   UNL     1     112.291 128.791 135.446  0.00  0.00    +0.000 OA
BRANCH  10  15
ATOM     11  O   UNL     1     113.947 127.605 136.232  0.00  0.00    +0.000 OA
ATOM     12  O   UNL     1     111.528 127.363 135.765  0.00  0.00    +0.000 OA
ATOM     13  O   UNL     1     111.544 126.000 136.239  0.00  0.00    +0.000 OA
ATOM     14  O   UNL     1     114.054 124.861 137.203  0.00  0.00    +0.000 OA
ATOM     15  C   UNL     1     112.716 128.157 135.761  0.00  0.00    +0.000 A 
ATOM     16  C   UNL     1     113.522 128.238 135.917  0.00  0.00    +0.000 A 
ATOM     17  C   UNL     1     112.334 127.444 135.921  0.00  0.00    +0.000 A 
ATOM     18  C   UNL     1     112.759 126.810 136.236  0.00  0.00    +0.000 A 
ATOM     19  C   UNL     1     113.566 126.891 136.392  0.00  0.00    +0.000 A 
ATOM     20  C   UNL     1     112.351 126.072 136.398  0.00  0.00    +0.000 A 
ATOM     21  C   UNL     1     114.019 126.239 136.719  0.00  0.00    +0.000 A 
ATOM     22  C   UNL     1     112.787 125.409 136.726  0.00  0.00    +0.000 A 
ATOM     23  C   UNL     1     113.627 125.492 136.888  0.00  0.00    +0.000 A 
BRANCH  16  25
ATOM     24  O   UNL     1     115.046 131.095 135.281  0.00  0.00    +0.000 OA
ATOM     25  C   UNL     1     113.904 128.952 135.757  0.00  0.00    +0.000 A 
ATOM     26  C   UNL     1     114.086 129.158 134.980  0.00  0.00    +0.000 A 
ATOM     27  C   UNL     1     114.102 129.461 136.376  0.00  0.00    +0.000 A 
ATOM     28  C   UNL     1     114.467 129.872 134.820  0.00  0.00    +0.000 A 
ATOM     29  C   UNL     1     114.482 130.175 136.218  0.00  0.00    +0.000 A 
ATOM     30  C   UNL     1     114.665 130.381 135.439  0.00  0.00    +0.000 A 
ENDBRANCH  16  25
ENDBRANCH  10  15
ENDBRANCH   9  10
BRANCH   5  31
ATOM     31  C   UNL     1     110.956 129.332 137.914  0.00  0.00    +0.000 C 
BRANCH  31  32
ATOM     32  O   UNL     1     111.564 129.667 138.360  0.00  0.00    +0.000 OA
BRANCH  32  39
ATOM     33  O   UNL     1     111.821 128.501 139.145  0.00  0.00    +0.000 OA
ATOM     34  O   UNL     1     111.949 130.621 139.650  0.00  0.00    +0.000 OA
ATOM     35  C   UNL     1     112.207 129.455 140.435  0.00  0.00    +0.000 C 
ATOM     36  C   UNL     1     112.239 128.633 140.505  0.00  0.00    +0.000 C 
ATOM     37  C   UNL     1     111.982 129.799 139.720  0.00  0.00    +0.000 C 
ATOM     38  C   UNL     1     112.046 128.156 139.860  0.00  0.00    +0.000 C 
ATOM     39  C   UNL     1     111.789 129.322 139.075  0.00  0.00    +0.000 C 
ATOM     40  C   UNL     1     112.079 127.335 139.931  0.00  0.00    +0.000 C 
BRANCH  35  41
ATOM     41  O   UNL     1     112.400 129.932 141.080  0.00  0.00    +0.000 OA
BRANCH  41  46
ATOM     42  O   UNL     1     113.758 130.014 140.643  0.00  0.00    +0.000 OA
ATOM     43  O   UNL     1     112.663 131.175 142.133  0.00  0.00    +0.000 OA
ATOM     44  O   UNL     1     114.153 131.879 142.222  0.00  0.00    +0.000 OA
ATOM     45  O   UNL     1     115.380 131.339 141.259  0.00  0.00    +0.000 OA
ATOM     46  C   UNL     1     113.145 130.284 141.124  0.00  0.00    +0.000 C 
ATOM     47  C   UNL     1     113.277 130.905 141.651  0.00  0.00    +0.000 C 
ATOM     48  C   UNL     1     114.021 131.257 141.696  0.00  0.00    +0.000 C 
ATOM     49  C   UNL     1     114.634 130.987 141.214  0.00  0.00    +0.000 C 
ATOM     50  C   UNL     1     114.502 130.365 140.688  0.00  0.00    +0.000 C 
ATOM     51  C   UNL     1     115.116 130.096 140.207  0.00  0.00    +0.000 C 
ENDBRANCH  41  46
ENDBRANCH  35  41
BRANCH  36  52
ATOM     52  O   UNL     1     112.464 128.290 141.221  0.00  0.00    +0.000 OA
BRANCH  52  54
ATOM     53  O   UNL     1     111.228 128.099 141.911  0.00  0.00    +0.000 OA
ATOM     54  C   UNL     1     111.939 127.797 141.624  0.00  0.00    +0.000 C 
ATOM     55  C   UNL     1     112.127 127.001 141.739  0.00  0.00    +0.000 C 
ENDBRANCH  52  54
ENDBRANCH  36  52
ENDBRANCH  32  39
ENDBRANCH  31  32
ENDBRANCH   5  31
TORSDOF 10
ENDMDL
MODEL 7
REMARK VINA RESULT:     -10.4      1.664      4.045
REMARK  Name = 44258773
REMARK  10 active torsions:
REMARK  status: ('A' for Active; 'I' for Inactive)
REMARK    1  A    between atoms: O_1  and  C_21
REMARK    2  A    between atoms: O_1  and  C_26
REMARK    3  A    between atoms: O_3  and  C_25
REMARK    4  A    between atoms: O_3  and  C_33
REMARK    5  A    between atoms: O_5  and  C_22
REMARK    6  A    between atoms: O_5  and  C_39
REMARK    7  A    between atoms: O_13  and  C_37
REMARK    8  A    between atoms: O_13  and  C_40
REMARK    9  A    between atoms: C_29  and  C_33
REMARK   10  A    between atoms: C_42  and  C_45
REMARK                            x       y       z     vdW  Elec       q    Type
REMARK                         _______ _______ _______ _____ _____    ______ ____
ROOT
ATOM      1  O   UNL     1     112.871 128.050 137.432  0.00  0.00    +0.000 OA
ATOM      2  O   UNL     1     113.152 126.609 139.048  0.00  0.00    +0.000 OA
ATOM      3  O   UNL     1     113.731 125.752 137.762  0.00  0.00    +0.000 OA
ATOM      4  O   UNL     1     113.737 126.427 136.257  0.00  0.00    +0.000 OA
ATOM      5  C   UNL     1     112.868 127.713 138.185  0.00  0.00    +0.000 C 
ATOM      6  C   UNL     1     113.155 126.946 138.295  0.00  0.00    +0.000 C 
ATOM      7  C   UNL     1     113.444 126.519 137.652  0.00  0.00    +0.000 C 
ATOM      8  C   UNL     1     113.447 126.856 136.899  0.00  0.00    +0.000 C 
ATOM      9  C   UNL     1     113.161 127.621 136.789  0.00  0.00    +0.000 C 
ENDROOT
BRANCH   9  10
ATOM     10  O   UNL     1     113.164 127.959 136.036  0.00  0.00    +0.000 OA
BRANCH  10  15
ATOM     11  O   UNL     1     112.000 129.664 135.328  0.00  0.00    +0.000 OA
ATOM     12  O   UNL     1     111.656 127.294 135.955  0.00  0.00    +0.000 OA
ATOM     13  O   UNL     1     110.245 127.394 135.669  0.00  0.00    +0.000 OA
ATOM     14  O   UNL     1     109.162 129.939 134.731  0.00  0.00    +0.000 OA
ATOM     15  C   UNL     1     112.524 128.417 135.787  0.00  0.00    +0.000 A 
ATOM     16  C   UNL     1     112.639 129.207 135.578  0.00  0.00    +0.000 A 
ATOM     17  C   UNL     1     111.770 128.084 135.746  0.00  0.00    +0.000 A 
ATOM     18  C   UNL     1     111.131 128.542 135.496  0.00  0.00    +0.000 A 
ATOM     19  C   UNL     1     111.245 129.332 135.287  0.00  0.00    +0.000 A 
ATOM     20  C   UNL     1     110.351 128.185 135.458  0.00  0.00    +0.000 A 
ATOM     21  C   UNL     1     110.588 129.819 135.026  0.00  0.00    +0.000 A 
ATOM     22  C   UNL     1     109.680 128.656 135.199  0.00  0.00    +0.000 A 
ATOM     23  C   UNL     1     109.799 129.479 134.981  0.00  0.00    +0.000 A 
BRANCH  16  25
ATOM     24  O   UNL     1     115.655 130.534 135.744  0.00  0.00    +0.000 OA
ATOM     25  C   UNL     1     113.393 129.538 135.619  0.00  0.00    +0.000 A 
ATOM     26  C   UNL     1     113.967 129.328 135.066  0.00  0.00    +0.000 A 
ATOM     27  C   UNL     1     113.573 130.080 136.214  0.00  0.00    +0.000 A 
ATOM     28  C   UNL     1     114.722 129.660 135.107  0.00  0.00    +0.000 A 
ATOM     29  C   UNL     1     114.327 130.413 136.256  0.00  0.00    +0.000 A 
ATOM     30  C   UNL     1     114.902 130.202 135.702  0.00  0.00    +0.000 A 
ENDBRANCH  16  25
ENDBRANCH  10  15
ENDBRANCH   9  10
BRANCH   5  31
ATOM     31  C   UNL     1     112.579 128.141 138.828  0.00  0.00    +0.000 C 
BRANCH  31  32
ATOM     32  O   UNL     1     111.813 128.446 138.810  0.00  0.00    +0.000 OA
BRANCH  32  39
ATOM     33  O   UNL     1     112.152 129.363 139.852  0.00  0.00    +0.000 OA
ATOM     34  O   UNL     1     110.311 129.121 138.705  0.00  0.00    +0.000 OA
ATOM     35  C   UNL     1     110.650 130.038 139.748  0.00  0.00    +0.000 C 
ATOM     36  C   UNL     1     111.196 130.327 140.296  0.00  0.00    +0.000 C 
ATOM     37  C   UNL     1     110.856 129.411 139.253  0.00  0.00    +0.000 C 
ATOM     38  C   UNL     1     111.946 129.989 140.348  0.00  0.00    +0.000 C 
ATOM     39  C   UNL     1     111.607 129.073 139.305  0.00  0.00    +0.000 C 
ATOM     40  C   UNL     1     112.491 130.279 140.895  0.00  0.00    +0.000 C 
BRANCH  35  41
ATOM     41  O   UNL     1     109.899 130.375 139.696  0.00  0.00    +0.000 OA
BRANCH  41  46
ATOM     42  O   UNL     1     110.337 131.284 138.684  0.00  0.00    +0.000 OA
ATOM     43  O   UNL     1     108.329 130.672 139.282  0.00  0.00    +0.000 OA
ATOM     44  O   UNL     1     107.983 131.729 138.063  0.00  0.00    +0.000 OA
ATOM     45  O   UNL     1     109.206 132.490 137.258  0.00  0.00    +0.000 OA
ATOM     46  C   UNL     1     109.726 130.904 139.086  0.00  0.00    +0.000 C 
ATOM     47  C   UNL     1     108.942 131.052 138.879  0.00  0.00    +0.000 C 
ATOM     48  C   UNL     1     108.768 131.581 138.270  0.00  0.00    +0.000 C 
ATOM     49  C   UNL     1     109.380 131.960 137.868  0.00  0.00    +0.000 C 
ATOM     50  C   UNL     1     110.164 131.812 138.075  0.00  0.00    +0.000 C 
ATOM     51  C   UNL     1     110.776 132.193 137.672  0.00  0.00    +0.000 C 
ENDBRANCH  41  46
ENDBRANCH  35  41
BRANCH  36  52
ATOM     52  O   UNL     1     110.989 130.954 140.791  0.00  0.00    +0.000 OA
BRANCH  52  54
ATOM     53  O   UNL     1     110.498 130.186 141.892  0.00  0.00    +0.000 OA
ATOM     54  C   UNL     1     110.924 130.831 141.604  0.00  0.00    +0.000 C 
ATOM     55  C   UNL     1     111.285 131.356 142.130  0.00  0.00    +0.000 C 
ENDBRANCH  52  54
ENDBRANCH  36  52
ENDBRANCH  32  39
ENDBRANCH  31  32
ENDBRANCH   5  31
TORSDOF 10
ENDMDL
MODEL 8
REMARK VINA RESULT:     -10.3      1.404      5.302
REMARK  Name = 44258773
REMARK  10 active torsions:
REMARK  status: ('A' for Active; 'I' for Inactive)
REMARK    1  A    between atoms: O_1  and  C_21
REMARK    2  A    between atoms: O_1  and  C_26
REMARK    3  A    between atoms: O_3  and  C_25
REMARK    4  A    between atoms: O_3  and  C_33
REMARK    5  A    between atoms: O_5  and  C_22
REMARK    6  A    between atoms: O_5  and  C_39
REMARK    7  A    between atoms: O_13  and  C_37
REMARK    8  A    between atoms: O_13  and  C_40
REMARK    9  A    between atoms: C_29  and  C_33
REMARK   10  A    between atoms: C_42  and  C_45
REMARK                            x       y       z     vdW  Elec       q    Type
REMARK                         _______ _______ _______ _____ _____    ______ ____
ROOT
ATOM      1  O   UNL     1     112.178 125.984 137.099  0.00  0.00    +0.000 OA
ATOM      2  O   UNL     1     114.064 125.209 136.319  0.00  0.00    +0.000 OA
ATOM      3  O   UNL     1     113.326 123.812 136.795  0.00  0.00    +0.000 OA
ATOM      4  O   UNL     1     111.823 123.863 137.475  0.00  0.00    +0.000 OA
ATOM      5  C   UNL     1     112.929 125.959 136.759  0.00  0.00    +0.000 C 
ATOM      6  C   UNL     1     113.312 125.234 136.658  0.00  0.00    +0.000 C 
ATOM      7  C   UNL     1     112.943 124.536 136.897  0.00  0.00    +0.000 C 
ATOM      8  C   UNL     1     112.192 124.562 137.236  0.00  0.00    +0.000 C 
ATOM      9  C   UNL     1     111.810 125.285 137.337  0.00  0.00    +0.000 C 
ENDROOT
BRANCH   9  10
ATOM     10  O   UNL     1     111.058 125.311 137.677  0.00  0.00    +0.000 OA
BRANCH  10  15
ATOM     11  O   UNL     1     109.633 126.963 137.740  0.00  0.00    +0.000 OA
ATOM     12  O   UNL     1     110.644 125.427 136.084  0.00  0.00    +0.000 OA
ATOM     13  O   UNL     1     109.897 126.043 135.014  0.00  0.00    +0.000 OA
ATOM     14  O   UNL     1     108.094 128.255 135.631  0.00  0.00    +0.000 OA
ATOM     15  C   UNL     1     110.514 125.881 137.432  0.00  0.00    +0.000 A 
ATOM     16  C   UNL     1     110.176 126.393 137.984  0.00  0.00    +0.000 A 
ATOM     17  C   UNL     1     110.307 125.939 136.636  0.00  0.00    +0.000 A 
ATOM     18  C   UNL     1     109.763 126.509 136.391  0.00  0.00    +0.000 A 
ATOM     19  C   UNL     1     109.425 127.021 136.943  0.00  0.00    +0.000 A 
ATOM     20  C   UNL     1     109.555 126.559 135.559  0.00  0.00    +0.000 A 
ATOM     21  C   UNL     1     108.858 127.619 136.701  0.00  0.00    +0.000 A 
ATOM     22  C   UNL     1     108.989 127.151 135.298  0.00  0.00    +0.000 A 
ATOM     23  C   UNL     1     108.638 127.684 135.873  0.00  0.00    +0.000 A 
BRANCH  16  25
ATOM     24  O   UNL     1     111.007 126.162 141.170  0.00  0.00    +0.000 OA
ATOM     25  C   UNL     1     110.384 126.335 138.781  0.00  0.00    +0.000 A 
ATOM     26  C   UNL     1     110.082 125.722 139.242  0.00  0.00    +0.000 A 
ATOM     27  C   UNL     1     110.894 126.891 139.116  0.00  0.00    +0.000 A 
ATOM     28  C   UNL     1     110.290 125.664 140.039  0.00  0.00    +0.000 A 
ATOM     29  C   UNL     1     111.102 126.833 139.912  0.00  0.00    +0.000 A 
ATOM     30  C   UNL     1     110.799 126.219 140.374  0.00  0.00    +0.000 A 
ENDBRANCH  16  25
ENDBRANCH  10  15
ENDBRANCH   9  10
BRANCH   5  31
ATOM     31  C   UNL     1     113.299 126.657 136.521  0.00  0.00    +0.000 C 
BRANCH  31  32
ATOM     32  O   UNL     1     113.233 127.337 136.982  0.00  0.00    +0.000 OA
BRANCH  32  39
ATOM     33  O   UNL     1     113.864 128.107 135.956  0.00  0.00    +0.000 OA
ATOM     34  O   UNL     1     112.857 128.725 137.792  0.00  0.00    +0.000 OA
ATOM     35  C   UNL     1     113.488 129.494 136.766  0.00  0.00    +0.000 C 
ATOM     36  C   UNL     1     113.898 129.532 136.050  0.00  0.00    +0.000 C 
ATOM     37  C   UNL     1     113.267 128.763 137.076  0.00  0.00    +0.000 C 
ATOM     38  C   UNL     1     114.085 128.838 135.645  0.00  0.00    +0.000 C 
ATOM     39  C   UNL     1     113.454 128.069 136.671  0.00  0.00    +0.000 C 
ATOM     40  C   UNL     1     114.495 128.876 134.931  0.00  0.00    +0.000 C 
BRANCH  35  41
ATOM     41  O   UNL     1     113.300 130.188 137.171  0.00  0.00    +0.000 OA
BRANCH  41  46
ATOM     42  O   UNL     1     112.048 130.314 136.492  0.00  0.00    +0.000 OA
ATOM     43  O   UNL     1     112.736 131.148 138.389  0.00  0.00    +0.000 OA
ATOM     44  O   UNL     1     111.203 131.754 138.319  0.00  0.00    +0.000 OA
ATOM     45  O   UNL     1     110.233 131.400 137.032  0.00  0.00    +0.000 OA
ATOM     46  C   UNL     1     112.533 130.491 137.135  0.00  0.00    +0.000 C 
ATOM     47  C   UNL     1     112.251 130.971 137.744  0.00  0.00    +0.000 C 
ATOM     48  C   UNL     1     111.485 131.274 137.710  0.00  0.00    +0.000 C 
ATOM     49  C   UNL     1     111.001 131.097 137.067  0.00  0.00    +0.000 C 
ATOM     50  C   UNL     1     111.282 130.617 136.458  0.00  0.00    +0.000 C 
ATOM     51  C   UNL     1     110.797 130.440 135.814  0.00  0.00    +0.000 C 
ENDBRANCH  41  46
ENDBRANCH  35  41
BRANCH  36  52
ATOM     52  O   UNL     1     114.119 130.264 135.740  0.00  0.00    +0.000 OA
BRANCH  52  54
ATOM     53  O   UNL     1     115.410 130.396 136.339  0.00  0.00    +0.000 OA
ATOM     54  C   UNL     1     114.918 130.460 135.680  0.00  0.00    +0.000 C 
ATOM     55  C   UNL     1     115.224 130.722 134.959  0.00  0.00    +0.000 C 
ENDBRANCH  52  54
ENDBRANCH  36  52
ENDBRANCH  32  39
ENDBRANCH  31  32
ENDBRANCH   5  31
TORSDOF 10
ENDMDL
MODEL 9
REMARK VINA RESULT:     -10.2      1.945      4.235
REMARK  Name = 44258773
REMARK  10 active torsions:
REMARK  status: ('A' for Active; 'I' for Inactive)
REMARK    1  A    between atoms: O_1  and  C_21
REMARK    2  A    between atoms: O_1  and  C_26
REMARK    3  A    between atoms: O_3  and  C_25
REMARK    4  A    between atoms: O_3  and  C_33
REMARK    5  A    between atoms: O_5  and  C_22
REMARK    6  A    between atoms: O_5  and  C_39
REMARK    7  A    between atoms: O_13  and  C_37
REMARK    8  A    between atoms: O_13  and  C_40
REMARK    9  A    between atoms: C_29  and  C_33
REMARK   10  A    between atoms: C_42  and  C_45
REMARK                            x       y       z     vdW  Elec       q    Type
REMARK                         _______ _______ _______ _____ _____    ______ ____
ROOT
ATOM      1  O   UNL     1     111.096 127.185 136.569  0.00  0.00    +0.000 OA
ATOM      2  O   UNL     1     110.876 125.125 137.259  0.00  0.00    +0.000 OA
ATOM      3  O   UNL     1     110.825 124.913 135.624  0.00  0.00    +0.000 OA
ATOM      4  O   UNL     1     110.954 126.215 134.618  0.00  0.00    +0.000 OA
ATOM      5  C   UNL     1     111.031 126.534 137.072  0.00  0.00    +0.000 C 
ATOM      6  C   UNL     1     110.941 125.776 136.756  0.00  0.00    +0.000 C 
ATOM      7  C   UNL     1     110.915 125.671 135.939  0.00  0.00    +0.000 C 
ATOM      8  C   UNL     1     110.980 126.322 135.436  0.00  0.00    +0.000 C 
ATOM      9  C   UNL     1     111.070 127.078 135.751  0.00  0.00    +0.000 C 
ENDROOT
BRANCH   9  10
ATOM     10  O   UNL     1     111.135 127.729 135.248  0.00  0.00    +0.000 OA
BRANCH  10  15
ATOM     11  O   UNL     1     110.767 129.831 135.705  0.00  0.00    +0.000 OA
ATOM     12  O   UNL     1     109.493 127.730 135.411  0.00  0.00    +0.000 OA
ATOM     13  O   UNL     1     108.249 128.414 135.671  0.00  0.00    +0.000 OA
ATOM     14  O   UNL     1     108.296 131.278 136.239  0.00  0.00    +0.000 OA
ATOM     15  C   UNL     1     110.739 128.431 135.428  0.00  0.00    +0.000 A 
ATOM     16  C   UNL     1     111.163 129.131 135.526  0.00  0.00    +0.000 A 
ATOM     17  C   UNL     1     109.918 128.430 135.509  0.00  0.00    +0.000 A 
ATOM     18  C   UNL     1     109.521 129.132 135.689  0.00  0.00    +0.000 A 
ATOM     19  C   UNL     1     109.946 129.832 135.787  0.00  0.00    +0.000 A 
ATOM     20  C   UNL     1     108.666 129.119 135.771  0.00  0.00    +0.000 A 
ATOM     21  C   UNL     1     109.545 130.569 135.974  0.00  0.00    +0.000 A 
ATOM     22  C   UNL     1     108.247 129.846 135.957  0.00  0.00    +0.000 A 
ATOM     23  C   UNL     1     108.689 130.576 136.060  0.00  0.00    +0.000 A 
BRANCH  16  25
ATOM     24  O   UNL     1     114.447 129.126 135.197  0.00  0.00    +0.000 OA
ATOM     25  C   UNL     1     111.984 129.130 135.444  0.00  0.00    +0.000 A 
ATOM     26  C   UNL     1     112.466 129.189 136.111  0.00  0.00    +0.000 A 
ATOM     27  C   UNL     1     112.324 129.070 134.695  0.00  0.00    +0.000 A 
ATOM     28  C   UNL     1     113.287 129.188 136.030  0.00  0.00    +0.000 A 
ATOM     29  C   UNL     1     113.145 129.069 134.612  0.00  0.00    +0.000 A 
ATOM     30  C   UNL     1     113.626 129.128 135.280  0.00  0.00    +0.000 A 
ENDBRANCH  16  25
ENDBRANCH  10  15
ENDBRANCH   9  10
BRANCH   5  31
ATOM     31  C   UNL     1     111.057 126.639 137.889  0.00  0.00    +0.000 C 
BRANCH  31  32
ATOM     32  O   UNL     1     110.446 127.039 138.273  0.00  0.00    +0.000 OA
BRANCH  32  39
ATOM     33  O   UNL     1     111.280 127.235 139.417  0.00  0.00    +0.000 OA
ATOM     34  O   UNL     1     109.316 128.051 138.924  0.00  0.00    +0.000 OA
ATOM     35  C   UNL     1     110.150 128.247 140.068  0.00  0.00    +0.000 C 
ATOM     36  C   UNL     1     110.850 128.092 140.477  0.00  0.00    +0.000 C 
ATOM     37  C   UNL     1     110.016 127.896 139.333  0.00  0.00    +0.000 C 
ATOM     38  C   UNL     1     111.415 127.586 140.152  0.00  0.00    +0.000 C 
ATOM     39  C   UNL     1     110.581 127.390 139.008  0.00  0.00    +0.000 C 
ATOM     40  C   UNL     1     112.114 127.432 140.561  0.00  0.00    +0.000 C 
BRANCH  35  41
ATOM     41  O   UNL     1     109.585 128.752 140.393  0.00  0.00    +0.000 OA
BRANCH  41  46
ATOM     42  O   UNL     1     110.177 129.915 139.810  0.00  0.00    +0.000 OA
ATOM     43  O   UNL     1     108.128 129.523 140.452  0.00  0.00    +0.000 OA
ATOM     44  O   UNL     1     107.991 131.072 139.898  0.00  0.00    +0.000 OA
ATOM     45  O   UNL     1     109.311 131.849 139.286  0.00  0.00    +0.000 OA
ATOM     46  C   UNL     1     109.517 129.527 140.116  0.00  0.00    +0.000 C 
ATOM     47  C   UNL     1     108.789 129.912 140.145  0.00  0.00    +0.000 C 
ATOM     48  C   UNL     1     108.719 130.686 139.869  0.00  0.00    +0.000 C 
ATOM     49  C   UNL     1     109.380 131.074 139.563  0.00  0.00    +0.000 C 
ATOM     50  C   UNL     1     110.109 130.689 139.533  0.00  0.00    +0.000 C 
ATOM     51  C   UNL     1     110.769 131.078 139.227  0.00  0.00    +0.000 C 
ENDBRANCH  41  46
ENDBRANCH  35  41
BRANCH  36  52
ATOM     52  O   UNL     1     110.984 128.443 141.211  0.00  0.00    +0.000 OA
BRANCH  52  54
ATOM     53  O   UNL     1     110.534 127.412 142.093  0.00  0.00    +0.000 OA
ATOM     54  C   UNL     1     111.101 127.971 141.878  0.00  0.00    +0.000 C 
ATOM     55  C   UNL     1     111.787 128.058 142.329  0.00  0.00    +0.000 C 
ENDBRANCH  52  54
ENDBRANCH  36  52
ENDBRANCH  32  39
ENDBRANCH  31  32
ENDBRANCH   5  31
TORSDOF 10
ENDMDL
MODEL 10
REMARK VINA RESULT:     -10.2      1.227      3.189
REMARK  Name = 44258773
REMARK  10 active torsions:
REMARK  status: ('A' for Active; 'I' for Inactive)
REMARK    1  A    between atoms: O_1  and  C_21
REMARK    2  A    between atoms: O_1  and  C_26
REMARK    3  A    between atoms: O_3  and  C_25
REMARK    4  A    between atoms: O_3  and  C_33
REMARK    5  A    between atoms: O_5  and  C_22
REMARK    6  A    between atoms: O_5  and  C_39
REMARK    7  A    between atoms: O_13  and  C_37
REMARK    8  A    between atoms: O_13  and  C_40
REMARK    9  A    between atoms: C_29  and  C_33
REMARK   10  A    between atoms: C_42  and  C_45
REMARK                            x       y       z     vdW  Elec       q    Type
REMARK                         _______ _______ _______ _____ _____    ______ ____
ROOT
ATOM      1  O   UNL     1     113.601 129.775 136.670  0.00  0.00    +0.000 OA
ATOM      2  O   UNL     1     115.028 129.201 135.120  0.00  0.00    +0.000 OA
ATOM      3  O   UNL     1     115.164 130.845 135.076  0.00  0.00    +0.000 OA
ATOM      4  O   UNL     1     114.258 131.776 136.094  0.00  0.00    +0.000 OA
ATOM      5  C   UNL     1     114.054 129.310 136.161  0.00  0.00    +0.000 C 
ATOM      6  C   UNL     1     114.575 129.667 135.629  0.00  0.00    +0.000 C 
ATOM      7  C   UNL     1     114.643 130.488 135.608  0.00  0.00    +0.000 C 
ATOM      8  C   UNL     1     114.190 130.954 136.117  0.00  0.00    +0.000 C 
ATOM      9  C   UNL     1     113.669 130.597 136.647  0.00  0.00    +0.000 C 
ENDROOT
BRANCH   9  10
ATOM     10  O   UNL     1     113.216 131.062 137.156  0.00  0.00    +0.000 OA
BRANCH  10  15
ATOM     11  O   UNL     1     112.091 130.450 138.924  0.00  0.00    +0.000 OA
ATOM     12  O   UNL     1     114.444 130.681 138.191  0.00  0.00    +0.000 OA
ATOM     13  O   UNL     1     114.918 130.222 139.474  0.00  0.00    +0.000 OA
ATOM     14  O   UNL     1     112.976 129.515 141.537  0.00  0.00    +0.000 OA
ATOM     15  C   UNL     1     113.046 130.795 137.919  0.00  0.00    +0.000 A 
ATOM     16  C   UNL     1     112.261 130.717 138.163  0.00  0.00    +0.000 A 
ATOM     17  C   UNL     1     113.660 130.604 138.435  0.00  0.00    +0.000 A 
ATOM     18  C   UNL     1     113.489 130.337 139.198  0.00  0.00    +0.000 A 
ATOM     19  C   UNL     1     112.705 130.259 139.442  0.00  0.00    +0.000 A 
ATOM     20  C   UNL     1     114.137 130.142 139.727  0.00  0.00    +0.000 A 
ATOM     21  C   UNL     1     112.514 129.982 140.232  0.00  0.00    +0.000 A 
ATOM     22  C   UNL     1     113.966 129.862 140.522  0.00  0.00    +0.000 A 
ATOM     23  C   UNL     1     113.149 129.782 140.776  0.00  0.00    +0.000 A 
BRANCH  16  25
ATOM     24  O   UNL     1     109.808 131.477 136.091  0.00  0.00    +0.000 OA
ATOM     25  C   UNL     1     111.648 130.908 137.645  0.00  0.00    +0.000 A 
ATOM     26  C   UNL     1     111.508 131.695 137.442  0.00  0.00    +0.000 A 
ATOM     27  C   UNL     1     111.174 130.311 137.330  0.00  0.00    +0.000 A 
ATOM     28  C   UNL     1     110.895 131.886 136.924  0.00  0.00    +0.000 A 
ATOM     29  C   UNL     1     110.561 130.500 136.812  0.00  0.00    +0.000 A 
ATOM     30  C   UNL     1     110.421 131.288 136.609  0.00  0.00    +0.000 A 
ENDBRANCH  16  25
ENDBRANCH  10  15
ENDBRANCH   9  10
BRANCH   5  31
ATOM     31  C   UNL     1     113.986 128.488 136.183  0.00  0.00    +0.000 C 
BRANCH  31  32
ATOM     32  O   UNL     1     113.265 128.128 136.005  0.00  0.00    +0.000 OA
BRANCH  32  39
ATOM     33  O   UNL     1     113.714 126.901 136.584  0.00  0.00    +0.000 OA
ATOM     34  O   UNL     1     111.723 127.542 135.960  0.00  0.00    +0.000 OA
ATOM     35  C   UNL     1     112.172 126.315 136.539  0.00  0.00    +0.000 C 
ATOM     36  C   UNL     1     112.783 125.848 136.839  0.00  0.00    +0.000 C 
ATOM     37  C   UNL     1     112.334 127.075 136.261  0.00  0.00    +0.000 C 
ATOM     38  C   UNL     1     113.554 126.141 136.862  0.00  0.00    +0.000 C 
ATOM     39  C   UNL     1     113.105 127.368 136.283  0.00  0.00    +0.000 C 
ATOM     40  C   UNL     1     114.164 125.674 137.162  0.00  0.00    +0.000 C 
BRANCH  35  41
ATOM     41  O   UNL     1     111.402 126.023 136.516  0.00  0.00    +0.000 OA
BRANCH  41  46
ATOM     42  O   UNL     1     111.094 126.523 137.819  0.00  0.00    +0.000 OA
ATOM     43  O   UNL     1     109.798 126.045 136.129  0.00  0.00    +0.000 OA
ATOM     44  O   UNL     1     108.688 126.557 137.238  0.00  0.00    +0.000 OA
ATOM     45  O   UNL     1     109.183 127.046 138.734  0.00  0.00    +0.000 OA
ATOM     46  C   UNL     1     110.847 126.279 137.071  0.00  0.00    +0.000 C 
ATOM     47  C   UNL     1     110.045 126.290 136.877  0.00  0.00    +0.000 C 
ATOM     48  C   UNL     1     109.490 126.546 137.431  0.00  0.00    +0.000 C 
ATOM     49  C   UNL     1     109.738 126.790 138.179  0.00  0.00    +0.000 C 
ATOM     50  C   UNL     1     110.540 126.779 138.373  0.00  0.00    +0.000 C 
ATOM     51  C   UNL     1     110.786 127.024 139.121  0.00  0.00    +0.000 C 
ENDBRANCH  41  46
ENDBRANCH  35  41
BRANCH  36  52
ATOM     52  O   UNL     1     112.622 125.088 137.117  0.00  0.00    +0.000 OA
BRANCH  52  54
ATOM     53  O   UNL     1     112.797 124.316 135.927  0.00  0.00    +0.000 OA
ATOM     54  C   UNL     1     112.941 124.433 136.731  0.00  0.00    +0.000 C 
ATOM     55  C   UNL     1     113.405 123.893 137.150  0.00  0.00    +0.000 C 
ENDBRANCH  52  54
ENDBRANCH  36  52
ENDBRANCH  32  39
ENDBRANCH  31  32
ENDBRANCH   5  31
TORSDOF 10
ENDMDL
