MODEL 1
REMARK VINA RESULT:      -9.0      0.000      0.000
REMARK  Name = 131833012
REMARK  17 active torsions:
REMARK  status: ('A' for Active; 'I' for Inactive)
REMARK    1  A    between atoms: SG_1  and  C_33
REMARK    2  A    between atoms: SG_1  and  CB_35
REMARK    3  A    between atoms: O_3  and  C_26
REMARK    4  A    between atoms: O_3  and  C_28
REMARK    5  A    between atoms: N_19  and  CA_36
REMARK    6  A    between atoms: N_20  and  CA_45
REMARK    7  A    between atoms: C_24  and  C_27
REMARK    8  A    between atoms: C_29  and  C_34
REMARK    9  A    between atoms: C_34  and  C_37
REMARK   10  A    between atoms: CB_35  and  CA_36
REMARK   11  A    between atoms: CA_36  and  C_39
REMARK   12  A    between atoms: C_38  and  C_40
REMARK   13  A    between atoms: C_38  and  C_41
REMARK   14  A    between atoms: C_40  and  CA_42
REMARK   15  A    between atoms: CA_42  and  C_46
REMARK   16  A    between atoms: C_43  and  C_44
REMARK   17  A    between atoms: CA_45  and  C_49
REMARK                            x       y       z     vdW  Elec       q    Type
REMARK                         _______ _______ _______ _____ _____    ______ ____
ROOT
ATOM      1  O   UNL     1     109.563 128.886 138.377  0.00  0.00    +0.000 OA
ATOM      2  O   UNL     1     112.829 128.417 138.434  0.00  0.00    +0.000 OA
ATOM      3  O   UNL     1     110.469 129.537 139.593  0.00  0.00    +0.000 OA
ATOM      4  C   UNL     1     110.743 128.326 137.797  0.00  0.00    +0.000 A 
ATOM      5  C   UNL     1     111.559 128.210 137.812  0.00  0.00    +0.000 A 
ATOM      6  C   UNL     1     110.379 128.770 138.392  0.00  0.00    +0.000 A 
ATOM      7  C   UNL     1     112.012 128.535 138.420  0.00  0.00    +0.000 A 
ATOM      8  C   UNL     1     110.832 129.095 139.000  0.00  0.00    +0.000 A 
ATOM      9  C   UNL     1     111.649 128.977 139.013  0.00  0.00    +0.000 A 
ENDROOT
BRANCH   5  11
ATOM     10  O   UNL     1     112.294 128.148 136.587  0.00  0.00    +0.000 OA
ATOM     11  C   UNL     1     111.923 127.766 137.218  0.00  0.00    +0.000 C 
BRANCH  11  12
ATOM     12  C   UNL     1     111.915 126.943 137.255  0.00  0.00    +0.000 C 
ATOM     13  C   UNL     1     112.358 126.501 136.716  0.00  0.00    +0.000 C 
BRANCH  13  15
ATOM     14  O   UNL     1     112.329 123.205 136.868  0.00  0.00    +0.000 OA
ATOM     15  C   UNL     1     112.350 125.677 136.754  0.00  0.00    +0.000 A 
ATOM     16  C   UNL     1     111.718 125.255 136.433  0.00  0.00    +0.000 A 
ATOM     17  C   UNL     1     112.976 125.275 137.112  0.00  0.00    +0.000 A 
ATOM     18  C   UNL     1     111.711 124.431 136.471  0.00  0.00    +0.000 A 
ATOM     19  C   UNL     1     112.968 124.451 137.150  0.00  0.00    +0.000 A 
ATOM     20  C   UNL     1     112.336 124.029 136.829  0.00  0.00    +0.000 A 
ENDBRANCH  13  15
ENDBRANCH  11  12
ENDBRANCH   5  11
BRANCH   9  21
ATOM     21  SG  UNL     1     112.102 129.303 139.621  0.00  0.00    +0.000 S 
BRANCH  21  22
ATOM     22  CB  UNL     1     112.321 128.838 140.267  0.00  0.00    +0.000 C 
BRANCH  22  23
ATOM     23  CA  UNL     1     112.653 129.190 140.935  0.00  0.00    +0.000 C 
BRANCH  23  25
ATOM     24  O   UNL     1     112.291 128.022 142.043  0.00  0.00    +0.000 OA
ATOM     25  N   UNL     1     112.177 129.371 141.585  0.00  0.00    +0.000 NA
ATOM     26  C   UNL     1     111.996 128.787 142.139  0.00  0.00    +0.000 C 
BRANCH  26  27
ATOM     27  C   UNL     1     111.521 128.966 142.788  0.00  0.00    +0.000 C 
BRANCH  27  28
ATOM     28  C   UNL     1     111.824 128.901 143.553  0.00  0.00    +0.000 C 
BRANCH  28  30
ATOM     29  N   UNL     1     110.538 129.188 144.104  0.00  0.00    +0.000 NA
ATOM     30  CA  UNL     1     111.350 129.089 144.202  0.00  0.00    +0.000 C 
BRANCH  30  33
ATOM     31  O   UNL     1     111.915 129.925 145.214  0.00  0.00    +0.000 OA
ATOM     32  OXT UNL     1     111.806 128.517 145.430  0.00  0.00    +0.000 OA
ATOM     33  C   UNL     1     111.690 129.177 144.948  0.00  0.00    +0.000 C 
ENDBRANCH  30  33
ENDBRANCH  28  30
ENDBRANCH  27  28
ENDBRANCH  26  27
ENDBRANCH  23  25
BRANCH  23  36
ATOM     34  O   UNL     1     114.010 128.747 140.961  0.00  0.00    +0.000 OA
ATOM     35  N   UNL     1     113.715 130.145 140.964  0.00  0.00    +0.000 NA
ATOM     36  C   ACE A   1     113.459 129.361 140.954  0.00  0.00    +0.000 C 
BRANCH  35  37
ATOM     37  CA  UNL     1     114.521 130.316 140.982  0.00  0.00    +0.000 C 
BRANCH  37  40
ATOM     38  O   UNL     1     115.014 131.451 140.267  0.00  0.00    +0.000 OA
ATOM     39  OXT UNL     1     114.797 131.534 141.676  0.00  0.00    +0.000 OA
ATOM     40  C   UNL     1     114.777 131.100 140.975  0.00  0.00    +0.000 C 
ENDBRANCH  37  40
ENDBRANCH  35  37
ENDBRANCH  23  36
ENDBRANCH  22  23
ENDBRANCH  21  22
ENDBRANCH   9  21
BRANCH   4  41
ATOM     41  O   UNL     1     110.290 128.001 137.190  0.00  0.00    +0.000 OA
BRANCH  41  50
ATOM     42  O   UNL     1     110.214 129.202 136.419  0.00  0.00    +0.000 OA
ATOM     43  O   UNL     1     107.954 128.560 135.641  0.00  0.00    +0.000 OA
ATOM     44  O   UNL     1     108.632 129.975 135.129  0.00  0.00    +0.000 OA
ATOM     45  O   UNL     1     108.783 127.573 136.671  0.00  0.00    +0.000 OA
ATOM     46  C   UNL     1     109.047 129.482 135.644  0.00  0.00    +0.000 C 
ATOM     47  C   UNL     1     108.707 128.774 135.900  0.00  0.00    +0.000 C 
ATOM     48  C   UNL     1     109.800 129.696 135.904  0.00  0.00    +0.000 C 
ATOM     49  C   UNL     1     109.122 128.281 136.415  0.00  0.00    +0.000 C 
ATOM     50  C   UNL     1     109.876 128.495 136.674  0.00  0.00    +0.000 C 
BRANCH  48  52
ATOM     51  O   UNL     1     110.278 131.012 136.186  0.00  0.00    +0.000 OA
ATOM     52  C   UNL     1     110.138 130.403 135.648  0.00  0.00    +0.000 C 
ENDBRANCH  48  52
ENDBRANCH  41  50
ENDBRANCH   4  41
TORSDOF 17
ENDMDL
MODEL 2
REMARK VINA RESULT:      -8.7      6.475      9.177
REMARK  Name = 131833012
REMARK  17 active torsions:
REMARK  status: ('A' for Active; 'I' for Inactive)
REMARK    1  A    between atoms: SG_1  and  C_33
REMARK    2  A    between atoms: SG_1  and  CB_35
REMARK    3  A    between atoms: O_3  and  C_26
REMARK    4  A    between atoms: O_3  and  C_28
REMARK    5  A    between atoms: N_19  and  CA_36
REMARK    6  A    between atoms: N_20  and  CA_45
REMARK    7  A    between atoms: C_24  and  C_27
REMARK    8  A    between atoms: C_29  and  C_34
REMARK    9  A    between atoms: C_34  and  C_37
REMARK   10  A    between atoms: CB_35  and  CA_36
REMARK   11  A    between atoms: CA_36  and  C_39
REMARK   12  A    between atoms: C_38  and  C_40
REMARK   13  A    between atoms: C_38  and  C_41
REMARK   14  A    between atoms: C_40  and  CA_42
REMARK   15  A    between atoms: CA_42  and  C_46
REMARK   16  A    between atoms: C_43  and  C_44
REMARK   17  A    between atoms: CA_45  and  C_49
REMARK                            x       y       z     vdW  Elec       q    Type
REMARK                         _______ _______ _______ _____ _____    ______ ____
ROOT
ATOM      1  O   UNL     1     107.486 128.783 143.892  0.00  0.00    +0.000 OA
ATOM      2  O   UNL     1     104.818 127.367 142.562  0.00  0.00    +0.000 OA
ATOM      3  O   UNL     1     107.025 127.274 144.375  0.00  0.00    +0.000 OA
ATOM      4  C   UNL     1     106.383 128.829 142.985  0.00  0.00    +0.000 A 
ATOM      5  C   UNL     1     105.716 128.475 142.653  0.00  0.00    +0.000 A 
ATOM      6  C   UNL     1     106.819 128.428 143.560  0.00  0.00    +0.000 A 
ATOM      7  C   UNL     1     105.485 127.720 142.895  0.00  0.00    +0.000 A 
ATOM      8  C   UNL     1     106.589 127.674 143.802  0.00  0.00    +0.000 A 
ATOM      9  C   UNL     1     105.922 127.320 143.468  0.00  0.00    +0.000 A 
ENDROOT
BRANCH   5  11
ATOM     10  O   UNL     1     105.478 128.799 141.281  0.00  0.00    +0.000 OA
ATOM     11  C   UNL     1     105.279 128.876 142.078  0.00  0.00    +0.000 C 
BRANCH  11  12
ATOM     12  C   UNL     1     104.644 129.353 142.302  0.00  0.00    +0.000 C 
ATOM     13  C   UNL     1     104.198 129.741 141.726  0.00  0.00    +0.000 C 
BRANCH  13  15
ATOM     14  O   UNL     1     101.660 131.650 142.622  0.00  0.00    +0.000 OA
ATOM     15  C   UNL     1     103.563 130.218 141.949  0.00  0.00    +0.000 A 
ATOM     16  C   UNL     1     102.837 130.147 141.563  0.00  0.00    +0.000 A 
ATOM     17  C   UNL     1     103.654 130.766 142.560  0.00  0.00    +0.000 A 
ATOM     18  C   UNL     1     102.203 130.625 141.787  0.00  0.00    +0.000 A 
ATOM     19  C   UNL     1     103.020 131.243 142.783  0.00  0.00    +0.000 A 
ATOM     20  C   UNL     1     102.294 131.172 142.397  0.00  0.00    +0.000 A 
ENDBRANCH  13  15
ENDBRANCH  11  12
ENDBRANCH   5  11
BRANCH   9  21
ATOM     21  SG  UNL     1     105.691 126.566 143.710  0.00  0.00    +0.000 S 
BRANCH  21  22
ATOM     22  CB  UNL     1     106.117 125.904 143.460  0.00  0.00    +0.000 C 
BRANCH  22  23
ATOM     23  CA  UNL     1     105.784 125.152 143.523  0.00  0.00    +0.000 C 
BRANCH  23  25
ATOM     24  O   UNL     1     106.787 124.509 142.381  0.00  0.00    +0.000 OA
ATOM     25  N   UNL     1     105.467 124.785 142.855  0.00  0.00    +0.000 NA
ATOM     26  C   UNL     1     105.968 124.464 142.284  0.00  0.00    +0.000 C 
BRANCH  26  27
ATOM     27  C   UNL     1     105.652 124.097 141.616  0.00  0.00    +0.000 C 
BRANCH  27  28
ATOM     28  C   UNL     1     105.906 124.320 140.863  0.00  0.00    +0.000 C 
BRANCH  28  30
ATOM     29  N   UNL     1     105.334 123.174 140.231  0.00  0.00    +0.000 NA
ATOM     30  CA  UNL     1     105.582 123.959 140.196  0.00  0.00    +0.000 C 
BRANCH  30  33
ATOM     31  O   UNL     1     104.939 124.166 138.937  0.00  0.00    +0.000 OA
ATOM     32  OXT UNL     1     106.003 125.027 139.345  0.00  0.00    +0.000 OA
ATOM     33  C   UNL     1     105.508 124.384 139.493  0.00  0.00    +0.000 C 
ENDBRANCH  30  33
ENDBRANCH  28  30
ENDBRANCH  27  28
ENDBRANCH  26  27
ENDBRANCH  23  25
BRANCH  23  36
ATOM     34  O   UNL     1     106.476 124.581 144.634  0.00  0.00    +0.000 OA
ATOM     35  N   UNL     1     105.047 124.568 144.599  0.00  0.00    +0.000 NA
ATOM     36  C   ACE A   1     105.769 124.767 144.252  0.00  0.00    +0.000 C 
BRANCH  35  37
ATOM     37  CA  UNL     1     105.032 124.183 145.328  0.00  0.00    +0.000 C 
BRANCH  37  40
ATOM     38  O   UNL     1     103.726 124.418 145.859  0.00  0.00    +0.000 OA
ATOM     39  OXT UNL     1     104.202 123.081 145.694  0.00  0.00    +0.000 OA
ATOM     40  C   UNL     1     104.320 123.894 145.627  0.00  0.00    +0.000 C 
ENDBRANCH  37  40
ENDBRANCH  35  37
ENDBRANCH  23  36
ENDBRANCH  22  23
ENDBRANCH  21  22
ENDBRANCH   9  21
BRANCH   4  41
ATOM     41  O   UNL     1     106.613 129.584 142.743  0.00  0.00    +0.000 OA
BRANCH  41  50
ATOM     42  O   UNL     1     107.703 129.098 141.957  0.00  0.00    +0.000 OA
ATOM     43  O   UNL     1     108.891 131.245 142.279  0.00  0.00    +0.000 OA
ATOM     44  O   UNL     1     109.585 130.044 141.385  0.00  0.00    +0.000 OA
ATOM     45  O   UNL     1     107.405 131.015 142.958  0.00  0.00    +0.000 OA
ATOM     46  C   UNL     1     108.842 129.929 141.724  0.00  0.00    +0.000 C 
ATOM     47  C   UNL     1     108.495 130.530 142.171  0.00  0.00    +0.000 C 
ATOM     48  C   UNL     1     108.446 129.213 141.617  0.00  0.00    +0.000 C 
ATOM     49  C   UNL     1     107.752 130.414 142.511  0.00  0.00    +0.000 C 
ATOM     50  C   UNL     1     107.356 129.698 142.403  0.00  0.00    +0.000 C 
BRANCH  48  52
ATOM     51  O   UNL     1     108.441 128.367 140.466  0.00  0.00    +0.000 OA
ATOM     52  C   UNL     1     108.793 128.613 141.170  0.00  0.00    +0.000 C 
ENDBRANCH  48  52
ENDBRANCH  41  50
ENDBRANCH   4  41
TORSDOF 17
ENDMDL
MODEL 3
REMARK VINA RESULT:      -8.7      1.779      4.189
REMARK  Name = 131833012
REMARK  17 active torsions:
REMARK  status: ('A' for Active; 'I' for Inactive)
REMARK    1  A    between atoms: SG_1  and  C_33
REMARK    2  A    between atoms: SG_1  and  CB_35
REMARK    3  A    between atoms: O_3  and  C_26
REMARK    4  A    between atoms: O_3  and  C_28
REMARK    5  A    between atoms: N_19  and  CA_36
REMARK    6  A    between atoms: N_20  and  CA_45
REMARK    7  A    between atoms: C_24  and  C_27
REMARK    8  A    between atoms: C_29  and  C_34
REMARK    9  A    between atoms: C_34  and  C_37
REMARK   10  A    between atoms: CB_35  and  CA_36
REMARK   11  A    between atoms: CA_36  and  C_39
REMARK   12  A    between atoms: C_38  and  C_40
REMARK   13  A    between atoms: C_38  and  C_41
REMARK   14  A    between atoms: C_40  and  CA_42
REMARK   15  A    between atoms: CA_42  and  C_46
REMARK   16  A    between atoms: C_43  and  C_44
REMARK   17  A    between atoms: CA_45  and  C_49
REMARK                            x       y       z     vdW  Elec       q    Type
REMARK                         _______ _______ _______ _____ _____    ______ ____
ROOT
ATOM      1  O   UNL     1     112.229 125.819 138.821  0.00  0.00    +0.000 OA
ATOM      2  O   UNL     1     112.475 128.989 137.938  0.00  0.00    +0.000 OA
ATOM      3  O   UNL     1     112.846 126.925 139.879  0.00  0.00    +0.000 OA
ATOM      4  C   UNL     1     112.043 126.851 137.851  0.00  0.00    +0.000 A 
ATOM      5  C   UNL     1     112.105 127.644 137.630  0.00  0.00    +0.000 A 
ATOM      6  C   UNL     1     112.291 126.612 138.601  0.00  0.00    +0.000 A 
ATOM      7  C   UNL     1     112.414 128.197 138.159  0.00  0.00    +0.000 A 
ATOM      8  C   UNL     1     112.599 127.165 139.130  0.00  0.00    +0.000 A 
ATOM      9  C   UNL     1     112.660 127.957 138.908  0.00  0.00    +0.000 A 
ENDROOT
BRANCH   5  11
ATOM     10  O   UNL     1     112.370 127.819 136.236  0.00  0.00    +0.000 OA
ATOM     11  C   UNL     1     111.858 127.883 136.880  0.00  0.00    +0.000 C 
BRANCH  11  12
ATOM     12  C   UNL     1     111.098 128.187 136.774  0.00  0.00    +0.000 C 
ATOM     13  C   UNL     1     110.879 128.504 136.044  0.00  0.00    +0.000 C 
BRANCH  13  15
ATOM     14  O   UNL     1     107.841 129.721 135.621  0.00  0.00    +0.000 OA
ATOM     15  C   UNL     1     110.119 128.807 135.938  0.00  0.00    +0.000 A 
ATOM     16  C   UNL     1     109.474 128.296 135.887  0.00  0.00    +0.000 A 
ATOM     17  C   UNL     1     110.006 129.623 135.883  0.00  0.00    +0.000 A 
ATOM     18  C   UNL     1     108.714 128.601 135.781  0.00  0.00    +0.000 A 
ATOM     19  C   UNL     1     109.246 129.927 135.777  0.00  0.00    +0.000 A 
ATOM     20  C   UNL     1     108.600 129.416 135.726  0.00  0.00    +0.000 A 
ENDBRANCH  13  15
ENDBRANCH  11  12
ENDBRANCH   5  11
BRANCH   9  21
ATOM     21  SG  UNL     1     112.969 128.510 139.437  0.00  0.00    +0.000 S 
BRANCH  21  22
ATOM     22  CB  UNL     1     112.540 128.722 140.110  0.00  0.00    +0.000 C 
BRANCH  22  23
ATOM     23  CA  UNL     1     112.613 129.482 140.424  0.00  0.00    +0.000 C 
BRANCH  23  25
ATOM     24  O   UNL     1     111.168 129.469 141.220  0.00  0.00    +0.000 OA
ATOM     25  N   UNL     1     112.043 130.054 140.253  0.00  0.00    +0.000 NA
ATOM     26  C   UNL     1     111.321 130.048 140.651  0.00  0.00    +0.000 C 
BRANCH  26  27
ATOM     27  C   UNL     1     110.751 130.620 140.481  0.00  0.00    +0.000 C 
BRANCH  27  28
ATOM     28  C   UNL     1     109.999 130.391 140.230  0.00  0.00    +0.000 C 
BRANCH  28  30
ATOM     29  N   UNL     1     109.694 131.749 139.905  0.00  0.00    +0.000 NA
ATOM     30  CA  UNL     1     109.463 130.960 139.964  0.00  0.00    +0.000 C 
BRANCH  30  33
ATOM     31  O   UNL     1     108.574 130.147 139.197  0.00  0.00    +0.000 OA
ATOM     32  OXT UNL     1     108.049 131.109 140.114  0.00  0.00    +0.000 OA
ATOM     33  C   UNL     1     108.696 130.738 139.758  0.00  0.00    +0.000 C 
ENDBRANCH  30  33
ENDBRANCH  28  30
ENDBRANCH  27  28
ENDBRANCH  26  27
ENDBRANCH  23  25
BRANCH  23  36
ATOM     34  O   UNL     1     113.339 129.300 141.640  0.00  0.00    +0.000 OA
ATOM     35  N   UNL     1     113.811 130.223 140.658  0.00  0.00    +0.000 NA
ATOM     36  C   ACE A   1     113.254 129.668 140.907  0.00  0.00    +0.000 C 
BRANCH  35  37
ATOM     37  CA  UNL     1     114.453 130.410 141.141  0.00  0.00    +0.000 C 
BRANCH  37  40
ATOM     38  O   UNL     1     114.976 131.736 141.046  0.00  0.00    +0.000 OA
ATOM     39  OXT UNL     1     115.671 130.648 140.434  0.00  0.00    +0.000 OA
ATOM     40  C   UNL     1     115.033 130.931 140.874  0.00  0.00    +0.000 C 
ENDBRANCH  37  40
ENDBRANCH  35  37
ENDBRANCH  23  36
ENDBRANCH  22  23
ENDBRANCH  21  22
ENDBRANCH   9  21
BRANCH   4  41
ATOM     41  O   UNL     1     111.735 126.298 137.322  0.00  0.00    +0.000 OA
BRANCH  41  50
ATOM     42  O   UNL     1     113.013 125.718 137.055  0.00  0.00    +0.000 OA
ATOM     43  O   UNL     1     111.917 123.583 136.450  0.00  0.00    +0.000 OA
ATOM     44  O   UNL     1     113.561 123.713 136.386  0.00  0.00    +0.000 OA
ATOM     45  O   UNL     1     111.004 124.875 136.918  0.00  0.00    +0.000 OA
ATOM     46  C   UNL     1     113.105 124.360 136.620  0.00  0.00    +0.000 C 
ATOM     47  C   UNL     1     112.282 124.294 136.652  0.00  0.00    +0.000 C 
ATOM     48  C   UNL     1     113.470 125.072 136.822  0.00  0.00    +0.000 C 
ATOM     49  C   UNL     1     111.827 124.941 136.886  0.00  0.00    +0.000 C 
ATOM     50  C   UNL     1     112.192 125.652 137.088  0.00  0.00    +0.000 C 
BRANCH  48  52
ATOM     51  O   UNL     1     114.642 125.684 136.282  0.00  0.00    +0.000 OA
ATOM     52  C   UNL     1     114.291 125.137 136.789  0.00  0.00    +0.000 C 
ENDBRANCH  48  52
ENDBRANCH  41  50
ENDBRANCH   4  41
TORSDOF 17
ENDMDL
MODEL 4
REMARK VINA RESULT:      -8.7      2.507      4.370
REMARK  Name = 131833012
REMARK  17 active torsions:
REMARK  status: ('A' for Active; 'I' for Inactive)
REMARK    1  A    between atoms: SG_1  and  C_33
REMARK    2  A    between atoms: SG_1  and  CB_35
REMARK    3  A    between atoms: O_3  and  C_26
REMARK    4  A    between atoms: O_3  and  C_28
REMARK    5  A    between atoms: N_19  and  CA_36
REMARK    6  A    between atoms: N_20  and  CA_45
REMARK    7  A    between atoms: C_24  and  C_27
REMARK    8  A    between atoms: C_29  and  C_34
REMARK    9  A    between atoms: C_34  and  C_37
REMARK   10  A    between atoms: CB_35  and  CA_36
REMARK   11  A    between atoms: CA_36  and  C_39
REMARK   12  A    between atoms: C_38  and  C_40
REMARK   13  A    between atoms: C_38  and  C_41
REMARK   14  A    between atoms: C_40  and  CA_42
REMARK   15  A    between atoms: CA_42  and  C_46
REMARK   16  A    between atoms: C_43  and  C_44
REMARK   17  A    between atoms: CA_45  and  C_49
REMARK                            x       y       z     vdW  Elec       q    Type
REMARK                         _______ _______ _______ _____ _____    ______ ____
ROOT
ATOM      1  O   UNL     1     113.815 126.053 138.958  0.00  0.00    +0.000 OA
ATOM      2  O   UNL     1     112.303 128.980 138.768  0.00  0.00    +0.000 OA
ATOM      3  O   UNL     1     113.331 126.823 140.335  0.00  0.00    +0.000 OA
ATOM      4  C   UNL     1     113.301 127.132 138.175  0.00  0.00    +0.000 A 
ATOM      5  C   UNL     1     112.923 127.864 138.128  0.00  0.00    +0.000 A 
ATOM      6  C   UNL     1     113.437 126.785 138.911  0.00  0.00    +0.000 A 
ATOM      7  C   UNL     1     112.681 128.248 138.816  0.00  0.00    +0.000 A 
ATOM      8  C   UNL     1     113.195 127.170 139.600  0.00  0.00    +0.000 A 
ATOM      9  C   UNL     1     112.817 127.902 139.551  0.00  0.00    +0.000 A 
ENDROOT
BRANCH   5  11
ATOM     10  O   UNL     1     112.043 128.152 137.038  0.00  0.00    +0.000 OA
ATOM     11  C   UNL     1     112.787 128.211 137.391  0.00  0.00    +0.000 C 
BRANCH  11  12
ATOM     12  C   UNL     1     113.395 128.615 137.008  0.00  0.00    +0.000 C 
ATOM     13  C   UNL     1     113.229 129.069 136.338  0.00  0.00    +0.000 C 
BRANCH  13  15
ATOM     14  O   UNL     1     115.662 130.687 134.804  0.00  0.00    +0.000 OA
ATOM     15  C   UNL     1     113.837 129.474 135.955  0.00  0.00    +0.000 A 
ATOM     16  C   UNL     1     114.100 130.199 136.248  0.00  0.00    +0.000 A 
ATOM     17  C   UNL     1     114.184 129.153 135.278  0.00  0.00    +0.000 A 
ATOM     18  C   UNL     1     114.708 130.604 135.864  0.00  0.00    +0.000 A 
ATOM     19  C   UNL     1     114.792 129.558 134.894  0.00  0.00    +0.000 A 
ATOM     20  C   UNL     1     115.054 130.283 135.188  0.00  0.00    +0.000 A 
ENDBRANCH  13  15
ENDBRANCH  11  12
ENDBRANCH   5  11
BRANCH   9  21
ATOM     21  SG  UNL     1     112.575 128.287 140.240  0.00  0.00    +0.000 S 
BRANCH  21  22
ATOM     22  CB  UNL     1     112.047 127.917 140.756  0.00  0.00    +0.000 C 
BRANCH  22  23
ATOM     23  CA  UNL     1     111.599 128.368 141.281  0.00  0.00    +0.000 C 
BRANCH  23  25
ATOM     24  O   UNL     1     110.656 127.138 141.847  0.00  0.00    +0.000 OA
ATOM     25  N   UNL     1     110.779 128.406 141.197  0.00  0.00    +0.000 NA
ATOM     26  C   UNL     1     110.307 127.790 141.480  0.00  0.00    +0.000 C 
BRANCH  26  27
ATOM     27  C   UNL     1     109.488 127.826 141.396  0.00  0.00    +0.000 C 
BRANCH  27  28
ATOM     28  C   UNL     1     109.013 127.235 141.722  0.00  0.00    +0.000 C 
BRANCH  28  30
ATOM     29  N   UNL     1     107.844 127.955 141.326  0.00  0.00    +0.000 NA
ATOM     30  CA  UNL     1     108.191 127.294 141.674  0.00  0.00    +0.000 C 
BRANCH  30  33
ATOM     31  O   UNL     1     107.602 126.621 142.789  0.00  0.00    +0.000 OA
ATOM     32  OXT UNL     1     107.357 126.152 141.461  0.00  0.00    +0.000 OA
ATOM     33  C   UNL     1     107.717 126.689 141.975  0.00  0.00    +0.000 C 
ENDBRANCH  30  33
ENDBRANCH  28  30
ENDBRANCH  27  28
ENDBRANCH  26  27
ENDBRANCH  23  25
BRANCH  23  36
ATOM     34  O   UNL     1     112.391 128.373 142.470  0.00  0.00    +0.000 OA
ATOM     35  N   UNL     1     111.923 129.605 141.919  0.00  0.00    +0.000 NA
ATOM     36  C   ACE A   1     111.971 128.782 141.890  0.00  0.00    +0.000 C 
BRANCH  35  37
ATOM     37  CA  UNL     1     112.295 130.019 142.528  0.00  0.00    +0.000 C 
BRANCH  37  40
ATOM     38  O   UNL     1     111.632 131.197 142.992  0.00  0.00    +0.000 OA
ATOM     39  OXT UNL     1     112.792 131.308 142.165  0.00  0.00    +0.000 OA
ATOM     40  C   UNL     1     112.240 130.841 142.562  0.00  0.00    +0.000 C 
ENDBRANCH  37  40
ENDBRANCH  35  37
ENDBRANCH  23  36
ENDBRANCH  22  23
ENDBRANCH  21  22
ENDBRANCH   9  21
BRANCH   4  41
ATOM     41  O   UNL     1     113.543 126.747 137.486  0.00  0.00    +0.000 OA
BRANCH  41  50
ATOM     42  O   UNL     1     112.458 125.817 137.519  0.00  0.00    +0.000 OA
ATOM     43  O   UNL     1     113.825 124.178 136.267  0.00  0.00    +0.000 OA
ATOM     44  O   UNL     1     112.285 123.795 136.717  0.00  0.00    +0.000 OA
ATOM     45  O   UNL     1     114.454 125.654 136.651  0.00  0.00    +0.000 OA
ATOM     46  C   UNL     1     112.598 124.533 136.910  0.00  0.00    +0.000 C 
ATOM     47  C   UNL     1     113.369 124.724 136.684  0.00  0.00    +0.000 C 
ATOM     48  C   UNL     1     112.143 125.079 137.327  0.00  0.00    +0.000 C 
ATOM     49  C   UNL     1     113.683 125.463 136.877  0.00  0.00    +0.000 C 
ATOM     50  C   UNL     1     113.228 126.009 137.294  0.00  0.00    +0.000 C 
BRANCH  48  52
ATOM     51  O   UNL     1     110.737 125.322 137.259  0.00  0.00    +0.000 OA
ATOM     52  C   UNL     1     111.373 124.888 137.553  0.00  0.00    +0.000 C 
ENDBRANCH  48  52
ENDBRANCH  41  50
ENDBRANCH   4  41
TORSDOF 17
ENDMDL
MODEL 5
REMARK VINA RESULT:      -8.7      2.797      5.379
REMARK  Name = 131833012
REMARK  17 active torsions:
REMARK  status: ('A' for Active; 'I' for Inactive)
REMARK    1  A    between atoms: SG_1  and  C_33
REMARK    2  A    between atoms: SG_1  and  CB_35
REMARK    3  A    between atoms: O_3  and  C_26
REMARK    4  A    between atoms: O_3  and  C_28
REMARK    5  A    between atoms: N_19  and  CA_36
REMARK    6  A    between atoms: N_20  and  CA_45
REMARK    7  A    between atoms: C_24  and  C_27
REMARK    8  A    between atoms: C_29  and  C_34
REMARK    9  A    between atoms: C_34  and  C_37
REMARK   10  A    between atoms: CB_35  and  CA_36
REMARK   11  A    between atoms: CA_36  and  C_39
REMARK   12  A    between atoms: C_38  and  C_40
REMARK   13  A    between atoms: C_38  and  C_41
REMARK   14  A    between atoms: C_40  and  CA_42
REMARK   15  A    between atoms: CA_42  and  C_46
REMARK   16  A    between atoms: C_43  and  C_44
REMARK   17  A    between atoms: CA_45  and  C_49
REMARK                            x       y       z     vdW  Elec       q    Type
REMARK                         _______ _______ _______ _____ _____    ______ ____
ROOT
ATOM      1  O   UNL     1     112.660 126.222 138.979  0.00  0.00    +0.000 OA
ATOM      2  O   UNL     1     111.012 128.577 137.357  0.00  0.00    +0.000 OA
ATOM      3  O   UNL     1     111.339 126.928 139.669  0.00  0.00    +0.000 OA
ATOM      4  C   UNL     1     112.497 127.046 137.823  0.00  0.00    +0.000 A 
ATOM      5  C   UNL     1     112.085 127.635 137.418  0.00  0.00    +0.000 A 
ATOM      6  C   UNL     1     112.248 126.810 138.574  0.00  0.00    +0.000 A 
ATOM      7  C   UNL     1     111.424 127.988 137.763  0.00  0.00    +0.000 A 
ATOM      8  C   UNL     1     111.587 127.164 138.919  0.00  0.00    +0.000 A 
ATOM      9  C   UNL     1     111.175 127.752 138.513  0.00  0.00    +0.000 A 
ENDROOT
BRANCH   5  11
ATOM     10  O   UNL     1     111.935 127.601 135.997  0.00  0.00    +0.000 OA
ATOM     11  C   UNL     1     112.334 127.870 136.667  0.00  0.00    +0.000 C 
BRANCH  11  12
ATOM     12  C   UNL     1     112.982 128.375 136.587  0.00  0.00    +0.000 C 
ATOM     13  C   UNL     1     113.117 128.762 135.871  0.00  0.00    +0.000 C 
BRANCH  13  15
ATOM     14  O   UNL     1     115.710 130.778 135.551  0.00  0.00    +0.000 OA
ATOM     15  C   UNL     1     113.765 129.266 135.791  0.00  0.00    +0.000 A 
ATOM     16  C   UNL     1     113.784 129.982 136.201  0.00  0.00    +0.000 A 
ATOM     17  C   UNL     1     114.394 129.054 135.301  0.00  0.00    +0.000 A 
ATOM     18  C   UNL     1     114.432 130.486 136.120  0.00  0.00    +0.000 A 
ATOM     19  C   UNL     1     115.042 129.558 135.221  0.00  0.00    +0.000 A 
ATOM     20  C   UNL     1     115.061 130.274 135.631  0.00  0.00    +0.000 A 
ENDBRANCH  13  15
ENDBRANCH  11  12
ENDBRANCH   5  11
BRANCH   9  21
ATOM     21  SG  UNL     1     110.515 128.106 138.858  0.00  0.00    +0.000 S 
BRANCH  21  22
ATOM     22  CB  UNL     1     110.612 128.702 139.421  0.00  0.00    +0.000 C 
BRANCH  22  23
ATOM     23  CA  UNL     1     109.953 129.097 139.721  0.00  0.00    +0.000 C 
BRANCH  23  25
ATOM     24  O   UNL     1     110.499 130.651 139.826  0.00  0.00    +0.000 OA
ATOM     25  N   UNL     1     109.592 129.692 139.277  0.00  0.00    +0.000 NA
ATOM     26  C   UNL     1     109.865 130.469 139.330  0.00  0.00    +0.000 C 
BRANCH  26  27
ATOM     27  C   UNL     1     109.505 131.064 138.886  0.00  0.00    +0.000 C 
BRANCH  27  28
ATOM     28  C   UNL     1     109.926 131.746 138.692  0.00  0.00    +0.000 C 
BRANCH  28  30
ATOM     29  N   UNL     1     108.787 132.275 138.010  0.00  0.00    +0.000 NA
ATOM     30  CA  UNL     1     109.591 132.308 138.189  0.00  0.00    +0.000 C 
BRANCH  30  33
ATOM     31  O   UNL     1     110.273 133.557 138.322  0.00  0.00    +0.000 OA
ATOM     32  OXT UNL     1     110.319 132.846 137.083  0.00  0.00    +0.000 OA
ATOM     33  C   UNL     1     110.061 132.903 137.865  0.00  0.00    +0.000 C 
ENDBRANCH  30  33
ENDBRANCH  28  30
ENDBRANCH  27  28
ENDBRANCH  26  27
ENDBRANCH  23  25
BRANCH  23  36
ATOM     34  O   UNL     1     110.121 129.006 141.137  0.00  0.00    +0.000 OA
ATOM     35  N   UNL     1     108.892 128.593 140.536  0.00  0.00    +0.000 NA
ATOM     36  C   ACE A   1     109.656 128.899 140.464  0.00  0.00    +0.000 C 
BRANCH  35  37
ATOM     37  CA  UNL     1     108.595 128.394 141.279  0.00  0.00    +0.000 C 
BRANCH  37  40
ATOM     38  O   UNL     1     107.197 128.589 141.498  0.00  0.00    +0.000 OA
ATOM     39  OXT UNL     1     107.709 127.274 141.272  0.00  0.00    +0.000 OA
ATOM     40  C   UNL     1     107.834 128.086 141.349  0.00  0.00    +0.000 C 
ENDBRANCH  37  40
ENDBRANCH  35  37
ENDBRANCH  23  36
ENDBRANCH  22  23
ENDBRANCH  21  22
ENDBRANCH   9  21
BRANCH   4  41
ATOM     41  O   UNL     1     113.158 126.693 137.477  0.00  0.00    +0.000 OA
BRANCH  41  50
ATOM     42  O   UNL     1     112.458 125.509 137.091  0.00  0.00    +0.000 OA
ATOM     43  O   UNL     1     114.552 124.205 137.291  0.00  0.00    +0.000 OA
ATOM     44  O   UNL     1     113.153 123.455 136.838  0.00  0.00    +0.000 OA
ATOM     45  O   UNL     1     114.554 125.824 137.611  0.00  0.00    +0.000 OA
ATOM     46  C   UNL     1     113.154 124.265 136.998  0.00  0.00    +0.000 C 
ATOM     47  C   UNL     1     113.854 124.639 137.225  0.00  0.00    +0.000 C 
ATOM     48  C   UNL     1     112.456 124.699 136.931  0.00  0.00    +0.000 C 
ATOM     49  C   UNL     1     113.854 125.449 137.384  0.00  0.00    +0.000 C 
ATOM     50  C   UNL     1     113.156 125.883 137.317  0.00  0.00    +0.000 C 
BRANCH  48  52
ATOM     51  O   UNL     1     111.376 124.549 136.009  0.00  0.00    +0.000 OA
ATOM     52  C   UNL     1     111.757 124.325 136.705  0.00  0.00    +0.000 C 
ENDBRANCH  48  52
ENDBRANCH  41  50
ENDBRANCH   4  41
TORSDOF 17
ENDMDL
MODEL 6
REMARK VINA RESULT:      -8.6      2.837      5.725
REMARK  Name = 131833012
REMARK  17 active torsions:
REMARK  status: ('A' for Active; 'I' for Inactive)
REMARK    1  A    between atoms: SG_1  and  C_33
REMARK    2  A    between atoms: SG_1  and  CB_35
REMARK    3  A    between atoms: O_3  and  C_26
REMARK    4  A    between atoms: O_3  and  C_28
REMARK    5  A    between atoms: N_19  and  CA_36
REMARK    6  A    between atoms: N_20  and  CA_45
REMARK    7  A    between atoms: C_24  and  C_27
REMARK    8  A    between atoms: C_29  and  C_34
REMARK    9  A    between atoms: C_34  and  C_37
REMARK   10  A    between atoms: CB_35  and  CA_36
REMARK   11  A    between atoms: CA_36  and  C_39
REMARK   12  A    between atoms: C_38  and  C_40
REMARK   13  A    between atoms: C_38  and  C_41
REMARK   14  A    between atoms: C_40  and  CA_42
REMARK   15  A    between atoms: CA_42  and  C_46
REMARK   16  A    between atoms: C_43  and  C_44
REMARK   17  A    between atoms: CA_45  and  C_49
REMARK                            x       y       z     vdW  Elec       q    Type
REMARK                         _______ _______ _______ _____ _____    ______ ____
ROOT
ATOM      1  O   UNL     1     113.903 128.132 140.204  0.00  0.00    +0.000 OA
ATOM      2  O   UNL     1     112.087 127.858 137.463  0.00  0.00    +0.000 OA
ATOM      3  O   UNL     1     113.171 126.699 139.840  0.00  0.00    +0.000 OA
ATOM      4  C   UNL     1     113.361 128.711 139.016  0.00  0.00    +0.000 A 
ATOM      5  C   UNL     1     112.907 128.642 138.331  0.00  0.00    +0.000 A 
ATOM      6  C   UNL     1     113.449 128.063 139.519  0.00  0.00    +0.000 A 
ATOM      7  C   UNL     1     112.541 127.925 138.148  0.00  0.00    +0.000 A 
ATOM      8  C   UNL     1     113.083 127.346 139.337  0.00  0.00    +0.000 A 
ATOM      9  C   UNL     1     112.629 127.278 138.651  0.00  0.00    +0.000 A 
ENDROOT
BRANCH   5  11
ATOM     10  O   UNL     1     112.126 129.737 137.847  0.00  0.00    +0.000 OA
ATOM     11  C   UNL     1     112.819 129.291 137.827  0.00  0.00    +0.000 C 
BRANCH  11  12
ATOM     12  C   UNL     1     113.425 129.492 137.305  0.00  0.00    +0.000 C 
ATOM     13  C   UNL     1     113.285 130.039 136.703  0.00  0.00    +0.000 C 
BRANCH  13  15
ATOM     14  O   UNL     1     115.710 130.840 134.612  0.00  0.00    +0.000 OA
ATOM     15  C   UNL     1     113.891 130.240 136.181  0.00  0.00    +0.000 A 
ATOM     16  C   UNL     1     114.273 130.968 136.251  0.00  0.00    +0.000 A 
ATOM     17  C   UNL     1     114.116 129.711 135.587  0.00  0.00    +0.000 A 
ATOM     18  C   UNL     1     114.879 131.168 135.728  0.00  0.00    +0.000 A 
ATOM     19  C   UNL     1     114.722 129.912 135.065  0.00  0.00    +0.000 A 
ATOM     20  C   UNL     1     115.104 130.641 135.135  0.00  0.00    +0.000 A 
ENDBRANCH  13  15
ENDBRANCH  11  12
ENDBRANCH   5  11
BRANCH   9  21
ATOM     21  SG  UNL     1     112.263 126.562 138.469  0.00  0.00    +0.000 S 
BRANCH  21  22
ATOM     22  CB  UNL     1     111.439 126.503 138.483  0.00  0.00    +0.000 C 
BRANCH  22  23
ATOM     23  CA  UNL     1     111.078 125.761 138.480  0.00  0.00    +0.000 C 
BRANCH  23  25
ATOM     24  O   UNL     1     109.569 126.325 138.839  0.00  0.00    +0.000 OA
ATOM     25  N   UNL     1     110.687 125.491 139.155  0.00  0.00    +0.000 NA
ATOM     26  C   UNL     1     109.933 125.773 139.334  0.00  0.00    +0.000 C 
BRANCH  26  27
ATOM     27  C   UNL     1     109.541 125.503 140.008  0.00  0.00    +0.000 C 
BRANCH  27  28
ATOM     28  C   UNL     1     108.930 125.949 140.336  0.00  0.00    +0.000 C 
BRANCH  28  30
ATOM     29  N   UNL     1     108.567 124.859 141.186  0.00  0.00    +0.000 NA
ATOM     30  CA  UNL     1     108.502 125.654 140.977  0.00  0.00    +0.000 C 
BRANCH  30  33
ATOM     31  O   UNL     1     107.289 126.402 141.088  0.00  0.00    +0.000 OA
ATOM     32  OXT UNL     1     108.232 126.406 142.162  0.00  0.00    +0.000 OA
ATOM     33  C   UNL     1     108.008 126.154 141.409  0.00  0.00    +0.000 C 
ENDBRANCH  30  33
ENDBRANCH  28  30
ENDBRANCH  27  28
ENDBRANCH  26  27
ENDBRANCH  23  25
BRANCH  23  36
ATOM     34  O   UNL     1     110.705 125.522 137.123  0.00  0.00    +0.000 OA
ATOM     35  N   UNL     1     111.542 124.589 137.808  0.00  0.00    +0.000 NA
ATOM     36  C   ACE A   1     111.109 125.291 137.804  0.00  0.00    +0.000 C 
BRANCH  35  37
ATOM     37  CA  UNL     1     111.572 124.119 137.132  0.00  0.00    +0.000 C 
BRANCH  37  40
ATOM     38  O   UNL     1     112.803 123.492 136.766  0.00  0.00    +0.000 OA
ATOM     39  OXT UNL     1     111.794 122.743 137.445  0.00  0.00    +0.000 OA
ATOM     40  C   UNL     1     112.056 123.451 137.114  0.00  0.00    +0.000 C 
ENDBRANCH  37  40
ENDBRANCH  35  37
ENDBRANCH  23  36
ENDBRANCH  22  23
ENDBRANCH  21  22
ENDBRANCH   9  21
BRANCH   4  41
ATOM     41  O   UNL     1     113.727 129.428 139.198  0.00  0.00    +0.000 OA
BRANCH  41  50
ATOM     42  O   UNL     1     112.765 129.841 140.171  0.00  0.00    +0.000 OA
ATOM     43  O   UNL     1     114.560 130.930 141.483  0.00  0.00    +0.000 OA
ATOM     44  O   UNL     1     113.000 130.981 142.018  0.00  0.00    +0.000 OA
ATOM     45  O   UNL     1     114.923 130.153 140.073  0.00  0.00    +0.000 OA
ATOM     46  C   UNL     1     113.181 130.592 141.313  0.00  0.00    +0.000 C 
ATOM     47  C   UNL     1     113.962 130.567 141.045  0.00  0.00    +0.000 C 
ATOM     48  C   UNL     1     112.583 130.230 140.876  0.00  0.00    +0.000 C 
ATOM     49  C   UNL     1     114.143 130.178 140.341  0.00  0.00    +0.000 C 
ATOM     50  C   UNL     1     113.545 129.816 139.903  0.00  0.00    +0.000 C 
BRANCH  48  52
ATOM     51  O   UNL     1     111.447 129.575 141.442  0.00  0.00    +0.000 OA
ATOM     52  C   UNL     1     111.803 130.255 141.143  0.00  0.00    +0.000 C 
ENDBRANCH  48  52
ENDBRANCH  41  50
ENDBRANCH   4  41
TORSDOF 17
ENDMDL
MODEL 7
REMARK VINA RESULT:      -8.6      3.952      6.026
REMARK  Name = 131833012
REMARK  17 active torsions:
REMARK  status: ('A' for Active; 'I' for Inactive)
REMARK    1  A    between atoms: SG_1  and  C_33
REMARK    2  A    between atoms: SG_1  and  CB_35
REMARK    3  A    between atoms: O_3  and  C_26
REMARK    4  A    between atoms: O_3  and  C_28
REMARK    5  A    between atoms: N_19  and  CA_36
REMARK    6  A    between atoms: N_20  and  CA_45
REMARK    7  A    between atoms: C_24  and  C_27
REMARK    8  A    between atoms: C_29  and  C_34
REMARK    9  A    between atoms: C_34  and  C_37
REMARK   10  A    between atoms: CB_35  and  CA_36
REMARK   11  A    between atoms: CA_36  and  C_39
REMARK   12  A    between atoms: C_38  and  C_40
REMARK   13  A    between atoms: C_38  and  C_41
REMARK   14  A    between atoms: C_40  and  CA_42
REMARK   15  A    between atoms: CA_42  and  C_46
REMARK   16  A    between atoms: C_43  and  C_44
REMARK   17  A    between atoms: CA_45  and  C_49
REMARK                            x       y       z     vdW  Elec       q    Type
REMARK                         _______ _______ _______ _____ _____    ______ ____
ROOT
ATOM      1  O   UNL     1     111.429 127.200 141.424  0.00  0.00    +0.000 OA
ATOM      2  O   UNL     1     109.246 125.853 139.348  0.00  0.00    +0.000 OA
ATOM      3  O   UNL     1     110.046 126.517 142.010  0.00  0.00    +0.000 OA
ATOM      4  C   UNL     1     111.029 126.868 140.093  0.00  0.00    +0.000 A 
ATOM      5  C   UNL     1     110.483 126.531 139.575  0.00  0.00    +0.000 A 
ATOM      6  C   UNL     1     110.883 126.863 140.906  0.00  0.00    +0.000 A 
ATOM      7  C   UNL     1     109.791 126.189 139.868  0.00  0.00    +0.000 A 
ATOM      8  C   UNL     1     110.192 126.521 141.199  0.00  0.00    +0.000 A 
ATOM      9  C   UNL     1     109.646 126.185 140.679  0.00  0.00    +0.000 A 
ENDROOT
BRANCH   5  11
ATOM     10  O   UNL     1     110.216 127.057 138.272  0.00  0.00    +0.000 OA
ATOM     11  C   UNL     1     110.628 126.536 138.762  0.00  0.00    +0.000 C 
BRANCH  11  12
ATOM     12  C   UNL     1     111.186 126.020 138.441  0.00  0.00    +0.000 C 
ATOM     13  C   UNL     1     111.220 125.908 137.623  0.00  0.00    +0.000 C 
BRANCH  13  15
ATOM     14  O   UNL     1     113.450 123.842 136.338  0.00  0.00    +0.000 OA
ATOM     15  C   UNL     1     111.778 125.392 137.302  0.00  0.00    +0.000 A 
ATOM     16  C   UNL     1     112.506 125.680 137.042  0.00  0.00    +0.000 A 
ATOM     17  C   UNL     1     111.607 124.586 137.240  0.00  0.00    +0.000 A 
ATOM     18  C   UNL     1     113.063 125.163 136.721  0.00  0.00    +0.000 A 
ATOM     19  C   UNL     1     112.165 124.071 136.919  0.00  0.00    +0.000 A 
ATOM     20  C   UNL     1     112.893 124.359 136.659  0.00  0.00    +0.000 A 
ENDBRANCH  13  15
ENDBRANCH  11  12
ENDBRANCH   5  11
BRANCH   9  21
ATOM     21  SG  UNL     1     108.955 125.843 140.973  0.00  0.00    +0.000 S 
BRANCH  21  22
ATOM     22  CB  UNL     1     108.229 126.221 140.864  0.00  0.00    +0.000 C 
BRANCH  22  23
ATOM     23  CA  UNL     1     107.562 125.961 141.275  0.00  0.00    +0.000 C 
BRANCH  23  25
ATOM     24  O   UNL     1     106.391 125.666 140.151  0.00  0.00    +0.000 OA
ATOM     25  N   UNL     1     107.283 125.193 141.163  0.00  0.00    +0.000 NA
ATOM     26  C   UNL     1     106.697 125.045 140.601  0.00  0.00    +0.000 C 
BRANCH  26  27
ATOM     27  C   UNL     1     106.417 124.278 140.488  0.00  0.00    +0.000 C 
BRANCH  27  28
ATOM     28  C   UNL     1     105.718 124.151 140.069  0.00  0.00    +0.000 C 
BRANCH  28  30
ATOM     29  N   UNL     1     105.896 122.739 140.198  0.00  0.00    +0.000 NA
ATOM     30  CA  UNL     1     105.462 123.381 139.917  0.00  0.00    +0.000 C 
BRANCH  30  33
ATOM     31  O   UNL     1     104.815 123.110 138.672  0.00  0.00    +0.000 OA
ATOM     32  OXT UNL     1     104.038 123.271 139.860  0.00  0.00    +0.000 OA
ATOM     33  C   UNL     1     104.772 123.254 139.483  0.00  0.00    +0.000 C 
ENDBRANCH  30  33
ENDBRANCH  28  30
ENDBRANCH  27  28
ENDBRANCH  26  27
ENDBRANCH  23  25
BRANCH  23  36
ATOM     34  O   UNL     1     106.934 127.215 141.543  0.00  0.00    +0.000 OA
ATOM     35  N   UNL     1     107.032 126.231 142.574  0.00  0.00    +0.000 NA
ATOM     36  C   ACE A   1     107.176 126.469 141.797  0.00  0.00    +0.000 C 
BRANCH  35  37
ATOM     37  CA  UNL     1     106.646 126.739 143.096  0.00  0.00    +0.000 C 
BRANCH  37  40
ATOM     38  O   UNL     1     107.051 126.528 144.451  0.00  0.00    +0.000 OA
ATOM     39  OXT UNL     1     105.722 126.199 144.042  0.00  0.00    +0.000 OA
ATOM     40  C   UNL     1     106.473 126.489 143.863  0.00  0.00    +0.000 C 
ENDBRANCH  37  40
ENDBRANCH  35  37
ENDBRANCH  23  36
ENDBRANCH  22  23
ENDBRANCH  21  22
ENDBRANCH   9  21
BRANCH   4  41
ATOM     41  O   UNL     1     111.720 127.210 139.800  0.00  0.00    +0.000 OA
BRANCH  41  50
ATOM     42  O   UNL     1     111.245 128.550 139.946  0.00  0.00    +0.000 OA
ATOM     43  O   UNL     1     113.569 129.338 140.271  0.00  0.00    +0.000 OA
ATOM     44  O   UNL     1     112.320 130.415 140.308  0.00  0.00    +0.000 OA
ATOM     45  O   UNL     1     113.269 127.735 140.017  0.00  0.00    +0.000 OA
ATOM     46  C   UNL     1     112.169 129.614 140.181  0.00  0.00    +0.000 C 
ATOM     47  C   UNL     1     112.794 129.075 140.163  0.00  0.00    +0.000 C 
ATOM     48  C   UNL     1     111.394 129.351 140.073  0.00  0.00    +0.000 C 
ATOM     49  C   UNL     1     112.644 128.274 140.035  0.00  0.00    +0.000 C 
ATOM     50  C   UNL     1     111.869 128.012 139.927  0.00  0.00    +0.000 C 
BRANCH  48  52
ATOM     51  O   UNL     1     110.317 130.020 139.416  0.00  0.00    +0.000 OA
ATOM     52  C   UNL     1     110.771 129.890 140.092  0.00  0.00    +0.000 C 
ENDBRANCH  48  52
ENDBRANCH  41  50
ENDBRANCH   4  41
TORSDOF 17
ENDMDL
MODEL 8
REMARK VINA RESULT:      -8.6      6.606      9.248
REMARK  Name = 131833012
REMARK  17 active torsions:
REMARK  status: ('A' for Active; 'I' for Inactive)
REMARK    1  A    between atoms: SG_1  and  C_33
REMARK    2  A    between atoms: SG_1  and  CB_35
REMARK    3  A    between atoms: O_3  and  C_26
REMARK    4  A    between atoms: O_3  and  C_28
REMARK    5  A    between atoms: N_19  and  CA_36
REMARK    6  A    between atoms: N_20  and  CA_45
REMARK    7  A    between atoms: C_24  and  C_27
REMARK    8  A    between atoms: C_29  and  C_34
REMARK    9  A    between atoms: C_34  and  C_37
REMARK   10  A    between atoms: CB_35  and  CA_36
REMARK   11  A    between atoms: CA_36  and  C_39
REMARK   12  A    between atoms: C_38  and  C_40
REMARK   13  A    between atoms: C_38  and  C_41
REMARK   14  A    between atoms: C_40  and  CA_42
REMARK   15  A    between atoms: CA_42  and  C_46
REMARK   16  A    between atoms: C_43  and  C_44
REMARK   17  A    between atoms: CA_45  and  C_49
REMARK                            x       y       z     vdW  Elec       q    Type
REMARK                         _______ _______ _______ _____ _____    ______ ____
ROOT
ATOM      1  O   UNL     1     107.481 128.957 141.972  0.00  0.00    +0.000 OA
ATOM      2  O   UNL     1     104.693 127.424 142.847  0.00  0.00    +0.000 OA
ATOM      3  O   UNL     1     107.281 127.354 141.637  0.00  0.00    +0.000 OA
ATOM      4  C   UNL     1     106.187 128.992 142.577  0.00  0.00    +0.000 A 
ATOM      5  C   UNL     1     105.490 128.608 142.795  0.00  0.00    +0.000 A 
ATOM      6  C   UNL     1     106.784 128.573 142.190  0.00  0.00    +0.000 A 
ATOM      7  C   UNL     1     105.390 127.807 142.628  0.00  0.00    +0.000 A 
ATOM      8  C   UNL     1     106.684 127.772 142.023  0.00  0.00    +0.000 A 
ATOM      9  C   UNL     1     105.987 127.389 142.242  0.00  0.00    +0.000 A 
ENDROOT
BRANCH   5  11
ATOM     10  O   UNL     1     104.791 128.945 143.996  0.00  0.00    +0.000 OA
ATOM     11  C   UNL     1     104.893 129.027 143.182  0.00  0.00    +0.000 C 
BRANCH  11  12
ATOM     12  C   UNL     1     104.397 129.528 142.753  0.00  0.00    +0.000 C 
ATOM     13  C   UNL     1     103.689 129.792 143.086  0.00  0.00    +0.000 C 
BRANCH  13  15
ATOM     14  O   UNL     1     101.708 131.798 141.372  0.00  0.00    +0.000 OA
ATOM     15  C   UNL     1     103.194 130.293 142.657  0.00  0.00    +0.000 A 
ATOM     16  C   UNL     1     102.886 130.048 141.932  0.00  0.00    +0.000 A 
ATOM     17  C   UNL     1     103.007 131.041 142.954  0.00  0.00    +0.000 A 
ATOM     18  C   UNL     1     102.390 130.550 141.504  0.00  0.00    +0.000 A 
ATOM     19  C   UNL     1     102.512 131.542 142.525  0.00  0.00    +0.000 A 
ATOM     20  C   UNL     1     102.203 131.296 141.800  0.00  0.00    +0.000 A 
ENDBRANCH  13  15
ENDBRANCH  11  12
ENDBRANCH   5  11
BRANCH   9  21
ATOM     21  SG  UNL     1     105.887 126.587 142.075  0.00  0.00    +0.000 S 
BRANCH  21  22
ATOM     22  CB  UNL     1     106.266 126.018 142.537  0.00  0.00    +0.000 C 
BRANCH  22  23
ATOM     23  CA  UNL     1     106.043 125.226 142.483  0.00  0.00    +0.000 C 
BRANCH  23  25
ATOM     24  O   UNL     1     106.566 124.822 143.995  0.00  0.00    +0.000 OA
ATOM     25  N   UNL     1     105.514 124.909 143.031  0.00  0.00    +0.000 NA
ATOM     26  C   UNL     1     105.775 124.707 143.787  0.00  0.00    +0.000 C 
BRANCH  26  27
ATOM     27  C   UNL     1     105.247 124.389 144.335  0.00  0.00    +0.000 C 
BRANCH  27  28
ATOM     28  C   UNL     1     105.325 124.570 145.136  0.00  0.00    +0.000 C 
BRANCH  28  30
ATOM     29  N   UNL     1     104.265 123.665 145.451  0.00  0.00    +0.000 NA
ATOM     30  CA  UNL     1     104.799 124.248 145.685  0.00  0.00    +0.000 C 
BRANCH  30  33
ATOM     31  O   UNL     1     105.328 124.172 147.010  0.00  0.00    +0.000 OA
ATOM     32  OXT UNL     1     104.296 125.112 146.706  0.00  0.00    +0.000 OA
ATOM     33  C   UNL     1     104.808 124.511 146.467  0.00  0.00    +0.000 C 
ENDBRANCH  30  33
ENDBRANCH  28  30
ENDBRANCH  27  28
ENDBRANCH  26  27
ENDBRANCH  23  25
BRANCH  23  36
ATOM     34  O   UNL     1     107.160 124.612 141.839  0.00  0.00    +0.000 OA
ATOM     35  N   UNL     1     105.843 124.418 141.321  0.00  0.00    +0.000 NA
ATOM     36  C   ACE A   1     106.348 124.752 141.881  0.00  0.00    +0.000 C 
BRANCH  35  37
ATOM     37  CA  UNL     1     106.148 123.945 140.719  0.00  0.00    +0.000 C 
BRANCH  37  40
ATOM     38  O   UNL     1     105.377 122.813 140.312  0.00  0.00    +0.000 OA
ATOM     39  OXT UNL     1     105.393 123.994 139.508  0.00  0.00    +0.000 OA
ATOM     40  C   UNL     1     105.640 123.584 140.180  0.00  0.00    +0.000 C 
ENDBRANCH  37  40
ENDBRANCH  35  37
ENDBRANCH  23  36
ENDBRANCH  22  23
ENDBRANCH  21  22
ENDBRANCH   9  21
BRANCH   4  41
ATOM     41  O   UNL     1     106.287 129.794 142.744  0.00  0.00    +0.000 OA
BRANCH  41  50
ATOM     42  O   UNL     1     107.146 129.545 143.858  0.00  0.00    +0.000 OA
ATOM     43  O   UNL     1     108.214 131.754 143.527  0.00  0.00    +0.000 OA
ATOM     44  O   UNL     1     108.717 130.769 144.752  0.00  0.00    +0.000 OA
ATOM     45  O   UNL     1     106.998 131.266 142.523  0.00  0.00    +0.000 OA
ATOM     46  C   UNL     1     108.110 130.525 144.251  0.00  0.00    +0.000 C 
ATOM     47  C   UNL     1     107.858 131.018 143.638  0.00  0.00    +0.000 C 
ATOM     48  C   UNL     1     107.754 129.789 144.361  0.00  0.00    +0.000 C 
ATOM     49  C   UNL     1     107.250 130.773 143.136  0.00  0.00    +0.000 C 
ATOM     50  C   UNL     1     106.894 130.037 143.247  0.00  0.00    +0.000 C 
BRANCH  48  52
ATOM     51  O   UNL     1     107.490 129.105 145.587  0.00  0.00    +0.000 OA
ATOM     52  C   UNL     1     108.006 129.297 144.973  0.00  0.00    +0.000 C 
ENDBRANCH  48  52
ENDBRANCH  41  50
ENDBRANCH   4  41
TORSDOF 17
ENDMDL
MODEL 9
REMARK VINA RESULT:      -8.6      1.270      3.648
REMARK  Name = 131833012
REMARK  17 active torsions:
REMARK  status: ('A' for Active; 'I' for Inactive)
REMARK    1  A    between atoms: SG_1  and  C_33
REMARK    2  A    between atoms: SG_1  and  CB_35
REMARK    3  A    between atoms: O_3  and  C_26
REMARK    4  A    between atoms: O_3  and  C_28
REMARK    5  A    between atoms: N_19  and  CA_36
REMARK    6  A    between atoms: N_20  and  CA_45
REMARK    7  A    between atoms: C_24  and  C_27
REMARK    8  A    between atoms: C_29  and  C_34
REMARK    9  A    between atoms: C_34  and  C_37
REMARK   10  A    between atoms: CB_35  and  CA_36
REMARK   11  A    between atoms: CA_36  and  C_39
REMARK   12  A    between atoms: C_38  and  C_40
REMARK   13  A    between atoms: C_38  and  C_41
REMARK   14  A    between atoms: C_40  and  CA_42
REMARK   15  A    between atoms: CA_42  and  C_46
REMARK   16  A    between atoms: C_43  and  C_44
REMARK   17  A    between atoms: CA_45  and  C_49
REMARK                            x       y       z     vdW  Elec       q    Type
REMARK                         _______ _______ _______ _____ _____    ______ ____
ROOT
ATOM      1  O   UNL     1     112.094 125.747 139.282  0.00  0.00    +0.000 OA
ATOM      2  O   UNL     1     112.614 128.914 138.514  0.00  0.00    +0.000 OA
ATOM      3  O   UNL     1     112.734 126.774 140.404  0.00  0.00    +0.000 OA
ATOM      4  C   UNL     1     112.033 126.818 138.337  0.00  0.00    +0.000 A 
ATOM      5  C   UNL     1     112.164 127.609 138.146  0.00  0.00    +0.000 A 
ATOM      6  C   UNL     1     112.224 126.539 139.091  0.00  0.00    +0.000 A 
ATOM      7  C   UNL     1     112.484 128.123 138.707  0.00  0.00    +0.000 A 
ATOM      8  C   UNL     1     112.544 127.052 139.652  0.00  0.00    +0.000 A 
ATOM      9  C   UNL     1     112.674 127.844 139.459  0.00  0.00    +0.000 A 
ENDROOT
BRANCH   5  11
ATOM     10  O   UNL     1     112.562 127.965 136.820  0.00  0.00    +0.000 OA
ATOM     11  C   UNL     1     111.973 127.888 137.392  0.00  0.00    +0.000 C 
BRANCH  11  12
ATOM     12  C   UNL     1     111.194 128.089 137.212  0.00  0.00    +0.000 C 
ATOM     13  C   UNL     1     111.022 128.483 136.507  0.00  0.00    +0.000 C 
BRANCH  13  15
ATOM     14  O   UNL     1     107.903 129.289 135.789  0.00  0.00    +0.000 OA
ATOM     15  C   UNL     1     110.242 128.683 136.328  0.00  0.00    +0.000 A 
ATOM     16  C   UNL     1     109.763 128.153 135.916  0.00  0.00    +0.000 A 
ATOM     17  C   UNL     1     109.941 129.416 136.560  0.00  0.00    +0.000 A 
ATOM     18  C   UNL     1     108.984 128.355 135.737  0.00  0.00    +0.000 A 
ATOM     19  C   UNL     1     109.162 129.617 136.380  0.00  0.00    +0.000 A 
ATOM     20  C   UNL     1     108.683 129.087 135.968  0.00  0.00    +0.000 A 
ENDBRANCH  13  15
ENDBRANCH  11  12
ENDBRANCH   5  11
BRANCH   9  21
ATOM     21  SG  UNL     1     112.994 128.358 140.020  0.00  0.00    +0.000 S 
BRANCH  21  22
ATOM     22  CB  UNL     1     112.519 128.934 140.371  0.00  0.00    +0.000 C 
BRANCH  22  23
ATOM     23  CA  UNL     1     112.818 129.398 140.984  0.00  0.00    +0.000 C 
BRANCH  23  25
ATOM     24  O   UNL     1     111.422 129.741 141.793  0.00  0.00    +0.000 OA
ATOM     25  N   UNL     1     112.725 129.156 141.767  0.00  0.00    +0.000 NA
ATOM     26  C   UNL     1     112.027 129.327 142.172  0.00  0.00    +0.000 C 
BRANCH  26  27
ATOM     27  C   UNL     1     111.934 129.085 142.955  0.00  0.00    +0.000 C 
BRANCH  27  28
ATOM     28  C   UNL     1     111.551 129.576 143.496  0.00  0.00    +0.000 C 
BRANCH  28  30
ATOM     29  N   UNL     1     111.545 128.547 144.488  0.00  0.00    +0.000 NA
ATOM     30  CA  UNL     1     111.480 129.344 144.285  0.00  0.00    +0.000 C 
BRANCH  30  33
ATOM     31  O   UNL     1     111.946 130.114 145.394  0.00  0.00    +0.000 OA
ATOM     32  OXT UNL     1     110.602 130.268 144.932  0.00  0.00    +0.000 OA
ATOM     33  C   UNL     1     111.343 129.909 144.870  0.00  0.00    +0.000 C 
ENDBRANCH  30  33
ENDBRANCH  28  30
ENDBRANCH  27  28
ENDBRANCH  26  27
ENDBRANCH  23  25
BRANCH  23  36
ATOM     34  O   UNL     1     112.789 130.743 140.502  0.00  0.00    +0.000 OA
ATOM     35  N   UNL     1     114.019 130.172 140.954  0.00  0.00    +0.000 NA
ATOM     36  C   ACE A   1     113.209 130.104 140.814  0.00  0.00    +0.000 C 
BRANCH  35  37
ATOM     37  CA  UNL     1     114.410 130.878 140.784  0.00  0.00    +0.000 C 
BRANCH  37  40
ATOM     38  O   UNL     1     115.710 130.286 140.746  0.00  0.00    +0.000 OA
ATOM     39  OXT UNL     1     115.554 131.644 141.162  0.00  0.00    +0.000 OA
ATOM     40  C   UNL     1     115.224 130.936 140.898  0.00  0.00    +0.000 C 
ENDBRANCH  37  40
ENDBRANCH  35  37
ENDBRANCH  23  36
ENDBRANCH  22  23
ENDBRANCH  21  22
ENDBRANCH   9  21
BRANCH   4  41
ATOM     41  O   UNL     1     111.713 126.304 137.776  0.00  0.00    +0.000 OA
BRANCH  41  50
ATOM     42  O   UNL     1     112.965 125.673 137.500  0.00  0.00    +0.000 OA
ATOM     43  O   UNL     1     111.778 123.601 136.852  0.00  0.00    +0.000 OA
ATOM     44  O   UNL     1     113.426 123.660 136.792  0.00  0.00    +0.000 OA
ATOM     45  O   UNL     1     110.922 124.922 137.344  0.00  0.00    +0.000 OA
ATOM     46  C   UNL     1     112.998 124.322 137.038  0.00  0.00    +0.000 C 
ATOM     47  C   UNL     1     112.174 124.291 137.068  0.00  0.00    +0.000 C 
ATOM     48  C   UNL     1     113.394 125.012 137.254  0.00  0.00    +0.000 C 
ATOM     49  C   UNL     1     111.746 124.953 137.314  0.00  0.00    +0.000 C 
ATOM     50  C   UNL     1     112.142 125.643 137.530  0.00  0.00    +0.000 C 
BRANCH  48  52
ATOM     51  O   UNL     1     114.593 125.485 136.639  0.00  0.00    +0.000 OA
ATOM     52  C   UNL     1     114.217 125.042 137.224  0.00  0.00    +0.000 C 
ENDBRANCH  48  52
ENDBRANCH  41  50
ENDBRANCH   4  41
TORSDOF 17
ENDMDL
MODEL 10
REMARK VINA RESULT:      -8.5      1.673      3.486
REMARK  Name = 131833012
REMARK  17 active torsions:
REMARK  status: ('A' for Active; 'I' for Inactive)
REMARK    1  A    between atoms: SG_1  and  C_33
REMARK    2  A    between atoms: SG_1  and  CB_35
REMARK    3  A    between atoms: O_3  and  C_26
REMARK    4  A    between atoms: O_3  and  C_28
REMARK    5  A    between atoms: N_19  and  CA_36
REMARK    6  A    between atoms: N_20  and  CA_45
REMARK    7  A    between atoms: C_24  and  C_27
REMARK    8  A    between atoms: C_29  and  C_34
REMARK    9  A    between atoms: C_34  and  C_37
REMARK   10  A    between atoms: CB_35  and  CA_36
REMARK   11  A    between atoms: CA_36  and  C_39
REMARK   12  A    between atoms: C_38  and  C_40
REMARK   13  A    between atoms: C_38  and  C_41
REMARK   14  A    between atoms: C_40  and  CA_42
REMARK   15  A    between atoms: CA_42  and  C_46
REMARK   16  A    between atoms: C_43  and  C_44
REMARK   17  A    between atoms: CA_45  and  C_49
REMARK                            x       y       z     vdW  Elec       q    Type
REMARK                         _______ _______ _______ _____ _____    ______ ____
ROOT
ATOM      1  O   UNL     1     111.398 125.830 138.592  0.00  0.00    +0.000 OA
ATOM      2  O   UNL     1     112.062 129.057 138.392  0.00  0.00    +0.000 OA
ATOM      3  O   UNL     1     111.615 126.714 139.968  0.00  0.00    +0.000 OA
ATOM      4  C   UNL     1     111.622 127.001 137.804  0.00  0.00    +0.000 A 
ATOM      5  C   UNL     1     111.788 127.808 137.755  0.00  0.00    +0.000 A 
ATOM      6  C   UNL     1     111.564 126.637 138.543  0.00  0.00    +0.000 A 
ATOM      7  C   UNL     1     111.896 128.250 138.443  0.00  0.00    +0.000 A 
ATOM      8  C   UNL     1     111.673 127.079 139.231  0.00  0.00    +0.000 A 
ATOM      9  C   UNL     1     111.839 127.886 139.180  0.00  0.00    +0.000 A 
ENDROOT
BRANCH   5  11
ATOM     10  O   UNL     1     111.177 128.241 136.537  0.00  0.00    +0.000 OA
ATOM     11  C   UNL     1     111.845 128.173 137.016  0.00  0.00    +0.000 C 
BRANCH  11  12
ATOM     12  C   UNL     1     112.571 128.468 136.758  0.00  0.00    +0.000 C 
ATOM     13  C   UNL     1     112.624 128.853 136.030  0.00  0.00    +0.000 C 
BRANCH  13  15
ATOM     14  O   UNL     1     115.527 130.037 134.999  0.00  0.00    +0.000 OA
ATOM     15  C   UNL     1     113.349 129.148 135.772  0.00  0.00    +0.000 A 
ATOM     16  C   UNL     1     113.880 128.655 135.378  0.00  0.00    +0.000 A 
ATOM     17  C   UNL     1     113.545 129.939 135.909  0.00  0.00    +0.000 A 
ATOM     18  C   UNL     1     114.606 128.951 135.121  0.00  0.00    +0.000 A 
ATOM     19  C   UNL     1     114.270 130.234 135.651  0.00  0.00    +0.000 A 
ATOM     20  C   UNL     1     114.801 129.741 135.257  0.00  0.00    +0.000 A 
ENDBRANCH  13  15
ENDBRANCH  11  12
ENDBRANCH   5  11
BRANCH   9  21
ATOM     21  SG  UNL     1     111.947 128.328 139.868  0.00  0.00    +0.000 S 
BRANCH  21  22
ATOM     22  CB  UNL     1     112.596 128.179 140.356  0.00  0.00    +0.000 C 
BRANCH  22  23
ATOM     23  CA  UNL     1     112.839 128.747 140.904  0.00  0.00    +0.000 C 
BRANCH  23  25
ATOM     24  O   UNL     1     112.667 127.966 142.347  0.00  0.00    +0.000 OA
ATOM     25  N   UNL     1     112.306 129.032 141.465  0.00  0.00    +0.000 NA
ATOM     26  C   UNL     1     112.220 128.642 142.187  0.00  0.00    +0.000 C 
BRANCH  26  27
ATOM     27  C   UNL     1     111.687 128.926 142.749  0.00  0.00    +0.000 C 
BRANCH  27  28
ATOM     28  C   UNL     1     111.862 128.862 143.553  0.00  0.00    +0.000 C 
BRANCH  28  30
ATOM     29  N   UNL     1     110.537 129.270 143.901  0.00  0.00    +0.000 NA
ATOM     30  CA  UNL     1     111.322 129.134 144.115  0.00  0.00    +0.000 C 
BRANCH  30  33
ATOM     31  O   UNL     1     111.647 128.636 145.415  0.00  0.00    +0.000 OA
ATOM     32  OXT UNL     1     111.734 130.037 145.144  0.00  0.00    +0.000 OA
ATOM     33  C   UNL     1     111.567 129.268 144.891  0.00  0.00    +0.000 C 
ENDBRANCH  30  33
ENDBRANCH  28  30
ENDBRANCH  27  28
ENDBRANCH  26  27
ENDBRANCH  23  25
BRANCH  23  36
ATOM     34  O   UNL     1     114.244 128.504 140.979  0.00  0.00    +0.000 OA
ATOM     35  N   UNL     1     113.759 129.834 140.786  0.00  0.00    +0.000 NA
ATOM     36  C   ACE A   1     113.614 129.028 140.889  0.00  0.00    +0.000 C 
BRANCH  35  37
ATOM     37  CA  UNL     1     114.534 130.115 140.771  0.00  0.00    +0.000 C 
BRANCH  37  40
ATOM     38  O   UNL     1     114.667 131.197 139.847  0.00  0.00    +0.000 OA
ATOM     39  OXT UNL     1     114.840 131.427 141.246  0.00  0.00    +0.000 OA
ATOM     40  C   UNL     1     114.680 130.912 140.621  0.00  0.00    +0.000 C 
ENDBRANCH  37  40
ENDBRANCH  35  37
ENDBRANCH  23  36
ENDBRANCH  22  23
ENDBRANCH  21  22
ENDBRANCH   9  21
BRANCH   4  41
ATOM     41  O   UNL     1     111.513 126.559 137.116  0.00  0.00    +0.000 OA
BRANCH  41  50
ATOM     42  O   UNL     1     112.774 125.892 137.201  0.00  0.00    +0.000 OA
ATOM     43  O   UNL     1     111.795 123.902 136.102  0.00  0.00    +0.000 OA
ATOM     44  O   UNL     1     113.382 123.898 136.554  0.00  0.00    +0.000 OA
ATOM     45  O   UNL     1     110.860 125.233 136.383  0.00  0.00    +0.000 OA
ATOM     46  C   UNL     1     112.915 124.564 136.694  0.00  0.00    +0.000 C 
ATOM     47  C   UNL     1     112.121 124.565 136.468  0.00  0.00    +0.000 C 
ATOM     48  C   UNL     1     113.242 125.227 137.061  0.00  0.00    +0.000 C 
ATOM     49  C   UNL     1     111.655 125.231 136.609  0.00  0.00    +0.000 C 
ATOM     50  C   UNL     1     111.981 125.894 136.976  0.00  0.00    +0.000 C 
BRANCH  48  52
ATOM     51  O   UNL     1     114.564 125.750 136.936  0.00  0.00    +0.000 OA
ATOM     52  C   UNL     1     114.035 125.225 137.286  0.00  0.00    +0.000 C 
ENDBRANCH  48  52
ENDBRANCH  41  50
ENDBRANCH   4  41
TORSDOF 17
ENDMDL
