MODEL 1
REMARK VINA RESULT:      -7.2      0.000      0.000
REMARK  Name = 389484
REMARK  8 active torsions:
REMARK  status: ('A' for Active; 'I' for Inactive)
REMARK    1  A    between atoms: O_2  and  C_14
REMARK    2  A    between atoms: O_3  and  C_15
REMARK    3  A    between atoms: O_4  and  C_20
REMARK    4  A    between atoms: O_5  and  C_22
REMARK    5  A    between atoms: O_6  and  C_21
REMARK    6  A    between atoms: O_7  and  C_23
REMARK    7  A    between atoms: O_8  and  C_24
REMARK    8  A    between atoms: C_11  and  C_12
REMARK                            x       y       z     vdW  Elec       q    Type
REMARK                         _______ _______ _______ _____ _____    ______ ____
ROOT
ATOM      1  O   UNL     1     112.440 127.253 136.302  0.00  0.00    +0.000 OA
ATOM      2  O   UNL     1     114.302 125.805 137.221  0.00  0.00    +0.000 OA
ATOM      3  C   UNL     1     112.976 125.928 136.623  0.00  0.00    +0.000 A 
ATOM      4  C   UNL     1     113.156 127.625 136.597  0.00  0.00    +0.000 A 
ATOM      5  C   UNL     1     112.367 126.397 136.323  0.00  0.00    +0.000 A 
ATOM      6  C   UNL     1     112.893 125.107 136.638  0.00  0.00    +0.000 A 
ATOM      7  C   UNL     1     113.699 126.282 136.923  0.00  0.00    +0.000 A 
ATOM      8  C   UNL     1     113.790 127.136 136.910  0.00  0.00    +0.000 A 
ATOM      9  C   UNL     1     111.677 126.046 136.038  0.00  0.00    +0.000 A 
ATOM     10  C   UNL     1     112.204 124.756 136.353  0.00  0.00    +0.000 A 
ATOM     11  C   UNL     1     111.596 125.225 136.053  0.00  0.00    +0.000 A 
ENDROOT
BRANCH   4  12
ATOM     12  C   UNL     1     113.235 128.446 136.581  0.00  0.00    +0.000 A 
ATOM     13  C   UNL     1     112.909 128.904 137.185  0.00  0.00    +0.000 A 
ATOM     14  C   UNL     1     113.640 128.810 135.962  0.00  0.00    +0.000 A 
ATOM     15  C   UNL     1     112.987 129.725 137.170  0.00  0.00    +0.000 A 
ATOM     16  C   UNL     1     113.719 129.631 135.945  0.00  0.00    +0.000 A 
ATOM     17  C   UNL     1     113.392 130.089 136.549  0.00  0.00    +0.000 A 
BRANCH  13  18
ATOM     18  O   UNL     1     112.504 128.541 137.805  0.00  0.00    +0.000 OA
ATOM     19  C   UNL     1     112.703 128.713 138.587  0.00  0.00    +0.000 C 
ENDBRANCH  13  18
BRANCH  15  20
ATOM     20  O   UNL     1     112.661 130.182 137.774  0.00  0.00    +0.000 OA
ATOM     21  C   UNL     1     111.926 130.543 137.667  0.00  0.00    +0.000 C 
ENDBRANCH  15  20
BRANCH  16  22
ATOM     22  O   UNL     1     114.124 129.994 135.325  0.00  0.00    +0.000 OA
ATOM     23  C   UNL     1     114.240 129.590 134.616  0.00  0.00    +0.000 C 
ENDBRANCH  16  22
BRANCH  17  24
ATOM     24  O   UNL     1     113.471 130.909 136.533  0.00  0.00    +0.000 OA
ATOM     25  C   UNL     1     114.183 131.260 136.757  0.00  0.00    +0.000 C 
ENDBRANCH  17  24
ENDBRANCH   4  12
BRANCH   6  26
ATOM     26  O   UNL     1     113.502 124.637 136.938  0.00  0.00    +0.000 OA
ATOM     27  C   UNL     1     114.239 124.632 136.569  0.00  0.00    +0.000 C 
ENDBRANCH   6  26
BRANCH  10  28
ATOM     28  O   UNL     1     112.122 123.935 136.368  0.00  0.00    +0.000 OA
ATOM     29  C   UNL     1     111.786 123.565 137.024  0.00  0.00    +0.000 C 
ENDBRANCH  10  28
BRANCH  11  30
ATOM     30  O   UNL     1     110.905 124.874 135.768  0.00  0.00    +0.000 OA
ATOM     31  C   UNL     1     110.378 125.312 135.310  0.00  0.00    +0.000 C 
ENDBRANCH  11  30
TORSDOF 8
ENDMDL
MODEL 2
REMARK VINA RESULT:      -7.1      0.689      1.715
REMARK  Name = 389484
REMARK  8 active torsions:
REMARK  status: ('A' for Active; 'I' for Inactive)
REMARK    1  A    between atoms: O_2  and  C_14
REMARK    2  A    between atoms: O_3  and  C_15
REMARK    3  A    between atoms: O_4  and  C_20
REMARK    4  A    between atoms: O_5  and  C_22
REMARK    5  A    between atoms: O_6  and  C_21
REMARK    6  A    between atoms: O_7  and  C_23
REMARK    7  A    between atoms: O_8  and  C_24
REMARK    8  A    between atoms: C_11  and  C_12
REMARK                            x       y       z     vdW  Elec       q    Type
REMARK                         _______ _______ _______ _____ _____    ______ ____
ROOT
ATOM      1  O   UNL     1     113.359 127.100 136.809  0.00  0.00    +0.000 OA
ATOM      2  O   UNL     1     111.012 126.699 135.949  0.00  0.00    +0.000 OA
ATOM      3  C   UNL     1     112.284 126.176 136.439  0.00  0.00    +0.000 A 
ATOM      4  C   UNL     1     112.865 127.773 136.603  0.00  0.00    +0.000 A 
ATOM      5  C   UNL     1     113.049 126.304 136.719  0.00  0.00    +0.000 A 
ATOM      6  C   UNL     1     111.998 125.407 136.358  0.00  0.00    +0.000 A 
ATOM      7  C   UNL     1     111.776 126.836 136.229  0.00  0.00    +0.000 A 
ATOM      8  C   UNL     1     112.068 127.640 136.312  0.00  0.00    +0.000 A 
ATOM      9  C   UNL     1     113.529 125.662 136.918  0.00  0.00    +0.000 A 
ATOM     10  C   UNL     1     112.476 124.765 136.556  0.00  0.00    +0.000 A 
ATOM     11  C   UNL     1     113.242 124.893 136.837  0.00  0.00    +0.000 A 
ENDROOT
BRANCH   4  12
ATOM     12  C   UNL     1     113.155 128.541 136.686  0.00  0.00    +0.000 A 
ATOM     13  C   UNL     1     113.067 128.940 137.403  0.00  0.00    +0.000 A 
ATOM     14  C   UNL     1     113.531 128.911 136.052  0.00  0.00    +0.000 A 
ATOM     15  C   UNL     1     113.355 129.708 137.486  0.00  0.00    +0.000 A 
ATOM     16  C   UNL     1     113.820 129.679 136.135  0.00  0.00    +0.000 A 
ATOM     17  C   UNL     1     113.733 130.078 136.852  0.00  0.00    +0.000 A 
BRANCH  13  18
ATOM     18  O   UNL     1     112.690 128.571 138.037  0.00  0.00    +0.000 OA
ATOM     19  C   UNL     1     112.089 128.961 138.445  0.00  0.00    +0.000 C 
ENDBRANCH  13  18
BRANCH  15  20
ATOM     20  O   UNL     1     113.268 130.107 138.203  0.00  0.00    +0.000 OA
ATOM     21  C   UNL     1     113.900 130.149 138.732  0.00  0.00    +0.000 C 
ENDBRANCH  15  20
BRANCH  16  22
ATOM     22  O   UNL     1     114.197 130.049 135.500  0.00  0.00    +0.000 OA
ATOM     23  C   UNL     1     114.578 129.595 134.926  0.00  0.00    +0.000 C 
ENDBRANCH  16  22
BRANCH  17  24
ATOM     24  O   UNL     1     114.021 130.846 136.935  0.00  0.00    +0.000 OA
ATOM     25  C   UNL     1     113.587 131.483 136.644  0.00  0.00    +0.000 C 
ENDBRANCH  17  24
ENDBRANCH   4  12
BRANCH   6  26
ATOM     26  O   UNL     1     111.233 125.279 136.078  0.00  0.00    +0.000 OA
ATOM     27  C   UNL     1     111.030 125.506 135.311  0.00  0.00    +0.000 C 
ENDBRANCH   6  26
BRANCH  10  28
ATOM     28  O   UNL     1     112.190 123.995 136.475  0.00  0.00    +0.000 OA
ATOM     29  C   UNL     1     111.884 123.597 137.129  0.00  0.00    +0.000 C 
ENDBRANCH  10  28
BRANCH  11  30
ATOM     30  O   UNL     1     113.721 124.250 137.035  0.00  0.00    +0.000 OA
ATOM     31  C   UNL     1     114.519 124.368 137.203  0.00  0.00    +0.000 C 
ENDBRANCH  11  30
TORSDOF 8
ENDMDL
MODEL 3
REMARK VINA RESULT:      -7.0      0.785      2.332
REMARK  Name = 389484
REMARK  8 active torsions:
REMARK  status: ('A' for Active; 'I' for Inactive)
REMARK    1  A    between atoms: O_2  and  C_14
REMARK    2  A    between atoms: O_3  and  C_15
REMARK    3  A    between atoms: O_4  and  C_20
REMARK    4  A    between atoms: O_5  and  C_22
REMARK    5  A    between atoms: O_6  and  C_21
REMARK    6  A    between atoms: O_7  and  C_23
REMARK    7  A    between atoms: O_8  and  C_24
REMARK    8  A    between atoms: C_11  and  C_12
REMARK                            x       y       z     vdW  Elec       q    Type
REMARK                         _______ _______ _______ _____ _____    ______ ____
ROOT
ATOM      1  O   UNL     1     113.385 127.290 136.790  0.00  0.00    +0.000 OA
ATOM      2  O   UNL     1     111.007 126.836 136.045  0.00  0.00    +0.000 OA
ATOM      3  C   UNL     1     112.322 126.342 136.445  0.00  0.00    +0.000 A 
ATOM      4  C   UNL     1     112.857 127.951 136.636  0.00  0.00    +0.000 A 
ATOM      5  C   UNL     1     113.097 126.487 136.688  0.00  0.00    +0.000 A 
ATOM      6  C   UNL     1     112.058 125.565 136.351  0.00  0.00    +0.000 A 
ATOM      7  C   UNL     1     111.781 126.989 136.287  0.00  0.00    +0.000 A 
ATOM      8  C   UNL     1     112.050 127.800 136.384  0.00  0.00    +0.000 A 
ATOM      9  C   UNL     1     113.608 125.855 136.837  0.00  0.00    +0.000 A 
ATOM     10  C   UNL     1     112.568 124.935 136.500  0.00  0.00    +0.000 A 
ATOM     11  C   UNL     1     113.343 125.080 136.742  0.00  0.00    +0.000 A 
ENDROOT
BRANCH   4  12
ATOM     12  C   UNL     1     113.124 128.726 136.731  0.00  0.00    +0.000 A 
ATOM     13  C   UNL     1     113.509 129.109 136.110  0.00  0.00    +0.000 A 
ATOM     14  C   UNL     1     113.007 129.119 137.447  0.00  0.00    +0.000 A 
ATOM     15  C   UNL     1     113.777 129.883 136.204  0.00  0.00    +0.000 A 
ATOM     16  C   UNL     1     113.274 129.893 137.542  0.00  0.00    +0.000 A 
ATOM     17  C   UNL     1     113.659 130.276 136.920  0.00  0.00    +0.000 A 
BRANCH  13  18
ATOM     18  O   UNL     1     113.627 128.716 135.394  0.00  0.00    +0.000 OA
ATOM     19  C   UNL     1     113.419 129.081 134.684  0.00  0.00    +0.000 C 
ENDBRANCH  13  18
BRANCH  15  20
ATOM     20  O   UNL     1     114.162 130.266 135.582  0.00  0.00    +0.000 OA
ATOM     21  C   UNL     1     114.986 130.298 135.565  0.00  0.00    +0.000 C 
ENDBRANCH  15  20
BRANCH  16  22
ATOM     22  O   UNL     1     113.156 130.286 138.258  0.00  0.00    +0.000 OA
ATOM     23  C   UNL     1     113.119 129.857 138.962  0.00  0.00    +0.000 C 
ENDBRANCH  16  22
BRANCH  17  24
ATOM     24  O   UNL     1     113.926 131.050 137.015  0.00  0.00    +0.000 OA
ATOM     25  C   UNL     1     113.400 131.680 136.938  0.00  0.00    +0.000 C 
ENDBRANCH  17  24
ENDBRANCH   4  12
BRANCH   6  26
ATOM     26  O   UNL     1     111.283 125.420 136.108  0.00  0.00    +0.000 OA
ATOM     27  C   UNL     1     111.034 125.657 135.358  0.00  0.00    +0.000 C 
ENDBRANCH   6  26
BRANCH  10  28
ATOM     28  O   UNL     1     112.304 124.159 136.406  0.00  0.00    +0.000 OA
ATOM     29  C   UNL     1     112.032 123.734 137.057  0.00  0.00    +0.000 C 
ENDBRANCH  10  28
BRANCH  11  30
ATOM     30  O   UNL     1     113.855 124.449 136.891  0.00  0.00    +0.000 OA
ATOM     31  C   UNL     1     114.639 124.594 137.096  0.00  0.00    +0.000 C 
ENDBRANCH  11  30
TORSDOF 8
ENDMDL
MODEL 4
REMARK VINA RESULT:      -7.0      0.672      1.694
REMARK  Name = 389484
REMARK  8 active torsions:
REMARK  status: ('A' for Active; 'I' for Inactive)
REMARK    1  A    between atoms: O_2  and  C_14
REMARK    2  A    between atoms: O_3  and  C_15
REMARK    3  A    between atoms: O_4  and  C_20
REMARK    4  A    between atoms: O_5  and  C_22
REMARK    5  A    between atoms: O_6  and  C_21
REMARK    6  A    between atoms: O_7  and  C_23
REMARK    7  A    between atoms: O_8  and  C_24
REMARK    8  A    between atoms: C_11  and  C_12
REMARK                            x       y       z     vdW  Elec       q    Type
REMARK                         _______ _______ _______ _____ _____    ______ ____
ROOT
ATOM      1  O   UNL     1     112.278 127.280 136.733  0.00  0.00    +0.000 OA
ATOM      2  O   UNL     1     114.131 125.900 137.769  0.00  0.00    +0.000 OA
ATOM      3  C   UNL     1     112.891 125.977 137.002  0.00  0.00    +0.000 A 
ATOM      4  C   UNL     1     112.910 127.676 137.161  0.00  0.00    +0.000 A 
ATOM      5  C   UNL     1     112.286 126.424 136.663  0.00  0.00    +0.000 A 
ATOM      6  C   UNL     1     112.887 125.155 136.928  0.00  0.00    +0.000 A 
ATOM      7  C   UNL     1     113.530 126.354 137.433  0.00  0.00    +0.000 A 
ATOM      8  C   UNL     1     113.539 127.210 137.514  0.00  0.00    +0.000 A 
ATOM      9  C   UNL     1     111.677 126.049 136.250  0.00  0.00    +0.000 A 
ATOM     10  C   UNL     1     112.279 124.780 136.516  0.00  0.00    +0.000 A 
ATOM     11  C   UNL     1     111.674 125.227 136.177  0.00  0.00    +0.000 A 
ENDROOT
BRANCH   4  12
ATOM     12  C   UNL     1     112.911 128.498 137.233  0.00  0.00    +0.000 A 
ATOM     13  C   UNL     1     113.349 128.957 136.706  0.00  0.00    +0.000 A 
ATOM     14  C   UNL     1     112.474 128.861 137.831  0.00  0.00    +0.000 A 
ATOM     15  C   UNL     1     113.351 129.779 136.777  0.00  0.00    +0.000 A 
ATOM     16  C   UNL     1     112.475 129.683 137.903  0.00  0.00    +0.000 A 
ATOM     17  C   UNL     1     112.914 130.142 137.377  0.00  0.00    +0.000 A 
BRANCH  13  18
ATOM     18  O   UNL     1     113.786 128.595 136.108  0.00  0.00    +0.000 OA
ATOM     19  C   UNL     1     113.728 128.867 135.331  0.00  0.00    +0.000 C 
ENDBRANCH  13  18
BRANCH  15  20
ATOM     20  O   UNL     1     113.789 130.239 136.251  0.00  0.00    +0.000 OA
ATOM     21  C   UNL     1     114.530 130.526 136.472  0.00  0.00    +0.000 C 
ENDBRANCH  15  20
BRANCH  16  22
ATOM     22  O   UNL     1     112.038 130.045 138.502  0.00  0.00    +0.000 OA
ATOM     23  C   UNL     1     111.835 129.620 139.179  0.00  0.00    +0.000 C 
ENDBRANCH  16  22
BRANCH  17  24
ATOM     24  O   UNL     1     112.915 130.963 137.448  0.00  0.00    +0.000 OA
ATOM     25  C   UNL     1     112.277 131.403 137.167  0.00  0.00    +0.000 C 
ENDBRANCH  17  24
ENDBRANCH   4  12
BRANCH   6  26
ATOM     26  O   UNL     1     113.492 124.707 137.267  0.00  0.00    +0.000 OA
ATOM     27  C   UNL     1     114.264 124.779 136.987  0.00  0.00    +0.000 C 
ENDBRANCH   6  26
BRANCH  10  28
ATOM     28  O   UNL     1     112.274 123.958 136.442  0.00  0.00    +0.000 OA
ATOM     29  C   UNL     1     111.862 123.497 136.986  0.00  0.00    +0.000 C 
ENDBRANCH  10  28
BRANCH  11  30
ATOM     30  O   UNL     1     111.065 124.853 135.764  0.00  0.00    +0.000 OA
ATOM     31  C   UNL     1     110.532 125.299 135.322  0.00  0.00    +0.000 C 
ENDBRANCH  11  30
TORSDOF 8
ENDMDL
MODEL 5
REMARK VINA RESULT:      -7.0      0.800      4.881
REMARK  Name = 389484
REMARK  8 active torsions:
REMARK  status: ('A' for Active; 'I' for Inactive)
REMARK    1  A    between atoms: O_2  and  C_14
REMARK    2  A    between atoms: O_3  and  C_15
REMARK    3  A    between atoms: O_4  and  C_20
REMARK    4  A    between atoms: O_5  and  C_22
REMARK    5  A    between atoms: O_6  and  C_21
REMARK    6  A    between atoms: O_7  and  C_23
REMARK    7  A    between atoms: O_8  and  C_24
REMARK    8  A    between atoms: C_11  and  C_12
REMARK                            x       y       z     vdW  Elec       q    Type
REMARK                         _______ _______ _______ _____ _____    ______ ____
ROOT
ATOM      1  O   UNL     1     112.166 127.773 137.338  0.00  0.00    +0.000 OA
ATOM      2  O   UNL     1     113.700 129.011 135.749  0.00  0.00    +0.000 OA
ATOM      3  C   UNL     1     112.741 129.029 136.850  0.00  0.00    +0.000 A 
ATOM      4  C   UNL     1     112.620 127.328 136.758  0.00  0.00    +0.000 A 
ATOM      5  C   UNL     1     112.240 128.628 137.369  0.00  0.00    +0.000 A 
ATOM      6  C   UNL     1     112.803 129.851 136.890  0.00  0.00    +0.000 A 
ATOM      7  C   UNL     1     113.202 128.602 136.264  0.00  0.00    +0.000 A 
ATOM      8  C   UNL     1     113.141 127.746 136.218  0.00  0.00    +0.000 A 
ATOM      9  C   UNL     1     111.802 129.048 137.928  0.00  0.00    +0.000 A 
ATOM     10  C   UNL     1     112.366 130.271 137.449  0.00  0.00    +0.000 A 
ATOM     11  C   UNL     1     111.865 129.870 137.968  0.00  0.00    +0.000 A 
ENDROOT
BRANCH   4  12
ATOM     12  C   UNL     1     112.555 126.507 136.720  0.00  0.00    +0.000 A 
ATOM     13  C   UNL     1     113.100 126.032 137.118  0.00  0.00    +0.000 A 
ATOM     14  C   UNL     1     111.947 126.160 136.286  0.00  0.00    +0.000 A 
ATOM     15  C   UNL     1     113.036 125.210 137.082  0.00  0.00    +0.000 A 
ATOM     16  C   UNL     1     111.882 125.338 136.248  0.00  0.00    +0.000 A 
ATOM     17  C   UNL     1     112.427 124.863 136.646  0.00  0.00    +0.000 A 
BRANCH  13  18
ATOM     18  O   UNL     1     113.709 126.378 137.554  0.00  0.00    +0.000 OA
ATOM     19  C   UNL     1     113.845 126.144 138.333  0.00  0.00    +0.000 C 
ENDBRANCH  13  18
BRANCH  15  20
ATOM     20  O   UNL     1     113.581 124.735 137.480  0.00  0.00    +0.000 OA
ATOM     21  C   UNL     1     114.239 124.439 137.080  0.00  0.00    +0.000 C 
ENDBRANCH  15  20
BRANCH  16  22
ATOM     22  O   UNL     1     111.273 124.992 135.813  0.00  0.00    +0.000 OA
ATOM     23  C   UNL     1     110.778 125.462 135.349  0.00  0.00    +0.000 C 
ENDBRANCH  16  22
BRANCH  17  24
ATOM     24  O   UNL     1     112.363 124.042 136.609  0.00  0.00    +0.000 OA
ATOM     25  C   UNL     1     111.826 123.648 137.095  0.00  0.00    +0.000 C 
ENDBRANCH  17  24
ENDBRANCH   4  12
BRANCH   6  26
ATOM     26  O   UNL     1     113.303 130.252 136.371  0.00  0.00    +0.000 OA
ATOM     27  C   UNL     1     114.121 130.168 136.439  0.00  0.00    +0.000 C 
ENDBRANCH   6  26
BRANCH  10  28
ATOM     28  O   UNL     1     112.428 131.093 137.489  0.00  0.00    +0.000 OA
ATOM     29  C   UNL     1     111.862 131.568 137.123  0.00  0.00    +0.000 C 
ENDBRANCH  10  28
BRANCH  11  30
ATOM     30  O   UNL     1     111.427 130.291 138.527  0.00  0.00    +0.000 OA
ATOM     31  C   UNL     1     111.106 129.900 139.178  0.00  0.00    +0.000 C 
ENDBRANCH  11  30
TORSDOF 8
ENDMDL
MODEL 6
REMARK VINA RESULT:      -7.0      0.701      4.895
REMARK  Name = 389484
REMARK  8 active torsions:
REMARK  status: ('A' for Active; 'I' for Inactive)
REMARK    1  A    between atoms: O_2  and  C_14
REMARK    2  A    between atoms: O_3  and  C_15
REMARK    3  A    between atoms: O_4  and  C_20
REMARK    4  A    between atoms: O_5  and  C_22
REMARK    5  A    between atoms: O_6  and  C_21
REMARK    6  A    between atoms: O_7  and  C_23
REMARK    7  A    between atoms: O_8  and  C_24
REMARK    8  A    between atoms: C_11  and  C_12
REMARK                            x       y       z     vdW  Elec       q    Type
REMARK                         _______ _______ _______ _____ _____    ______ ____
ROOT
ATOM      1  O   UNL     1     113.245 127.639 136.400  0.00  0.00    +0.000 OA
ATOM      2  O   UNL     1     112.796 128.688 138.660  0.00  0.00    +0.000 OA
ATOM      3  C   UNL     1     113.292 128.800 137.291  0.00  0.00    +0.000 A 
ATOM      4  C   UNL     1     112.893 127.162 137.023  0.00  0.00    +0.000 A 
ATOM      5  C   UNL     1     113.439 128.461 136.554  0.00  0.00    +0.000 A 
ATOM      6  C   UNL     1     113.482 129.592 137.426  0.00  0.00    +0.000 A 
ATOM      7  C   UNL     1     112.940 128.341 137.926  0.00  0.00    +0.000 A 
ATOM      8  C   UNL     1     112.740 127.516 137.791  0.00  0.00    +0.000 A 
ATOM      9  C   UNL     1     113.777 128.913 135.951  0.00  0.00    +0.000 A 
ATOM     10  C   UNL     1     113.820 130.044 136.824  0.00  0.00    +0.000 A 
ATOM     11  C   UNL     1     113.967 129.704 136.087  0.00  0.00    +0.000 A 
ENDROOT
BRANCH   4  12
ATOM     12  C   UNL     1     112.704 126.371 136.885  0.00  0.00    +0.000 A 
ATOM     13  C   UNL     1     111.958 126.170 136.596  0.00  0.00    +0.000 A 
ATOM     14  C   UNL     1     113.260 125.781 137.036  0.00  0.00    +0.000 A 
ATOM     15  C   UNL     1     111.767 125.380 136.457  0.00  0.00    +0.000 A 
ATOM     16  C   UNL     1     113.070 124.990 136.897  0.00  0.00    +0.000 A 
ATOM     17  C   UNL     1     112.324 124.789 136.608  0.00  0.00    +0.000 A 
BRANCH  13  18
ATOM     18  O   UNL     1     111.401 126.760 136.445  0.00  0.00    +0.000 OA
ATOM     19  C   UNL     1     110.638 126.697 136.751  0.00  0.00    +0.000 C 
ENDBRANCH  13  18
BRANCH  15  20
ATOM     20  O   UNL     1     111.021 125.179 136.168  0.00  0.00    +0.000 OA
ATOM     21  C   UNL     1     110.901 125.100 135.356  0.00  0.00    +0.000 C 
ENDBRANCH  15  20
BRANCH  16  22
ATOM     22  O   UNL     1     113.627 124.400 137.048  0.00  0.00    +0.000 OA
ATOM     23  C   UNL     1     114.423 124.597 137.135  0.00  0.00    +0.000 C 
ENDBRANCH  16  22
BRANCH  17  24
ATOM     24  O   UNL     1     112.135 123.999 136.470  0.00  0.00    +0.000 OA
ATOM     25  C   UNL     1     111.917 123.511 137.098  0.00  0.00    +0.000 C 
ENDBRANCH  17  24
ENDBRANCH   4  12
BRANCH   6  26
ATOM     26  O   UNL     1     113.335 129.931 138.163  0.00  0.00    +0.000 OA
ATOM     27  C   UNL     1     113.768 129.691 138.822  0.00  0.00    +0.000 C 
ENDBRANCH   6  26
BRANCH  10  28
ATOM     28  O   UNL     1     114.010 130.835 136.959  0.00  0.00    +0.000 OA
ATOM     29  C   UNL     1     113.479 131.429 136.749  0.00  0.00    +0.000 C 
ENDBRANCH  10  28
BRANCH  11  30
ATOM     30  O   UNL     1     114.305 130.156 135.485  0.00  0.00    +0.000 OA
ATOM     31  C   UNL     1     114.638 129.786 134.828  0.00  0.00    +0.000 C 
ENDBRANCH  11  30
TORSDOF 8
ENDMDL
MODEL 7
REMARK VINA RESULT:      -6.9      1.931      5.179
REMARK  Name = 389484
REMARK  8 active torsions:
REMARK  status: ('A' for Active; 'I' for Inactive)
REMARK    1  A    between atoms: O_2  and  C_14
REMARK    2  A    between atoms: O_3  and  C_15
REMARK    3  A    between atoms: O_4  and  C_20
REMARK    4  A    between atoms: O_5  and  C_22
REMARK    5  A    between atoms: O_6  and  C_21
REMARK    6  A    between atoms: O_7  and  C_23
REMARK    7  A    between atoms: O_8  and  C_24
REMARK    8  A    between atoms: C_11  and  C_12
REMARK                            x       y       z     vdW  Elec       q    Type
REMARK                         _______ _______ _______ _____ _____    ______ ____
ROOT
ATOM      1  O   UNL     1     113.040 127.509 138.511  0.00  0.00    +0.000 OA
ATOM      2  O   UNL     1     113.111 127.072 141.004  0.00  0.00    +0.000 OA
ATOM      3  C   UNL     1     113.212 128.000 139.881  0.00  0.00    +0.000 A 
ATOM      4  C   UNL     1     112.912 126.710 138.802  0.00  0.00    +0.000 A 
ATOM      5  C   UNL     1     113.189 128.145 139.069  0.00  0.00    +0.000 A 
ATOM      6  C   UNL     1     113.356 128.619 140.406  0.00  0.00    +0.000 A 
ATOM      7  C   UNL     1     113.086 127.208 140.190  0.00  0.00    +0.000 A 
ATOM      8  C   UNL     1     112.936 126.559 139.647  0.00  0.00    +0.000 A 
ATOM      9  C   UNL     1     113.311 128.910 138.783  0.00  0.00    +0.000 A 
ATOM     10  C   UNL     1     113.477 129.383 140.121  0.00  0.00    +0.000 A 
ATOM     11  C   UNL     1     113.455 129.528 139.309  0.00  0.00    +0.000 A 
ENDROOT
BRANCH   4  12
ATOM     12  C   UNL     1     112.769 126.093 138.274  0.00  0.00    +0.000 A 
ATOM     13  C   UNL     1     112.000 125.946 138.011  0.00  0.00    +0.000 A 
ATOM     14  C   UNL     1     113.392 125.624 138.008  0.00  0.00    +0.000 A 
ATOM     15  C   UNL     1     111.855 125.329 137.483  0.00  0.00    +0.000 A 
ATOM     16  C   UNL     1     113.248 125.007 137.480  0.00  0.00    +0.000 A 
ATOM     17  C   UNL     1     112.480 124.859 137.217  0.00  0.00    +0.000 A 
BRANCH  13  18
ATOM     18  O   UNL     1     111.376 126.415 138.277  0.00  0.00    +0.000 OA
ATOM     19  C   UNL     1     110.699 126.064 138.590  0.00  0.00    +0.000 C 
ENDBRANCH  13  18
BRANCH  15  20
ATOM     20  O   UNL     1     111.087 125.182 137.221  0.00  0.00    +0.000 OA
ATOM     21  C   UNL     1     110.834 125.483 136.496  0.00  0.00    +0.000 C 
ENDBRANCH  15  20
BRANCH  16  22
ATOM     22  O   UNL     1     113.872 124.537 137.214  0.00  0.00    +0.000 OA
ATOM     23  C   UNL     1     114.643 124.830 137.226  0.00  0.00    +0.000 C 
ENDBRANCH  16  22
BRANCH  17  24
ATOM     24  O   UNL     1     112.336 124.243 136.689  0.00  0.00    +0.000 OA
ATOM     25  C   UNL     1     112.260 123.470 136.968  0.00  0.00    +0.000 C 
ENDBRANCH  17  24
ENDBRANCH   4  12
BRANCH   6  26
ATOM     26  O   UNL     1     113.378 128.474 141.218  0.00  0.00    +0.000 OA
ATOM     27  C   UNL     1     112.689 128.262 141.619  0.00  0.00    +0.000 C 
ENDBRANCH   6  26
BRANCH  10  28
ATOM     28  O   UNL     1     113.622 130.003 140.647  0.00  0.00    +0.000 OA
ATOM     29  C   UNL     1     114.394 130.255 140.786  0.00  0.00    +0.000 C 
ENDBRANCH  10  28
BRANCH  11  30
ATOM     30  O   UNL     1     113.577 130.293 139.023  0.00  0.00    +0.000 OA
ATOM     31  C   UNL     1     113.381 130.478 138.244  0.00  0.00    +0.000 C 
ENDBRANCH  11  30
TORSDOF 8
ENDMDL
MODEL 8
REMARK VINA RESULT:      -6.9      0.763      4.921
REMARK  Name = 389484
REMARK  8 active torsions:
REMARK  status: ('A' for Active; 'I' for Inactive)
REMARK    1  A    between atoms: O_2  and  C_14
REMARK    2  A    between atoms: O_3  and  C_15
REMARK    3  A    between atoms: O_4  and  C_20
REMARK    4  A    between atoms: O_5  and  C_22
REMARK    5  A    between atoms: O_6  and  C_21
REMARK    6  A    between atoms: O_7  and  C_23
REMARK    7  A    between atoms: O_8  and  C_24
REMARK    8  A    between atoms: C_11  and  C_12
REMARK                            x       y       z     vdW  Elec       q    Type
REMARK                         _______ _______ _______ _____ _____    ______ ____
ROOT
ATOM      1  O   UNL     1     112.974 127.832 137.254  0.00  0.00    +0.000 OA
ATOM      2  O   UNL     1     113.817 128.886 135.111  0.00  0.00    +0.000 OA
ATOM      3  C   UNL     1     113.502 128.993 136.534  0.00  0.00    +0.000 A 
ATOM      4  C   UNL     1     113.005 127.360 136.536  0.00  0.00    +0.000 A 
ATOM      5  C   UNL     1     113.228 128.652 137.233  0.00  0.00    +0.000 A 
ATOM      6  C   UNL     1     113.744 129.782 136.527  0.00  0.00    +0.000 A 
ATOM      7  C   UNL     1     113.541 128.537 135.807  0.00  0.00    +0.000 A 
ATOM      8  C   UNL     1     113.291 127.715 135.807  0.00  0.00    +0.000 A 
ATOM      9  C   UNL     1     113.196 129.100 137.926  0.00  0.00    +0.000 A 
ATOM     10  C   UNL     1     113.711 130.230 137.219  0.00  0.00    +0.000 A 
ATOM     11  C   UNL     1     113.437 129.889 137.918  0.00  0.00    +0.000 A 
ENDROOT
BRANCH   4  12
ATOM     12  C   UNL     1     112.763 126.571 136.546  0.00  0.00    +0.000 A 
ATOM     13  C   UNL     1     111.985 126.376 136.353  0.00  0.00    +0.000 A 
ATOM     14  C   UNL     1     113.298 125.977 136.749  0.00  0.00    +0.000 A 
ATOM     15  C   UNL     1     111.742 125.588 136.362  0.00  0.00    +0.000 A 
ATOM     16  C   UNL     1     113.056 125.189 136.759  0.00  0.00    +0.000 A 
ATOM     17  C   UNL     1     112.278 124.994 136.566  0.00  0.00    +0.000 A 
BRANCH  13  18
ATOM     18  O   UNL     1     111.449 126.970 136.149  0.00  0.00    +0.000 OA
ATOM     19  C   UNL     1     110.709 127.001 136.513  0.00  0.00    +0.000 C 
ENDBRANCH  13  18
BRANCH  15  20
ATOM     20  O   UNL     1     110.964 125.393 136.169  0.00  0.00    +0.000 OA
ATOM     21  C   UNL     1     110.773 125.177 135.396  0.00  0.00    +0.000 C 
ENDBRANCH  15  20
BRANCH  16  22
ATOM     22  O   UNL     1     113.592 124.595 136.962  0.00  0.00    +0.000 OA
ATOM     23  C   UNL     1     114.391 124.776 137.058  0.00  0.00    +0.000 C 
ENDBRANCH  16  22
BRANCH  17  24
ATOM     24  O   UNL     1     112.036 124.206 136.576  0.00  0.00    +0.000 OA
ATOM     25  C   UNL     1     111.849 123.841 137.291  0.00  0.00    +0.000 C 
ENDBRANCH  17  24
ENDBRANCH   4  12
BRANCH   6  26
ATOM     26  O   UNL     1     114.018 130.123 135.828  0.00  0.00    +0.000 OA
ATOM     27  C   UNL     1     114.732 129.874 135.499  0.00  0.00    +0.000 C 
ENDBRANCH   6  26
BRANCH  10  28
ATOM     28  O   UNL     1     113.953 131.019 137.212  0.00  0.00    +0.000 OA
ATOM     29  C   UNL     1     113.404 131.617 137.071  0.00  0.00    +0.000 C 
ENDBRANCH  10  28
BRANCH  11  30
ATOM     30  O   UNL     1     113.405 130.337 138.611  0.00  0.00    +0.000 OA
ATOM     31  C   UNL     1     113.348 129.961 139.342  0.00  0.00    +0.000 C 
ENDBRANCH  11  30
TORSDOF 8
ENDMDL
MODEL 9
REMARK VINA RESULT:      -6.7     12.566     14.374
REMARK  Name = 389484
REMARK  8 active torsions:
REMARK  status: ('A' for Active; 'I' for Inactive)
REMARK    1  A    between atoms: O_2  and  C_14
REMARK    2  A    between atoms: O_3  and  C_15
REMARK    3  A    between atoms: O_4  and  C_20
REMARK    4  A    between atoms: O_5  and  C_22
REMARK    5  A    between atoms: O_6  and  C_21
REMARK    6  A    between atoms: O_7  and  C_23
REMARK    7  A    between atoms: O_8  and  C_24
REMARK    8  A    between atoms: C_11  and  C_12
REMARK                            x       y       z     vdW  Elec       q    Type
REMARK                         _______ _______ _______ _____ _____    ______ ____
ROOT
ATOM      1  O   UNL     1     104.110 125.330 146.434  0.00  0.00    +0.000 OA
ATOM      2  O   UNL     1     106.018 124.195 147.652  0.00  0.00    +0.000 OA
ATOM      3  C   UNL     1     105.534 125.253 146.769  0.00  0.00    +0.000 A 
ATOM      4  C   UNL     1     103.949 124.638 146.919  0.00  0.00    +0.000 A 
ATOM      5  C   UNL     1     104.914 125.625 146.371  0.00  0.00    +0.000 A 
ATOM      6  C   UNL     1     106.303 125.546 146.699  0.00  0.00    +0.000 A 
ATOM      7  C   UNL     1     105.393 124.561 147.257  0.00  0.00    +0.000 A 
ATOM      8  C   UNL     1     104.594 124.251 147.333  0.00  0.00    +0.000 A 
ATOM      9  C   UNL     1     105.063 126.289 145.904  0.00  0.00    +0.000 A 
ATOM     10  C   UNL     1     106.451 126.209 146.233  0.00  0.00    +0.000 A 
ATOM     11  C   UNL     1     105.832 126.581 145.835  0.00  0.00    +0.000 A 
ENDROOT
BRANCH   4  12
ATOM     12  C   UNL     1     103.179 124.348 146.986  0.00  0.00    +0.000 A 
ATOM     13  C   UNL     1     102.880 123.836 146.412  0.00  0.00    +0.000 A 
ATOM     14  C   UNL     1     102.708 124.570 147.625  0.00  0.00    +0.000 A 
ATOM     15  C   UNL     1     102.112 123.545 146.478  0.00  0.00    +0.000 A 
ATOM     16  C   UNL     1     101.939 124.280 147.692  0.00  0.00    +0.000 A 
ATOM     17  C   UNL     1     101.640 123.767 147.119  0.00  0.00    +0.000 A 
BRANCH  13  18
ATOM     18  O   UNL     1     103.351 123.614 145.772  0.00  0.00    +0.000 OA
ATOM     19  C   UNL     1     103.417 122.818 145.564  0.00  0.00    +0.000 C 
ENDBRANCH  13  18
BRANCH  15  20
ATOM     20  O   UNL     1     101.813 123.033 145.905  0.00  0.00    +0.000 OA
ATOM     21  C   UNL     1     101.300 123.317 145.325  0.00  0.00    +0.000 C 
ENDBRANCH  15  20
BRANCH  16  22
ATOM     22  O   UNL     1     101.469 124.502 148.333  0.00  0.00    +0.000 OA
ATOM     23  C   UNL     1     101.521 125.267 148.638  0.00  0.00    +0.000 C 
ENDBRANCH  16  22
BRANCH  17  24
ATOM     24  O   UNL     1     100.872 123.477 147.185  0.00  0.00    +0.000 OA
ATOM     25  C   UNL     1     100.711 122.849 147.694  0.00  0.00    +0.000 C 
ENDBRANCH  17  24
ENDBRANCH   4  12
BRANCH   6  26
ATOM     26  O   UNL     1     106.922 125.174 147.097  0.00  0.00    +0.000 OA
ATOM     27  C   UNL     1     106.856 125.008 147.903  0.00  0.00    +0.000 C 
ENDBRANCH   6  26
BRANCH  10  28
ATOM     28  O   UNL     1     107.220 126.502 146.164  0.00  0.00    +0.000 OA
ATOM     29  C   UNL     1     107.431 127.202 146.545  0.00  0.00    +0.000 C 
ENDBRANCH  10  28
BRANCH  11  30
ATOM     30  O   UNL     1     105.980 127.245 145.368  0.00  0.00    +0.000 OA
ATOM     31  C   UNL     1     105.485 127.422 144.734  0.00  0.00    +0.000 C 
ENDBRANCH  11  30
TORSDOF 8
ENDMDL
MODEL 10
REMARK VINA RESULT:      -6.6      2.013      3.049
REMARK  Name = 389484
REMARK  8 active torsions:
REMARK  status: ('A' for Active; 'I' for Inactive)
REMARK    1  A    between atoms: O_2  and  C_14
REMARK    2  A    between atoms: O_3  and  C_15
REMARK    3  A    between atoms: O_4  and  C_20
REMARK    4  A    between atoms: O_5  and  C_22
REMARK    5  A    between atoms: O_6  and  C_21
REMARK    6  A    between atoms: O_7  and  C_23
REMARK    7  A    between atoms: O_8  and  C_24
REMARK    8  A    between atoms: C_11  and  C_12
REMARK                            x       y       z     vdW  Elec       q    Type
REMARK                         _______ _______ _______ _____ _____    ______ ____
ROOT
ATOM      1  O   UNL     1     113.386 127.421 138.668  0.00  0.00    +0.000 OA
ATOM      2  O   UNL     1     110.882 127.099 138.484  0.00  0.00    +0.000 OA
ATOM      3  C   UNL     1     112.239 126.606 138.263  0.00  0.00    +0.000 A 
ATOM      4  C   UNL     1     112.860 128.036 138.957  0.00  0.00    +0.000 A 
ATOM      5  C   UNL     1     113.055 126.709 138.322  0.00  0.00    +0.000 A 
ATOM      6  C   UNL     1     111.933 125.917 137.928  0.00  0.00    +0.000 A 
ATOM      7  C   UNL     1     111.697 127.209 138.546  0.00  0.00    +0.000 A 
ATOM      8  C   UNL     1     112.010 127.930 138.896  0.00  0.00    +0.000 A 
ATOM      9  C   UNL     1     113.566 126.121 138.045  0.00  0.00    +0.000 A 
ATOM     10  C   UNL     1     112.442 125.330 137.652  0.00  0.00    +0.000 A 
ATOM     11  C   UNL     1     113.259 125.433 137.711  0.00  0.00    +0.000 A 
ENDROOT
BRANCH   4  12
ATOM     12  C   UNL     1     113.169 128.725 139.291  0.00  0.00    +0.000 A 
ATOM     13  C   UNL     1     113.209 128.803 140.112  0.00  0.00    +0.000 A 
ATOM     14  C   UNL     1     113.438 129.335 138.806  0.00  0.00    +0.000 A 
ATOM     15  C   UNL     1     113.518 129.490 140.447  0.00  0.00    +0.000 A 
ATOM     16  C   UNL     1     113.747 130.023 139.140  0.00  0.00    +0.000 A 
ATOM     17  C   UNL     1     113.787 130.101 139.961  0.00  0.00    +0.000 A 
BRANCH  13  18
ATOM     18  O   UNL     1     112.940 128.193 140.598  0.00  0.00    +0.000 OA
ATOM     19  C   UNL     1     113.431 127.887 141.186  0.00  0.00    +0.000 C 
ENDBRANCH  13  18
BRANCH  15  20
ATOM     20  O   UNL     1     113.558 129.568 141.267  0.00  0.00    +0.000 OA
ATOM     21  C   UNL     1     112.977 129.993 141.670  0.00  0.00    +0.000 C 
ENDBRANCH  15  20
BRANCH  16  22
ATOM     22  O   UNL     1     114.016 130.633 138.654  0.00  0.00    +0.000 OA
ATOM     23  C   UNL     1     113.766 130.675 137.869  0.00  0.00    +0.000 C 
ENDBRANCH  16  22
BRANCH  17  24
ATOM     24  O   UNL     1     114.096 130.788 140.295  0.00  0.00    +0.000 OA
ATOM     25  C   UNL     1     114.912 130.878 140.374  0.00  0.00    +0.000 C 
ENDBRANCH  17  24
ENDBRANCH   4  12
BRANCH   6  26
ATOM     26  O   UNL     1     111.116 125.814 137.870  0.00  0.00    +0.000 OA
ATOM     27  C   UNL     1     110.661 125.724 138.552  0.00  0.00    +0.000 C 
ENDBRANCH   6  26
BRANCH  10  28
ATOM     28  O   UNL     1     112.137 124.641 137.318  0.00  0.00    +0.000 OA
ATOM     29  C   UNL     1     112.069 124.574 136.499  0.00  0.00    +0.000 C 
ENDBRANCH  10  28
BRANCH  11  30
ATOM     30  O   UNL     1     113.770 124.846 137.435  0.00  0.00    +0.000 OA
ATOM     31  C   UNL     1     114.583 124.923 137.543  0.00  0.00    +0.000 C 
ENDBRANCH  11  30
TORSDOF 8
ENDMDL
