MODEL 1
REMARK VINA RESULT:      -8.3      0.000      0.000
REMARK  Name = 13870531
REMARK  8 active torsions:
REMARK  status: ('A' for Active; 'I' for Inactive)
REMARK    1  A    between atoms: O_4  and  C_15
REMARK    2  A    between atoms: O_4  and  C_17
REMARK    3  A    between atoms: O_7  and  C_27
REMARK    4  A    between atoms: O_8  and  C_30
REMARK    5  A    between atoms: C_13  and  C_16
REMARK    6  A    between atoms: C_22  and  C_23
REMARK    7  A    between atoms: C_24  and  C_26
REMARK    8  A    between atoms: C_25  and  C_26
REMARK                            x       y       z     vdW  Elec       q    Type
REMARK                         _______ _______ _______ _____ _____    ______ ____
ROOT
ATOM      1  C   UNL     1     110.650 125.565 135.665  0.00  0.00    +0.000 A 
ATOM      2  C   UNL     1     110.224 125.734 136.351  0.00  0.00    +0.000 A 
ATOM      3  C   UNL     1     110.555 126.037 134.995  0.00  0.00    +0.000 A 
ATOM      4  C   UNL     1     109.703 126.373 136.368  0.00  0.00    +0.000 A 
ATOM      5  C   UNL     1     110.035 126.677 135.011  0.00  0.00    +0.000 A 
ATOM      6  C   UNL     1     109.609 126.845 135.697  0.00  0.00    +0.000 A 
ENDROOT
BRANCH   6   7
ATOM      7  C   UNL     1     109.089 127.485 135.713  0.00  0.00    +0.000 C 
ATOM      8  C   UNL     1     109.366 128.238 135.906  0.00  0.00    +0.000 C 
BRANCH   8  10
ATOM      9  O   UNL     1     108.035 128.752 135.832  0.00  0.00    +0.000 OA
ATOM     10  C   UNL     1     108.846 128.878 135.922  0.00  0.00    +0.000 C 
BRANCH  10  12
ATOM     11  O   UNL     1     109.187 129.821 134.612  0.00  0.00    +0.000 OA
ATOM     12  C   UNL     1     109.136 129.642 136.029  0.00  0.00    +0.000 A 
ATOM     13  C   UNL     1     109.255 129.936 136.790  0.00  0.00    +0.000 A 
ATOM     14  C   UNL     1     109.306 130.115 135.374  0.00  0.00    +0.000 A 
ATOM     15  C   UNL     1     109.545 130.701 136.897  0.00  0.00    +0.000 A 
ATOM     16  C   UNL     1     109.716 131.172 136.242  0.00  0.00    +0.000 A 
ATOM     17  C   UNL     1     109.596 130.879 135.480  0.00  0.00    +0.000 A 
BRANCH  13  18
ATOM     18  O   UNL     1     109.084 129.465 137.446  0.00  0.00    +0.000 OA
ATOM     19  C   UNL     1     109.273 129.729 138.204  0.00  0.00    +0.000 C 
ENDBRANCH  13  18
BRANCH  16  20
ATOM     20  O   UNL     1     110.006 131.938 136.349  0.00  0.00    +0.000 OA
ATOM     21  C   UNL     1     109.565 132.586 136.093  0.00  0.00    +0.000 C 
ENDBRANCH  16  20
ENDBRANCH  10  12
ENDBRANCH   8  10
ENDBRANCH   6   7
BRANCH   1  22
ATOM     22  O   UNL     1     111.171 124.925 135.649  0.00  0.00    +0.000 OA
BRANCH  22  31
ATOM     23  O   UNL     1     112.262 125.658 136.209  0.00  0.00    +0.000 OA
ATOM     24  O   UNL     1     113.936 125.003 137.446  0.00  0.00    +0.000 OA
ATOM     25  O   UNL     1     113.138 123.577 137.224  0.00  0.00    +0.000 OA
ATOM     26  O   UNL     1     111.755 123.538 136.325  0.00  0.00    +0.000 OA
ATOM     27  C   UNL     1     113.245 124.984 136.997  0.00  0.00    +0.000 C 
ATOM     28  C   UNL     1     112.846 124.271 136.886  0.00  0.00    +0.000 C 
ATOM     29  C   UNL     1     112.953 125.678 136.658  0.00  0.00    +0.000 C 
ATOM     30  C   UNL     1     112.154 124.251 136.436  0.00  0.00    +0.000 C 
ATOM     31  C   UNL     1     111.862 124.945 136.098  0.00  0.00    +0.000 C 
BRANCH  29  33
ATOM     32  O   UNL     1     113.615 126.823 136.118  0.00  0.00    +0.000 OA
ATOM     33  C   UNL     1     113.353 126.390 136.770  0.00  0.00    +0.000 C 
ENDBRANCH  29  33
ENDBRANCH  22  31
ENDBRANCH   1  22
TORSDOF 8
ENDMDL
MODEL 2
REMARK VINA RESULT:      -8.3      1.287      5.701
REMARK  Name = 13870531
REMARK  8 active torsions:
REMARK  status: ('A' for Active; 'I' for Inactive)
REMARK    1  A    between atoms: O_4  and  C_15
REMARK    2  A    between atoms: O_4  and  C_17
REMARK    3  A    between atoms: O_7  and  C_27
REMARK    4  A    between atoms: O_8  and  C_30
REMARK    5  A    between atoms: C_13  and  C_16
REMARK    6  A    between atoms: C_22  and  C_23
REMARK    7  A    between atoms: C_24  and  C_26
REMARK    8  A    between atoms: C_25  and  C_26
REMARK                            x       y       z     vdW  Elec       q    Type
REMARK                         _______ _______ _______ _____ _____    ______ ____
ROOT
ATOM      1  C   UNL     1     109.155 127.310 136.085  0.00  0.00    +0.000 A 
ATOM      2  C   UNL     1     109.287 127.343 136.899  0.00  0.00    +0.000 A 
ATOM      3  C   UNL     1     109.478 126.696 135.639  0.00  0.00    +0.000 A 
ATOM      4  C   UNL     1     109.743 126.761 137.266  0.00  0.00    +0.000 A 
ATOM      5  C   UNL     1     109.933 126.114 136.006  0.00  0.00    +0.000 A 
ATOM      6  C   UNL     1     110.066 126.147 136.819  0.00  0.00    +0.000 A 
ENDROOT
BRANCH   6   7
ATOM      7  C   UNL     1     110.521 125.566 137.186  0.00  0.00    +0.000 C 
ATOM      8  C   UNL     1     111.345 125.590 137.131  0.00  0.00    +0.000 C 
BRANCH   8  10
ATOM      9  O   UNL     1     111.444 124.469 138.012  0.00  0.00    +0.000 OA
ATOM     10  C   UNL     1     111.801 125.009 137.499  0.00  0.00    +0.000 C 
BRANCH  10  12
ATOM     11  O   UNL     1     112.378 123.996 136.331  0.00  0.00    +0.000 OA
ATOM     12  C   UNL     1     112.611 124.967 137.353  0.00  0.00    +0.000 A 
ATOM     13  C   UNL     1     113.133 125.432 137.791  0.00  0.00    +0.000 A 
ATOM     14  C   UNL     1     112.901 124.461 136.769  0.00  0.00    +0.000 A 
ATOM     15  C   UNL     1     113.945 125.390 137.646  0.00  0.00    +0.000 A 
ATOM     16  C   UNL     1     114.233 124.884 137.062  0.00  0.00    +0.000 A 
ATOM     17  C   UNL     1     113.711 124.419 136.624  0.00  0.00    +0.000 A 
BRANCH  13  18
ATOM     18  O   UNL     1     112.845 125.938 138.375  0.00  0.00    +0.000 OA
ATOM     19  C   UNL     1     113.369 126.338 138.871  0.00  0.00    +0.000 C 
ENDBRANCH  13  18
BRANCH  16  20
ATOM     20  O   UNL     1     115.045 124.843 136.916  0.00  0.00    +0.000 OA
ATOM     21  C   UNL     1     115.355 125.157 136.220  0.00  0.00    +0.000 C 
ENDBRANCH  16  20
ENDBRANCH  10  12
ENDBRANCH   8  10
ENDBRANCH   6   7
BRANCH   1  22
ATOM     22  O   UNL     1     108.699 127.892 135.717  0.00  0.00    +0.000 OA
BRANCH  22  31
ATOM     23  O   UNL     1     109.771 128.713 135.250  0.00  0.00    +0.000 OA
ATOM     24  O   UNL     1     109.975 130.884 135.167  0.00  0.00    +0.000 OA
ATOM     25  O   UNL     1     108.470 130.738 135.826  0.00  0.00    +0.000 OA
ATOM     26  O   UNL     1     107.832 129.242 136.101  0.00  0.00    +0.000 OA
ATOM     27  C   UNL     1     109.656 130.136 135.304  0.00  0.00    +0.000 C 
ATOM     28  C   UNL     1     108.904 130.063 135.634  0.00  0.00    +0.000 C 
ATOM     29  C   UNL     1     110.090 129.461 135.112  0.00  0.00    +0.000 C 
ATOM     30  C   UNL     1     108.584 129.314 135.772  0.00  0.00    +0.000 C 
ATOM     31  C   UNL     1     109.018 128.639 135.580  0.00  0.00    +0.000 C 
BRANCH  29  33
ATOM     32  O   UNL     1     111.509 129.340 135.229  0.00  0.00    +0.000 OA
ATOM     33  C   UNL     1     110.842 129.534 134.783  0.00  0.00    +0.000 C 
ENDBRANCH  29  33
ENDBRANCH  22  31
ENDBRANCH   1  22
TORSDOF 8
ENDMDL
MODEL 3
REMARK VINA RESULT:      -8.2      3.342      5.833
REMARK  Name = 13870531
REMARK  8 active torsions:
REMARK  status: ('A' for Active; 'I' for Inactive)
REMARK    1  A    between atoms: O_4  and  C_15
REMARK    2  A    between atoms: O_4  and  C_17
REMARK    3  A    between atoms: O_7  and  C_27
REMARK    4  A    between atoms: O_8  and  C_30
REMARK    5  A    between atoms: C_13  and  C_16
REMARK    6  A    between atoms: C_22  and  C_23
REMARK    7  A    between atoms: C_24  and  C_26
REMARK    8  A    between atoms: C_25  and  C_26
REMARK                            x       y       z     vdW  Elec       q    Type
REMARK                         _______ _______ _______ _____ _____    ______ ____
ROOT
ATOM      1  C   UNL     1     113.088 127.492 140.288  0.00  0.00    +0.000 A 
ATOM      2  C   UNL     1     112.903 128.012 139.674  0.00  0.00    +0.000 A 
ATOM      3  C   UNL     1     113.354 126.730 140.116  0.00  0.00    +0.000 A 
ATOM      4  C   UNL     1     112.984 127.770 138.890  0.00  0.00    +0.000 A 
ATOM      5  C   UNL     1     113.434 126.488 139.331  0.00  0.00    +0.000 A 
ATOM      6  C   UNL     1     113.250 127.008 138.719  0.00  0.00    +0.000 A 
ENDROOT
BRANCH   6   7
ATOM      7  C   UNL     1     113.330 126.766 137.934  0.00  0.00    +0.000 C 
ATOM      8  C   UNL     1     112.676 126.479 137.521  0.00  0.00    +0.000 C 
BRANCH   8  10
ATOM      9  O   UNL     1     113.505 126.198 136.392  0.00  0.00    +0.000 OA
ATOM     10  C   UNL     1     112.756 126.237 136.736  0.00  0.00    +0.000 C 
BRANCH  10  12
ATOM     11  O   UNL     1     111.988 127.381 135.829  0.00  0.00    +0.000 OA
ATOM     12  C   UNL     1     112.089 126.035 136.297  0.00  0.00    +0.000 A 
ATOM     13  C   UNL     1     111.805 125.260 136.311  0.00  0.00    +0.000 A 
ATOM     14  C   UNL     1     111.704 126.606 135.843  0.00  0.00    +0.000 A 
ATOM     15  C   UNL     1     111.137 125.057 135.871  0.00  0.00    +0.000 A 
ATOM     16  C   UNL     1     110.753 125.629 135.417  0.00  0.00    +0.000 A 
ATOM     17  C   UNL     1     111.037 126.404 135.403  0.00  0.00    +0.000 A 
BRANCH  13  18
ATOM     18  O   UNL     1     112.189 124.688 136.765  0.00  0.00    +0.000 OA
ATOM     19  C   UNL     1     111.945 123.901 136.730  0.00  0.00    +0.000 C 
ENDBRANCH  13  18
BRANCH  16  20
ATOM     20  O   UNL     1     110.085 125.426 134.977  0.00  0.00    +0.000 OA
ATOM     21  C   UNL     1     109.445 125.945 134.935  0.00  0.00    +0.000 C 
ENDBRANCH  16  20
ENDBRANCH  10  12
ENDBRANCH   8  10
ENDBRANCH   6   7
BRANCH   1  22
ATOM     22  O   UNL     1     113.007 127.734 141.072  0.00  0.00    +0.000 OA
BRANCH  22  31
ATOM     23  O   UNL     1     111.689 127.216 141.258  0.00  0.00    +0.000 OA
ATOM     24  O   UNL     1     110.007 127.974 142.424  0.00  0.00    +0.000 OA
ATOM     25  O   UNL     1     111.143 129.130 142.729  0.00  0.00    +0.000 OA
ATOM     26  O   UNL     1     112.644 129.010 142.053  0.00  0.00    +0.000 OA
ATOM     27  C   UNL     1     110.757 127.913 142.086  0.00  0.00    +0.000 C 
ATOM     28  C   UNL     1     111.325 128.492 142.239  0.00  0.00    +0.000 C 
ATOM     29  C   UNL     1     110.939 127.275 141.596  0.00  0.00    +0.000 C 
ATOM     30  C   UNL     1     112.076 128.432 141.900  0.00  0.00    +0.000 C 
ATOM     31  C   UNL     1     112.258 127.794 141.410  0.00  0.00    +0.000 C 
BRANCH  29  33
ATOM     32  O   UNL     1     110.535 125.905 141.602  0.00  0.00    +0.000 OA
ATOM     33  C   UNL     1     110.371 126.698 141.444  0.00  0.00    +0.000 C 
ENDBRANCH  29  33
ENDBRANCH  22  31
ENDBRANCH   1  22
TORSDOF 8
ENDMDL
MODEL 4
REMARK VINA RESULT:      -8.0      9.050     11.802
REMARK  Name = 13870531
REMARK  8 active torsions:
REMARK  status: ('A' for Active; 'I' for Inactive)
REMARK    1  A    between atoms: O_4  and  C_15
REMARK    2  A    between atoms: O_4  and  C_17
REMARK    3  A    between atoms: O_7  and  C_27
REMARK    4  A    between atoms: O_8  and  C_30
REMARK    5  A    between atoms: C_13  and  C_16
REMARK    6  A    between atoms: C_22  and  C_23
REMARK    7  A    between atoms: C_24  and  C_26
REMARK    8  A    between atoms: C_25  and  C_26
REMARK                            x       y       z     vdW  Elec       q    Type
REMARK                         _______ _______ _______ _____ _____    ______ ____
ROOT
ATOM      1  C   UNL     1     105.690 128.326 144.149  0.00  0.00    +0.000 A 
ATOM      2  C   UNL     1     105.204 127.989 144.726  0.00  0.00    +0.000 A 
ATOM      3  C   UNL     1     106.337 127.904 143.860  0.00  0.00    +0.000 A 
ATOM      4  C   UNL     1     105.365 127.233 145.012  0.00  0.00    +0.000 A 
ATOM      5  C   UNL     1     106.499 127.148 144.146  0.00  0.00    +0.000 A 
ATOM      6  C   UNL     1     106.013 126.812 144.721  0.00  0.00    +0.000 A 
ENDROOT
BRANCH   6   7
ATOM      7  C   UNL     1     106.175 126.055 145.007  0.00  0.00    +0.000 C 
ATOM      8  C   UNL     1     106.295 125.936 145.815  0.00  0.00    +0.000 C 
BRANCH   8  10
ATOM      9  O   UNL     1     106.511 124.544 145.578  0.00  0.00    +0.000 OA
ATOM     10  C   UNL     1     106.457 125.179 146.101  0.00  0.00    +0.000 C 
BRANCH  10  12
ATOM     11  O   UNL     1     107.926 125.478 146.792  0.00  0.00    +0.000 OA
ATOM     12  C   UNL     1     106.565 125.059 146.910  0.00  0.00    +0.000 A 
ATOM     13  C   UNL     1     105.938 124.789 147.373  0.00  0.00    +0.000 A 
ATOM     14  C   UNL     1     107.299 125.208 147.255  0.00  0.00    +0.000 A 
ATOM     15  C   UNL     1     106.046 124.668 148.183  0.00  0.00    +0.000 A 
ATOM     16  C   UNL     1     106.781 124.817 148.528  0.00  0.00    +0.000 A 
ATOM     17  C   UNL     1     107.407 125.087 148.064  0.00  0.00    +0.000 A 
BRANCH  13  18
ATOM     18  O   UNL     1     105.204 124.639 147.029  0.00  0.00    +0.000 OA
ATOM     19  C   UNL     1     104.568 124.401 147.498  0.00  0.00    +0.000 C 
ENDBRANCH  13  18
BRANCH  16  20
ATOM     20  O   UNL     1     106.888 124.696 149.337  0.00  0.00    +0.000 OA
ATOM     21  C   UNL     1     107.560 124.303 149.610  0.00  0.00    +0.000 C 
ENDBRANCH  16  20
ENDBRANCH  10  12
ENDBRANCH   8  10
ENDBRANCH   6   7
BRANCH   1  22
ATOM     22  O   UNL     1     105.528 129.082 143.863  0.00  0.00    +0.000 OA
BRANCH  22  31
ATOM     23  O   UNL     1     104.868 128.745 142.642  0.00  0.00    +0.000 OA
ATOM     24  O   UNL     1     103.054 129.546 141.731  0.00  0.00    +0.000 OA
ATOM     25  O   UNL     1     103.137 130.452 143.106  0.00  0.00    +0.000 OA
ATOM     26  O   UNL     1     104.374 130.221 144.173  0.00  0.00    +0.000 OA
ATOM     27  C   UNL     1     103.673 129.430 142.264  0.00  0.00    +0.000 C 
ATOM     28  C   UNL     1     103.714 129.883 142.951  0.00  0.00    +0.000 C 
ATOM     29  C   UNL     1     104.249 128.861 142.109  0.00  0.00    +0.000 C 
ATOM     30  C   UNL     1     104.333 129.767 143.485  0.00  0.00    +0.000 C 
ATOM     31  C   UNL     1     104.910 129.198 143.330  0.00  0.00    +0.000 C 
BRANCH  29  33
ATOM     32  O   UNL     1     104.895 128.227 141.003  0.00  0.00    +0.000 OA
ATOM     33  C   UNL     1     104.207 128.408 141.421  0.00  0.00    +0.000 C 
ENDBRANCH  29  33
ENDBRANCH  22  31
ENDBRANCH   1  22
TORSDOF 8
ENDMDL
MODEL 5
REMARK VINA RESULT:      -8.0      3.597      6.030
REMARK  Name = 13870531
REMARK  8 active torsions:
REMARK  status: ('A' for Active; 'I' for Inactive)
REMARK    1  A    between atoms: O_4  and  C_15
REMARK    2  A    between atoms: O_4  and  C_17
REMARK    3  A    between atoms: O_7  and  C_27
REMARK    4  A    between atoms: O_8  and  C_30
REMARK    5  A    between atoms: C_13  and  C_16
REMARK    6  A    between atoms: C_22  and  C_23
REMARK    7  A    between atoms: C_24  and  C_26
REMARK    8  A    between atoms: C_25  and  C_26
REMARK                            x       y       z     vdW  Elec       q    Type
REMARK                         _______ _______ _______ _____ _____    ______ ____
ROOT
ATOM      1  C   UNL     1     113.134 127.658 140.318  0.00  0.00    +0.000 A 
ATOM      2  C   UNL     1     113.716 127.086 140.194  0.00  0.00    +0.000 A 
ATOM      3  C   UNL     1     112.641 127.886 139.697  0.00  0.00    +0.000 A 
ATOM      4  C   UNL     1     113.805 126.742 139.450  0.00  0.00    +0.000 A 
ATOM      5  C   UNL     1     112.730 127.542 138.952  0.00  0.00    +0.000 A 
ATOM      6  C   UNL     1     113.311 126.970 138.829  0.00  0.00    +0.000 A 
ENDROOT
BRANCH   6   7
ATOM      7  C   UNL     1     113.400 126.626 138.084  0.00  0.00    +0.000 C 
ATOM      8  C   UNL     1     112.734 126.404 137.650  0.00  0.00    +0.000 C 
BRANCH   8  10
ATOM      9  O   UNL     1     113.578 125.917 136.605  0.00  0.00    +0.000 OA
ATOM     10  C   UNL     1     112.822 126.060 136.905  0.00  0.00    +0.000 C 
BRANCH  10  12
ATOM     11  O   UNL     1     112.147 127.166 135.884  0.00  0.00    +0.000 OA
ATOM     12  C   UNL     1     112.157 125.859 136.462  0.00  0.00    +0.000 A 
ATOM     13  C   UNL     1     111.828 125.105 136.530  0.00  0.00    +0.000 A 
ATOM     14  C   UNL     1     111.819 126.412 135.951  0.00  0.00    +0.000 A 
ATOM     15  C   UNL     1     111.162 124.904 136.086  0.00  0.00    +0.000 A 
ATOM     16  C   UNL     1     110.825 125.457 135.576  0.00  0.00    +0.000 A 
ATOM     17  C   UNL     1     111.153 126.211 135.508  0.00  0.00    +0.000 A 
BRANCH  13  18
ATOM     18  O   UNL     1     112.166 124.552 137.040  0.00  0.00    +0.000 OA
ATOM     19  C   UNL     1     111.903 123.770 137.034  0.00  0.00    +0.000 C 
ENDBRANCH  13  18
BRANCH  16  20
ATOM     20  O   UNL     1     110.158 125.256 135.132  0.00  0.00    +0.000 OA
ATOM     21  C   UNL     1     109.644 125.845 134.869  0.00  0.00    +0.000 C 
ENDBRANCH  16  20
ENDBRANCH  10  12
ENDBRANCH   8  10
ENDBRANCH   6   7
BRANCH   1  22
ATOM     22  O   UNL     1     113.045 128.002 141.063  0.00  0.00    +0.000 OA
BRANCH  22  31
ATOM     23  O   UNL     1     113.876 129.136 140.802  0.00  0.00    +0.000 OA
ATOM     24  O   UNL     1     113.735 131.200 141.495  0.00  0.00    +0.000 OA
ATOM     25  O   UNL     1     112.419 130.533 142.233  0.00  0.00    +0.000 OA
ATOM     26  O   UNL     1     112.074 128.934 142.017  0.00  0.00    +0.000 OA
ATOM     27  C   UNL     1     113.563 130.400 141.387  0.00  0.00    +0.000 C 
ATOM     28  C   UNL     1     112.905 130.067 141.756  0.00  0.00    +0.000 C 
ATOM     29  C   UNL     1     114.049 129.934 140.909  0.00  0.00    +0.000 C 
ATOM     30  C   UNL     1     112.732 129.267 141.648  0.00  0.00    +0.000 C 
ATOM     31  C   UNL     1     113.218 128.801 141.170  0.00  0.00    +0.000 C 
BRANCH  29  33
ATOM     32  O   UNL     1     115.446 129.910 140.613  0.00  0.00    +0.000 OA
ATOM     33  C   UNL     1     114.706 130.268 140.541  0.00  0.00    +0.000 C 
ENDBRANCH  29  33
ENDBRANCH  22  31
ENDBRANCH   1  22
TORSDOF 8
ENDMDL
MODEL 6
REMARK VINA RESULT:      -8.0      1.395      5.772
REMARK  Name = 13870531
REMARK  8 active torsions:
REMARK  status: ('A' for Active; 'I' for Inactive)
REMARK    1  A    between atoms: O_4  and  C_15
REMARK    2  A    between atoms: O_4  and  C_17
REMARK    3  A    between atoms: O_7  and  C_27
REMARK    4  A    between atoms: O_8  and  C_30
REMARK    5  A    between atoms: C_13  and  C_16
REMARK    6  A    between atoms: C_22  and  C_23
REMARK    7  A    between atoms: C_24  and  C_26
REMARK    8  A    between atoms: C_25  and  C_26
REMARK                            x       y       z     vdW  Elec       q    Type
REMARK                         _______ _______ _______ _____ _____    ______ ____
ROOT
ATOM      1  C   UNL     1     109.522 130.265 135.354  0.00  0.00    +0.000 A 
ATOM      2  C   UNL     1     109.970 129.793 134.845  0.00  0.00    +0.000 A 
ATOM      3  C   UNL     1     108.965 129.918 135.853  0.00  0.00    +0.000 A 
ATOM      4  C   UNL     1     109.860 128.976 134.836  0.00  0.00    +0.000 A 
ATOM      5  C   UNL     1     108.855 129.101 135.844  0.00  0.00    +0.000 A 
ATOM      6  C   UNL     1     109.302 128.630 135.336  0.00  0.00    +0.000 A 
ENDROOT
BRANCH   6   7
ATOM      7  C   UNL     1     109.192 127.812 135.328  0.00  0.00    +0.000 C 
ATOM      8  C   UNL     1     109.732 127.319 135.711  0.00  0.00    +0.000 C 
BRANCH   8  10
ATOM      9  O   UNL     1     108.918 126.183 135.412  0.00  0.00    +0.000 OA
ATOM     10  C   UNL     1     109.622 126.501 135.702  0.00  0.00    +0.000 C 
BRANCH  10  12
ATOM     11  O   UNL     1     110.632 125.741 134.642  0.00  0.00    +0.000 OA
ATOM     12  C   UNL     1     110.215 126.003 135.983  0.00  0.00    +0.000 A 
ATOM     13  C   UNL     1     110.303 125.884 136.795  0.00  0.00    +0.000 A 
ATOM     14  C   UNL     1     110.720 125.622 135.454  0.00  0.00    +0.000 A 
ATOM     15  C   UNL     1     110.897 125.384 137.077  0.00  0.00    +0.000 A 
ATOM     16  C   UNL     1     111.401 125.004 136.547  0.00  0.00    +0.000 A 
ATOM     17  C   UNL     1     111.313 125.123 135.735  0.00  0.00    +0.000 A 
BRANCH  13  18
ATOM     18  O   UNL     1     109.798 126.264 137.325  0.00  0.00    +0.000 OA
ATOM     19  C   UNL     1     109.893 126.153 138.137  0.00  0.00    +0.000 C 
ENDBRANCH  13  18
BRANCH  16  20
ATOM     20  O   UNL     1     111.995 124.505 136.829  0.00  0.00    +0.000 OA
ATOM     21  C   UNL     1     111.942 123.691 136.707  0.00  0.00    +0.000 C 
ENDBRANCH  16  20
ENDBRANCH  10  12
ENDBRANCH   8  10
ENDBRANCH   6   7
BRANCH   1  22
ATOM     22  O   UNL     1     109.633 131.083 135.362  0.00  0.00    +0.000 OA
BRANCH  22  31
ATOM     23  O   UNL     1     110.716 131.111 136.294  0.00  0.00    +0.000 OA
ATOM     24  O   UNL     1     111.180 132.512 137.901  0.00  0.00    +0.000 OA
ATOM     25  O   UNL     1     109.789 133.170 137.309  0.00  0.00    +0.000 OA
ATOM     26  O   UNL     1     109.015 132.455 136.039  0.00  0.00    +0.000 OA
ATOM     27  C   UNL     1     110.794 132.154 137.267  0.00  0.00    +0.000 C 
ATOM     28  C   UNL     1     110.098 132.483 136.970  0.00  0.00    +0.000 C 
ATOM     29  C   UNL     1     111.103 131.468 136.928  0.00  0.00    +0.000 C 
ATOM     30  C   UNL     1     109.711 132.126 136.335  0.00  0.00    +0.000 C 
ATOM     31  C   UNL     1     110.019 131.440 135.997  0.00  0.00    +0.000 C 
BRANCH  29  33
ATOM     32  O   UNL     1     112.441 131.011 136.724  0.00  0.00    +0.000 OA
ATOM     33  C   UNL     1     111.798 131.139 137.225  0.00  0.00    +0.000 C 
ENDBRANCH  29  33
ENDBRANCH  22  31
ENDBRANCH   1  22
TORSDOF 8
ENDMDL
MODEL 7
REMARK VINA RESULT:      -7.9      3.177      3.919
REMARK  Name = 13870531
REMARK  8 active torsions:
REMARK  status: ('A' for Active; 'I' for Inactive)
REMARK    1  A    between atoms: O_4  and  C_15
REMARK    2  A    between atoms: O_4  and  C_17
REMARK    3  A    between atoms: O_7  and  C_27
REMARK    4  A    between atoms: O_8  and  C_30
REMARK    5  A    between atoms: C_13  and  C_16
REMARK    6  A    between atoms: C_22  and  C_23
REMARK    7  A    between atoms: C_24  and  C_26
REMARK    8  A    between atoms: C_25  and  C_26
REMARK                            x       y       z     vdW  Elec       q    Type
REMARK                         _______ _______ _______ _____ _____    ______ ____
ROOT
ATOM      1  C   UNL     1     111.921 126.990 136.274  0.00  0.00    +0.000 A 
ATOM      2  C   UNL     1     112.397 127.587 135.959  0.00  0.00    +0.000 A 
ATOM      3  C   UNL     1     111.498 127.125 136.969  0.00  0.00    +0.000 A 
ATOM      4  C   UNL     1     112.449 128.317 136.340  0.00  0.00    +0.000 A 
ATOM      5  C   UNL     1     111.550 127.855 137.350  0.00  0.00    +0.000 A 
ATOM      6  C   UNL     1     112.025 128.451 137.036  0.00  0.00    +0.000 A 
ENDROOT
BRANCH   6   7
ATOM      7  C   UNL     1     112.077 129.181 137.416  0.00  0.00    +0.000 C 
ATOM      8  C   UNL     1     112.599 129.281 138.048  0.00  0.00    +0.000 C 
BRANCH   8  10
ATOM      9  O   UNL     1     112.154 130.630 138.202  0.00  0.00    +0.000 OA
ATOM     10  C   UNL     1     112.651 130.011 138.428  0.00  0.00    +0.000 C 
BRANCH  10  12
ATOM     11  O   UNL     1     114.172 130.547 138.078  0.00  0.00    +0.000 OA
ATOM     12  C   UNL     1     113.200 130.122 139.034  0.00  0.00    +0.000 A 
ATOM     13  C   UNL     1     112.988 129.964 139.816  0.00  0.00    +0.000 A 
ATOM     14  C   UNL     1     113.960 130.390 138.859  0.00  0.00    +0.000 A 
ATOM     15  C   UNL     1     113.537 130.075 140.423  0.00  0.00    +0.000 A 
ATOM     16  C   UNL     1     114.297 130.343 140.246  0.00  0.00    +0.000 A 
ATOM     17  C   UNL     1     114.508 130.501 139.465  0.00  0.00    +0.000 A 
BRANCH  13  18
ATOM     18  O   UNL     1     112.228 129.696 139.992  0.00  0.00    +0.000 OA
ATOM     19  C   UNL     1     112.005 129.573 140.776  0.00  0.00    +0.000 C 
ENDBRANCH  13  18
BRANCH  16  20
ATOM     20  O   UNL     1     114.845 130.454 140.853  0.00  0.00    +0.000 OA
ATOM     21  C   UNL     1     115.194 131.194 140.965  0.00  0.00    +0.000 C 
ENDBRANCH  16  20
ENDBRANCH  10  12
ENDBRANCH   8  10
ENDBRANCH   6   7
BRANCH   1  22
ATOM     22  O   UNL     1     111.869 126.260 135.894  0.00  0.00    +0.000 OA
BRANCH  22  31
ATOM     23  O   UNL     1     113.065 125.672 136.409  0.00  0.00    +0.000 OA
ATOM     24  O   UNL     1     113.472 123.647 137.112  0.00  0.00    +0.000 OA
ATOM     25  O   UNL     1     111.883 123.516 136.691  0.00  0.00    +0.000 OA
ATOM     26  O   UNL     1     111.081 124.823 136.081  0.00  0.00    +0.000 OA
ATOM     27  C   UNL     1     113.071 124.300 136.808  0.00  0.00    +0.000 C 
ATOM     28  C   UNL     1     112.277 124.235 136.597  0.00  0.00    +0.000 C 
ATOM     29  C   UNL     1     113.465 125.019 136.714  0.00  0.00    +0.000 C 
ATOM     30  C   UNL     1     111.876 124.889 136.292  0.00  0.00    +0.000 C 
ATOM     31  C   UNL     1     112.270 125.607 136.198  0.00  0.00    +0.000 C 
BRANCH  29  33
ATOM     32  O   UNL     1     114.816 125.332 136.368  0.00  0.00    +0.000 OA
ATOM     33  C   UNL     1     114.260 125.084 136.925  0.00  0.00    +0.000 C 
ENDBRANCH  29  33
ENDBRANCH  22  31
ENDBRANCH   1  22
TORSDOF 8
ENDMDL
MODEL 8
REMARK VINA RESULT:      -7.9      7.109      8.600
REMARK  Name = 13870531
REMARK  8 active torsions:
REMARK  status: ('A' for Active; 'I' for Inactive)
REMARK    1  A    between atoms: O_4  and  C_15
REMARK    2  A    between atoms: O_4  and  C_17
REMARK    3  A    between atoms: O_7  and  C_27
REMARK    4  A    between atoms: O_8  and  C_30
REMARK    5  A    between atoms: C_13  and  C_16
REMARK    6  A    between atoms: C_22  and  C_23
REMARK    7  A    between atoms: C_24  and  C_26
REMARK    8  A    between atoms: C_25  and  C_26
REMARK                            x       y       z     vdW  Elec       q    Type
REMARK                         _______ _______ _______ _____ _____    ______ ____
ROOT
ATOM      1  C   UNL     1     104.447 128.234 142.108  0.00  0.00    +0.000 A 
ATOM      2  C   UNL     1     104.155 128.345 141.344  0.00  0.00    +0.000 A 
ATOM      3  C   UNL     1     104.291 128.793 142.694  0.00  0.00    +0.000 A 
ATOM      4  C   UNL     1     103.707 129.015 141.167  0.00  0.00    +0.000 A 
ATOM      5  C   UNL     1     103.844 129.463 142.517  0.00  0.00    +0.000 A 
ATOM      6  C   UNL     1     103.552 129.574 141.754  0.00  0.00    +0.000 A 
ENDROOT
BRANCH   6   7
ATOM      7  C   UNL     1     103.105 130.244 141.577  0.00  0.00    +0.000 C 
ATOM      8  C   UNL     1     103.481 130.952 141.378  0.00  0.00    +0.000 C 
BRANCH   8  10
ATOM      9  O   UNL     1     102.210 131.581 141.210  0.00  0.00    +0.000 OA
ATOM     10  C   UNL     1     103.034 131.622 141.201  0.00  0.00    +0.000 C 
BRANCH  10  12
ATOM     11  O   UNL     1     103.579 131.892 139.668  0.00  0.00    +0.000 OA
ATOM     12  C   UNL     1     103.410 132.331 141.017  0.00  0.00    +0.000 A 
ATOM     13  C   UNL     1     103.514 132.907 141.599  0.00  0.00    +0.000 A 
ATOM     14  C   UNL     1     103.683 132.467 140.250  0.00  0.00    +0.000 A 
ATOM     15  C   UNL     1     103.891 133.618 141.414  0.00  0.00    +0.000 A 
ATOM     16  C   UNL     1     104.164 133.752 140.647  0.00  0.00    +0.000 A 
ATOM     17  C   UNL     1     104.059 133.177 140.065  0.00  0.00    +0.000 A 
BRANCH  13  18
ATOM     18  O   UNL     1     103.242 132.772 142.366  0.00  0.00    +0.000 OA
ATOM     19  C   UNL     1     103.320 133.359 142.940  0.00  0.00    +0.000 C 
ENDBRANCH  13  18
BRANCH  16  20
ATOM     20  O   UNL     1     104.541 134.463 140.462  0.00  0.00    +0.000 OA
ATOM     21  C   UNL     1     104.182 134.998 139.946  0.00  0.00    +0.000 C 
ENDBRANCH  16  20
ENDBRANCH  10  12
ENDBRANCH   8  10
ENDBRANCH   6   7
BRANCH   1  22
ATOM     22  O   UNL     1     104.894 127.563 142.285  0.00  0.00    +0.000 OA
BRANCH  22  31
ATOM     23  O   UNL     1     106.158 128.185 142.043  0.00  0.00    +0.000 OA
ATOM     24  O   UNL     1     108.109 127.858 142.964  0.00  0.00    +0.000 OA
ATOM     25  O   UNL     1     107.190 126.764 143.787  0.00  0.00    +0.000 OA
ATOM     26  O   UNL     1     105.582 126.617 143.448  0.00  0.00    +0.000 OA
ATOM     27  C   UNL     1     107.306 127.785 142.794  0.00  0.00    +0.000 C 
ATOM     28  C   UNL     1     106.846 127.238 143.206  0.00  0.00    +0.000 C 
ATOM     29  C   UNL     1     106.962 128.258 142.212  0.00  0.00    +0.000 C 
ATOM     30  C   UNL     1     106.042 127.164 143.036  0.00  0.00    +0.000 C 
ATOM     31  C   UNL     1     105.698 127.637 142.454  0.00  0.00    +0.000 C 
BRANCH  29  33
ATOM     32  O   UNL     1     107.389 128.836 140.977  0.00  0.00    +0.000 OA
ATOM     33  C   UNL     1     107.421 128.805 141.801  0.00  0.00    +0.000 C 
ENDBRANCH  29  33
ENDBRANCH  22  31
ENDBRANCH   1  22
TORSDOF 8
ENDMDL
MODEL 9
REMARK VINA RESULT:      -7.8      1.859      6.327
REMARK  Name = 13870531
REMARK  8 active torsions:
REMARK  status: ('A' for Active; 'I' for Inactive)
REMARK    1  A    between atoms: O_4  and  C_15
REMARK    2  A    between atoms: O_4  and  C_17
REMARK    3  A    between atoms: O_7  and  C_27
REMARK    4  A    between atoms: O_8  and  C_30
REMARK    5  A    between atoms: C_13  and  C_16
REMARK    6  A    between atoms: C_22  and  C_23
REMARK    7  A    between atoms: C_24  and  C_26
REMARK    8  A    between atoms: C_25  and  C_26
REMARK                            x       y       z     vdW  Elec       q    Type
REMARK                         _______ _______ _______ _____ _____    ______ ____
ROOT
ATOM      1  C   UNL     1     111.575 130.632 136.543  0.00  0.00    +0.000 A 
ATOM      2  C   UNL     1     111.351 130.079 135.971  0.00  0.00    +0.000 A 
ATOM      3  C   UNL     1     112.221 130.479 137.032  0.00  0.00    +0.000 A 
ATOM      4  C   UNL     1     111.774 129.375 135.891  0.00  0.00    +0.000 A 
ATOM      5  C   UNL     1     112.644 129.775 136.951  0.00  0.00    +0.000 A 
ATOM      6  C   UNL     1     112.420 129.223 136.381  0.00  0.00    +0.000 A 
ENDROOT
BRANCH   6   7
ATOM      7  C   UNL     1     112.842 128.519 136.300  0.00  0.00    +0.000 C 
ATOM      8  C   UNL     1     112.532 127.815 136.600  0.00  0.00    +0.000 C 
BRANCH   8  10
ATOM      9  O   UNL     1     113.704 127.118 136.174  0.00  0.00    +0.000 OA
ATOM     10  C   UNL     1     112.954 127.111 136.519  0.00  0.00    +0.000 C 
BRANCH  10  12
ATOM     11  O   UNL     1     111.952 126.248 135.532  0.00  0.00    +0.000 OA
ATOM     12  C   UNL     1     112.627 126.402 136.782  0.00  0.00    +0.000 A 
ATOM     13  C   UNL     1     112.801 126.123 137.539  0.00  0.00    +0.000 A 
ATOM     14  C   UNL     1     112.126 125.970 136.289  0.00  0.00    +0.000 A 
ATOM     15  C   UNL     1     112.473 125.413 137.803  0.00  0.00    +0.000 A 
ATOM     16  C   UNL     1     111.972 124.982 137.309  0.00  0.00    +0.000 A 
ATOM     17  C   UNL     1     111.798 125.261 136.552  0.00  0.00    +0.000 A 
BRANCH  13  18
ATOM     18  O   UNL     1     113.302 126.554 138.033  0.00  0.00    +0.000 OA
ATOM     19  C   UNL     1     113.477 126.274 138.789  0.00  0.00    +0.000 C 
ENDBRANCH  13  18
BRANCH  16  20
ATOM     20  O   UNL     1     111.644 124.271 137.573  0.00  0.00    +0.000 OA
ATOM     21  C   UNL     1     111.862 123.559 137.218  0.00  0.00    +0.000 C 
ENDBRANCH  16  20
ENDBRANCH  10  12
ENDBRANCH   8  10
ENDBRANCH   6   7
BRANCH   1  22
ATOM     22  O   UNL     1     111.153 131.336 136.624  0.00  0.00    +0.000 OA
BRANCH  22  31
ATOM     23  O   UNL     1     110.170 130.822 137.525  0.00  0.00    +0.000 OA
ATOM     24  O   UNL     1     109.138 131.764 139.201  0.00  0.00    +0.000 OA
ATOM     25  O   UNL     1     110.095 133.005 138.688  0.00  0.00    +0.000 OA
ATOM     26  O   UNL     1     111.103 132.791 137.399  0.00  0.00    +0.000 OA
ATOM     27  C   UNL     1     109.642 131.656 138.556  0.00  0.00    +0.000 C 
ATOM     28  C   UNL     1     110.120 132.277 138.300  0.00  0.00    +0.000 C 
ATOM     29  C   UNL     1     109.666 130.929 138.169  0.00  0.00    +0.000 C 
ATOM     30  C   UNL     1     110.625 132.170 137.655  0.00  0.00    +0.000 C 
ATOM     31  C   UNL     1     110.649 131.442 137.268  0.00  0.00    +0.000 C 
BRANCH  29  33
ATOM     32  O   UNL     1     108.693 129.920 137.891  0.00  0.00    +0.000 OA
ATOM     33  C   UNL     1     109.188 130.309 138.425  0.00  0.00    +0.000 C 
ENDBRANCH  29  33
ENDBRANCH  22  31
ENDBRANCH   1  22
TORSDOF 8
ENDMDL
MODEL 10
REMARK VINA RESULT:      -7.8      1.433      5.832
REMARK  Name = 13870531
REMARK  8 active torsions:
REMARK  status: ('A' for Active; 'I' for Inactive)
REMARK    1  A    between atoms: O_4  and  C_15
REMARK    2  A    between atoms: O_4  and  C_17
REMARK    3  A    between atoms: O_7  and  C_27
REMARK    4  A    between atoms: O_8  and  C_30
REMARK    5  A    between atoms: C_13  and  C_16
REMARK    6  A    between atoms: C_22  and  C_23
REMARK    7  A    between atoms: C_24  and  C_26
REMARK    8  A    between atoms: C_25  and  C_26
REMARK                            x       y       z     vdW  Elec       q    Type
REMARK                         _______ _______ _______ _____ _____    ______ ____
ROOT
ATOM      1  C   UNL     1     109.294 129.317 135.265  0.00  0.00    +0.000 A 
ATOM      2  C   UNL     1     109.998 129.251 134.839  0.00  0.00    +0.000 A 
ATOM      3  C   UNL     1     109.056 128.706 135.765  0.00  0.00    +0.000 A 
ATOM      4  C   UNL     1     110.464 128.574 134.914  0.00  0.00    +0.000 A 
ATOM      5  C   UNL     1     109.522 128.029 135.840  0.00  0.00    +0.000 A 
ATOM      6  C   UNL     1     110.225 127.964 135.415  0.00  0.00    +0.000 A 
ENDROOT
BRANCH   6   7
ATOM      7  C   UNL     1     110.691 127.287 135.490  0.00  0.00    +0.000 C 
ATOM      8  C   UNL     1     111.180 127.193 136.148  0.00  0.00    +0.000 C 
BRANCH   8  10
ATOM      9  O   UNL     1     111.622 125.933 135.641  0.00  0.00    +0.000 OA
ATOM     10  C   UNL     1     111.646 126.516 136.224  0.00  0.00    +0.000 C 
BRANCH  10  12
ATOM     11  O   UNL     1     113.156 127.182 136.229  0.00  0.00    +0.000 OA
ATOM     12  C   UNL     1     112.135 126.424 136.881  0.00  0.00    +0.000 A 
ATOM     13  C   UNL     1     111.870 125.998 137.536  0.00  0.00    +0.000 A 
ATOM     14  C   UNL     1     112.890 126.756 136.884  0.00  0.00    +0.000 A 
ATOM     15  C   UNL     1     112.359 125.905 138.194  0.00  0.00    +0.000 A 
ATOM     16  C   UNL     1     113.114 126.238 138.196  0.00  0.00    +0.000 A 
ATOM     17  C   UNL     1     113.379 126.663 137.541  0.00  0.00    +0.000 A 
BRANCH  13  18
ATOM     18  O   UNL     1     111.115 125.665 137.533  0.00  0.00    +0.000 OA
ATOM     19  C   UNL     1     110.844 125.250 138.193  0.00  0.00    +0.000 C 
ENDBRANCH  13  18
BRANCH  16  20
ATOM     20  O   UNL     1     113.603 126.145 138.854  0.00  0.00    +0.000 OA
ATOM     21  C   UNL     1     113.667 126.751 139.410  0.00  0.00    +0.000 C 
ENDBRANCH  16  20
ENDBRANCH  10  12
ENDBRANCH   8  10
ENDBRANCH   6   7
BRANCH   1  22
ATOM     22  O   UNL     1     108.828 129.994 135.190  0.00  0.00    +0.000 OA
BRANCH  22  31
ATOM     23  O   UNL     1     109.545 130.822 136.108  0.00  0.00    +0.000 OA
ATOM     24  O   UNL     1     108.835 132.274 137.574  0.00  0.00    +0.000 OA
ATOM     25  O   UNL     1     107.407 131.760 136.930  0.00  0.00    +0.000 OA
ATOM     26  O   UNL     1     107.403 130.620 135.737  0.00  0.00    +0.000 OA
ATOM     27  C   UNL     1     108.834 131.704 136.978  0.00  0.00    +0.000 C 
ATOM     28  C   UNL     1     108.119 131.447 136.656  0.00  0.00    +0.000 C 
ATOM     29  C   UNL     1     109.546 131.392 136.704  0.00  0.00    +0.000 C 
ATOM     30  C   UNL     1     108.118 130.877 136.059  0.00  0.00    +0.000 C 
ATOM     31  C   UNL     1     108.830 130.564 135.785  0.00  0.00    +0.000 C 
BRANCH  29  33
ATOM     32  O   UNL     1     110.852 131.948 136.535  0.00  0.00    +0.000 OA
ATOM     33  C   UNL     1     110.260 131.649 137.027  0.00  0.00    +0.000 C 
ENDBRANCH  29  33
ENDBRANCH  22  31
ENDBRANCH   1  22
TORSDOF 8
ENDMDL
