MODEL 1
REMARK VINA RESULT:      -9.5      0.000      0.000
REMARK  Name = 74978435
REMARK  10 active torsions:
REMARK  status: ('A' for Active; 'I' for Inactive)
REMARK    1  A    between atoms: O_2  and  C_22
REMARK    2  A    between atoms: O_2  and  C_26
REMARK    3  A    between atoms: O_6  and  C_25
REMARK    4  A    between atoms: O_6  and  C_29
REMARK    5  A    between atoms: O_13  and  C_35
REMARK    6  A    between atoms: O_14  and  C_40
REMARK    7  A    between atoms: O_15  and  C_41
REMARK    8  A    between atoms: O_16  and  C_43
REMARK    9  A    between atoms: C_17  and  C_26
REMARK   10  A    between atoms: C_30  and  C_34
REMARK                            x       y       z     vdW  Elec       q    Type
REMARK                         _______ _______ _______ _____ _____    ______ ____
ROOT
ATOM      1  O   UNL     1     113.240 127.508 136.012  0.00  0.00    +0.000 OA
ATOM      2  O   UNL     1     113.154 128.656 138.202  0.00  0.00    +0.000 OA
ATOM      3  C   UNL     1     112.932 127.490 137.407  0.00  0.00    +0.000 A 
ATOM      4  C   UNL     1     112.960 127.107 136.677  0.00  0.00    +0.000 A 
ATOM      5  C   UNL     1     113.183 128.273 137.472  0.00  0.00    +0.000 A 
ATOM      6  C   UNL     1     113.462 128.674 136.807  0.00  0.00    +0.000 A 
ATOM      7  C   UNL     1     113.491 128.291 136.077  0.00  0.00    +0.000 A 
ATOM      8  C   UNL     1     113.721 129.489 136.888  0.00  0.00    +0.000 A 
ATOM      9  C   UNL     1     113.780 128.697 135.377  0.00  0.00    +0.000 A 
ATOM     10  C   UNL     1     114.013 129.911 136.199  0.00  0.00    +0.000 A 
ATOM     11  C   UNL     1     114.042 129.512 135.438  0.00  0.00    +0.000 A 
ENDROOT
BRANCH   4  12
ATOM     12  C   UNL     1     112.710 126.324 136.612  0.00  0.00    +0.000 A 
ATOM     13  C   UNL     1     111.990 126.150 136.247  0.00  0.00    +0.000 A 
ATOM     14  C   UNL     1     113.180 125.714 136.910  0.00  0.00    +0.000 A 
ATOM     15  C   UNL     1     111.741 125.366 136.182  0.00  0.00    +0.000 A 
ATOM     16  C   UNL     1     112.929 124.931 136.845  0.00  0.00    +0.000 A 
ATOM     17  C   UNL     1     112.209 124.757 136.481  0.00  0.00    +0.000 A 
BRANCH  15  18
ATOM     18  O   UNL     1     111.021 125.192 135.818  0.00  0.00    +0.000 OA
ATOM     19  C   UNL     1     110.698 125.717 135.269  0.00  0.00    +0.000 C 
ENDBRANCH  15  18
BRANCH  17  20
ATOM     20  O   UNL     1     111.960 123.973 136.416  0.00  0.00    +0.000 OA
ATOM     21  C   UNL     1     112.339 123.382 136.847  0.00  0.00    +0.000 C 
ENDBRANCH  17  20
ENDBRANCH   4  12
BRANCH   8  22
ATOM     22  O   UNL     1     113.689 129.864 137.622  0.00  0.00    +0.000 OA
ATOM     23  C   UNL     1     113.643 130.687 137.663  0.00  0.00    +0.000 C 
ENDBRANCH   8  22
BRANCH  11  24
ATOM     24  O   UNL     1     114.321 129.910 134.771  0.00  0.00    +0.000 OA
ATOM     25  C   UNL     1     115.131 129.932 134.612  0.00  0.00    +0.000 C 
ENDBRANCH  11  24
BRANCH   3  26
ATOM     26  O   UNL     1     112.653 127.090 138.072  0.00  0.00    +0.000 OA
BRANCH  26  35
ATOM     27  O   UNL     1     111.440 127.846 138.104  0.00  0.00    +0.000 OA
ATOM     28  O   UNL     1     110.064 128.273 139.743  0.00  0.00    +0.000 OA
ATOM     29  O   UNL     1     111.194 127.351 140.516  0.00  0.00    +0.000 OA
ATOM     30  O   UNL     1     112.489 126.760 139.680  0.00  0.00    +0.000 OA
ATOM     31  C   UNL     1     110.793 128.142 138.522  0.00  0.00    +0.000 C 
ATOM     32  C   UNL     1     110.712 127.977 139.325  0.00  0.00    +0.000 C 
ATOM     33  C   UNL     1     111.276 127.516 139.712  0.00  0.00    +0.000 C 
ATOM     34  C   UNL     1     111.923 127.221 139.294  0.00  0.00    +0.000 C 
ATOM     35  C   UNL     1     112.006 127.386 138.490  0.00  0.00    +0.000 C 
BRANCH  31  36
ATOM     36  C   UNL     1     110.229 128.602 138.134  0.00  0.00    +0.000 C 
BRANCH  36  37
ATOM     37  O   UNL     1     109.945 128.371 137.395  0.00  0.00    +0.000 OA
BRANCH  37  43
ATOM     38  O   UNL     1     110.017 129.658 136.778  0.00  0.00    +0.000 OA
ATOM     39  O   UNL     1     108.559 128.047 136.559  0.00  0.00    +0.000 OA
ATOM     40  O   UNL     1     107.939 129.172 135.524  0.00  0.00    +0.000 OA
ATOM     41  O   UNL     1     108.703 130.620 135.325  0.00  0.00    +0.000 OA
ATOM     42  C   UNL     1     108.941 128.771 136.460  0.00  0.00    +0.000 C 
ATOM     43  C   UNL     1     109.634 128.933 136.878  0.00  0.00    +0.000 C 
ATOM     44  C   UNL     1     108.631 129.334 135.942  0.00  0.00    +0.000 C 
ATOM     45  C   UNL     1     109.013 130.058 135.842  0.00  0.00    +0.000 C 
ATOM     46  C   UNL     1     109.706 130.220 136.260  0.00  0.00    +0.000 C 
ATOM     47  C   UNL     1     110.089 130.943 136.161  0.00  0.00    +0.000 C 
ENDBRANCH  37  43
ENDBRANCH  36  37
ENDBRANCH  31  36
ENDBRANCH  26  35
ENDBRANCH   3  26
TORSDOF 10
ENDMDL
MODEL 2
REMARK VINA RESULT:      -9.1      1.193      4.632
REMARK  Name = 74978435
REMARK  10 active torsions:
REMARK  status: ('A' for Active; 'I' for Inactive)
REMARK    1  A    between atoms: O_2  and  C_22
REMARK    2  A    between atoms: O_2  and  C_26
REMARK    3  A    between atoms: O_6  and  C_25
REMARK    4  A    between atoms: O_6  and  C_29
REMARK    5  A    between atoms: O_13  and  C_35
REMARK    6  A    between atoms: O_14  and  C_40
REMARK    7  A    between atoms: O_15  and  C_41
REMARK    8  A    between atoms: O_16  and  C_43
REMARK    9  A    between atoms: C_17  and  C_26
REMARK   10  A    between atoms: C_30  and  C_34
REMARK                            x       y       z     vdW  Elec       q    Type
REMARK                         _______ _______ _______ _____ _____    ______ ____
ROOT
ATOM      1  O   UNL     1     113.649 127.466 136.712  0.00  0.00    +0.000 OA
ATOM      2  O   UNL     1     111.329 126.919 136.043  0.00  0.00    +0.000 OA
ATOM      3  C   UNL     1     112.334 127.890 136.341  0.00  0.00    +0.000 A 
ATOM      4  C   UNL     1     113.108 128.072 136.564  0.00  0.00    +0.000 A 
ATOM      5  C   UNL     1     112.102 127.101 136.266  0.00  0.00    +0.000 A 
ATOM      6  C   UNL     1     112.642 126.496 136.413  0.00  0.00    +0.000 A 
ATOM      7  C   UNL     1     113.415 126.678 136.636  0.00  0.00    +0.000 A 
ATOM      8  C   UNL     1     112.388 125.679 136.331  0.00  0.00    +0.000 A 
ATOM      9  C   UNL     1     113.988 126.056 136.792  0.00  0.00    +0.000 A 
ATOM     10  C   UNL     1     112.946 125.044 136.483  0.00  0.00    +0.000 A 
ATOM     11  C   UNL     1     113.752 125.234 136.715  0.00  0.00    +0.000 A 
ENDROOT
BRANCH   4  12
ATOM     12  C   UNL     1     113.341 128.859 136.640  0.00  0.00    +0.000 A 
ATOM     13  C   UNL     1     113.427 129.195 137.389  0.00  0.00    +0.000 A 
ATOM     14  C   UNL     1     113.488 129.312 135.965  0.00  0.00    +0.000 A 
ATOM     15  C   UNL     1     113.660 129.983 137.463  0.00  0.00    +0.000 A 
ATOM     16  C   UNL     1     113.722 130.100 136.041  0.00  0.00    +0.000 A 
ATOM     17  C   UNL     1     113.808 130.435 136.790  0.00  0.00    +0.000 A 
BRANCH  15  18
ATOM     18  O   UNL     1     113.746 130.318 138.212  0.00  0.00    +0.000 OA
ATOM     19  C   UNL     1     113.777 129.834 138.880  0.00  0.00    +0.000 C 
ENDBRANCH  15  18
BRANCH  17  20
ATOM     20  O   UNL     1     114.041 131.223 136.864  0.00  0.00    +0.000 OA
ATOM     21  C   UNL     1     114.140 131.689 136.192  0.00  0.00    +0.000 C 
ENDBRANCH  17  20
ENDBRANCH   4  12
BRANCH   8  22
ATOM     22  O   UNL     1     111.613 125.506 136.108  0.00  0.00    +0.000 OA
ATOM     23  C   UNL     1     111.340 124.728 136.136  0.00  0.00    +0.000 C 
ENDBRANCH   8  22
BRANCH  11  24
ATOM     24  O   UNL     1     114.295 124.630 136.863  0.00  0.00    +0.000 OA
ATOM     25  C   UNL     1     114.733 124.631 137.563  0.00  0.00    +0.000 C 
ENDBRANCH  11  24
BRANCH   3  26
ATOM     26  O   UNL     1     111.795 128.495 136.194  0.00  0.00    +0.000 OA
BRANCH  26  35
ATOM     27  O   UNL     1     111.102 128.379 137.439  0.00  0.00    +0.000 OA
ATOM     28  O   UNL     1     108.998 128.670 137.937  0.00  0.00    +0.000 OA
ATOM     29  O   UNL     1     108.983 128.990 136.318  0.00  0.00    +0.000 OA
ATOM     30  O   UNL     1     110.381 128.902 135.447  0.00  0.00    +0.000 OA
ATOM     31  C   UNL     1     110.403 128.423 137.875  0.00  0.00    +0.000 C 
ATOM     32  C   UNL     1     109.697 128.626 137.501  0.00  0.00    +0.000 C 
ATOM     33  C   UNL     1     109.689 128.786 136.691  0.00  0.00    +0.000 C 
ATOM     34  C   UNL     1     110.388 128.742 136.256  0.00  0.00    +0.000 C 
ATOM     35  C   UNL     1     111.095 128.539 136.630  0.00  0.00    +0.000 C 
BRANCH  31  36
ATOM     36  C   UNL     1     110.411 128.262 138.684  0.00  0.00    +0.000 C 
BRANCH  36  37
ATOM     37  O   UNL     1     110.834 127.615 138.972  0.00  0.00    +0.000 OA
BRANCH  37  43
ATOM     38  O   UNL     1     110.879 128.163 140.291  0.00  0.00    +0.000 OA
ATOM     39  O   UNL     1     111.127 126.112 139.586  0.00  0.00    +0.000 OA
ATOM     40  O   UNL     1     111.318 125.908 141.212  0.00  0.00    +0.000 OA
ATOM     41  O   UNL     1     111.217 127.207 142.223  0.00  0.00    +0.000 OA
ATOM     42  C   UNL     1     111.076 126.761 140.092  0.00  0.00    +0.000 C 
ATOM     43  C   UNL     1     110.930 127.512 139.785  0.00  0.00    +0.000 C 
ATOM     44  C   UNL     1     111.172 126.660 140.905  0.00  0.00    +0.000 C 
ATOM     45  C   UNL     1     111.121 127.308 141.411  0.00  0.00    +0.000 C 
ATOM     46  C   UNL     1     110.975 128.060 141.104  0.00  0.00    +0.000 C 
ATOM     47  C   UNL     1     110.924 128.710 141.609  0.00  0.00    +0.000 C 
ENDBRANCH  37  43
ENDBRANCH  36  37
ENDBRANCH  31  36
ENDBRANCH  26  35
ENDBRANCH   3  26
TORSDOF 10
ENDMDL
MODEL 3
REMARK VINA RESULT:      -9.0      1.084      3.056
REMARK  Name = 74978435
REMARK  10 active torsions:
REMARK  status: ('A' for Active; 'I' for Inactive)
REMARK    1  A    between atoms: O_2  and  C_22
REMARK    2  A    between atoms: O_2  and  C_26
REMARK    3  A    between atoms: O_6  and  C_25
REMARK    4  A    between atoms: O_6  and  C_29
REMARK    5  A    between atoms: O_13  and  C_35
REMARK    6  A    between atoms: O_14  and  C_40
REMARK    7  A    between atoms: O_15  and  C_41
REMARK    8  A    between atoms: O_16  and  C_43
REMARK    9  A    between atoms: C_17  and  C_26
REMARK   10  A    between atoms: C_30  and  C_34
REMARK                            x       y       z     vdW  Elec       q    Type
REMARK                         _______ _______ _______ _____ _____    ______ ____
ROOT
ATOM      1  O   UNL     1     112.939 128.752 138.330  0.00  0.00    +0.000 OA
ATOM      2  O   UNL     1     113.569 127.346 136.393  0.00  0.00    +0.000 OA
ATOM      3  C   UNL     1     113.026 127.467 137.709  0.00  0.00    +0.000 A 
ATOM      4  C   UNL     1     112.816 127.936 138.355  0.00  0.00    +0.000 A 
ATOM      5  C   UNL     1     113.359 127.815 137.039  0.00  0.00    +0.000 A 
ATOM      6  C   UNL     1     113.482 128.629 137.014  0.00  0.00    +0.000 A 
ATOM      7  C   UNL     1     113.272 129.098 137.659  0.00  0.00    +0.000 A 
ATOM      8  C   UNL     1     113.829 128.979 136.309  0.00  0.00    +0.000 A 
ATOM      9  C   UNL     1     113.395 129.949 137.645  0.00  0.00    +0.000 A 
ATOM     10  C   UNL     1     113.960 129.827 136.277  0.00  0.00    +0.000 A 
ATOM     11  C   UNL     1     113.741 130.316 136.950  0.00  0.00    +0.000 A 
ENDROOT
BRANCH   4  12
ATOM     12  C   UNL     1     112.483 127.590 139.026  0.00  0.00    +0.000 A 
ATOM     13  C   UNL     1     112.969 127.246 139.597  0.00  0.00    +0.000 A 
ATOM     14  C   UNL     1     111.664 127.588 139.125  0.00  0.00    +0.000 A 
ATOM     15  C   UNL     1     112.635 126.900 140.268  0.00  0.00    +0.000 A 
ATOM     16  C   UNL     1     111.331 127.242 139.796  0.00  0.00    +0.000 A 
ATOM     17  C   UNL     1     111.817 126.898 140.367  0.00  0.00    +0.000 A 
BRANCH  15  18
ATOM     18  O   UNL     1     113.120 126.556 140.839  0.00  0.00    +0.000 OA
ATOM     19  C   UNL     1     113.871 126.868 140.986  0.00  0.00    +0.000 C 
ENDBRANCH  15  18
BRANCH  17  20
ATOM     20  O   UNL     1     111.482 126.552 141.038  0.00  0.00    +0.000 OA
ATOM     21  C   UNL     1     110.664 126.546 141.135  0.00  0.00    +0.000 C 
ENDBRANCH  17  20
ENDBRANCH   4  12
BRANCH   8  22
ATOM     22  O   UNL     1     114.036 128.502 135.669  0.00  0.00    +0.000 OA
ATOM     23  C   UNL     1     114.326 128.845 134.977  0.00  0.00    +0.000 C 
ENDBRANCH   8  22
BRANCH  11  24
ATOM     24  O   UNL     1     113.862 131.132 136.928  0.00  0.00    +0.000 OA
ATOM     25  C   UNL     1     113.217 131.645 136.904  0.00  0.00    +0.000 C 
ENDBRANCH  11  24
BRANCH   3  26
ATOM     26  O   UNL     1     112.903 126.652 137.734  0.00  0.00    +0.000 OA
BRANCH  26  35
ATOM     27  O   UNL     1     111.842 126.719 136.780  0.00  0.00    +0.000 OA
ATOM     28  O   UNL     1     111.017 125.197 135.451  0.00  0.00    +0.000 OA
ATOM     29  O   UNL     1     112.197 124.335 136.218  0.00  0.00    +0.000 OA
ATOM     30  O   UNL     1     113.140 125.063 137.360  0.00  0.00    +0.000 OA
ATOM     31  C   UNL     1     111.370 126.355 136.209  0.00  0.00    +0.000 C 
ATOM     32  C   UNL     1     111.489 125.561 136.022  0.00  0.00    +0.000 C 
ATOM     33  C   UNL     1     112.078 125.130 136.405  0.00  0.00    +0.000 C 
ATOM     34  C   UNL     1     112.550 125.493 136.976  0.00  0.00    +0.000 C 
ATOM     35  C   UNL     1     112.432 126.289 137.164  0.00  0.00    +0.000 C 
BRANCH  31  36
ATOM     36  C   UNL     1     110.781 126.787 135.826  0.00  0.00    +0.000 C 
BRANCH  36  37
ATOM     37  O   UNL     1     110.220 127.201 136.267  0.00  0.00    +0.000 OA
BRANCH  37  43
ATOM     38  O   UNL     1     110.339 128.428 135.545  0.00  0.00    +0.000 OA
ATOM     39  O   UNL     1     108.610 127.485 136.486  0.00  0.00    +0.000 OA
ATOM     40  O   UNL     1     107.923 128.855 135.873  0.00  0.00    +0.000 OA
ATOM     41  O   UNL     1     108.848 129.939 135.043  0.00  0.00    +0.000 OA
ATOM     42  C   UNL     1     109.071 128.028 136.071  0.00  0.00    +0.000 C 
ATOM     43  C   UNL     1     109.876 127.885 135.961  0.00  0.00    +0.000 C 
ATOM     44  C   UNL     1     108.729 128.713 135.764  0.00  0.00    +0.000 C 
ATOM     45  C   UNL     1     109.190 129.255 135.349  0.00  0.00    +0.000 C 
ATOM     46  C   UNL     1     109.996 129.113 135.239  0.00  0.00    +0.000 C 
ATOM     47  C   UNL     1     110.458 129.655 134.824  0.00  0.00    +0.000 C 
ENDBRANCH  37  43
ENDBRANCH  36  37
ENDBRANCH  31  36
ENDBRANCH  26  35
ENDBRANCH   3  26
TORSDOF 10
ENDMDL
MODEL 4
REMARK VINA RESULT:      -9.0      1.506      4.654
REMARK  Name = 74978435
REMARK  10 active torsions:
REMARK  status: ('A' for Active; 'I' for Inactive)
REMARK    1  A    between atoms: O_2  and  C_22
REMARK    2  A    between atoms: O_2  and  C_26
REMARK    3  A    between atoms: O_6  and  C_25
REMARK    4  A    between atoms: O_6  and  C_29
REMARK    5  A    between atoms: O_13  and  C_35
REMARK    6  A    between atoms: O_14  and  C_40
REMARK    7  A    between atoms: O_15  and  C_41
REMARK    8  A    between atoms: O_16  and  C_43
REMARK    9  A    between atoms: C_17  and  C_26
REMARK   10  A    between atoms: C_30  and  C_34
REMARK                            x       y       z     vdW  Elec       q    Type
REMARK                         _______ _______ _______ _____ _____    ______ ____
ROOT
ATOM      1  O   UNL     1     113.836 127.607 136.462  0.00  0.00    +0.000 OA
ATOM      2  O   UNL     1     111.436 127.355 135.916  0.00  0.00    +0.000 OA
ATOM      3  C   UNL     1     112.629 128.140 135.912  0.00  0.00    +0.000 A 
ATOM      4  C   UNL     1     113.429 128.224 136.094  0.00  0.00    +0.000 A 
ATOM      5  C   UNL     1     112.236 127.439 136.098  0.00  0.00    +0.000 A 
ATOM      6  C   UNL     1     112.642 126.823 136.465  0.00  0.00    +0.000 A 
ATOM      7  C   UNL     1     113.442 126.907 136.647  0.00  0.00    +0.000 A 
ATOM      8  C   UNL     1     112.220 126.097 136.654  0.00  0.00    +0.000 A 
ATOM      9  C   UNL     1     113.876 126.271 137.031  0.00  0.00    +0.000 A 
ATOM     10  C   UNL     1     112.638 125.452 137.037  0.00  0.00    +0.000 A 
ATOM     11  C   UNL     1     113.472 125.540 137.227  0.00  0.00    +0.000 A 
ENDROOT
BRANCH   4  12
ATOM     12  C   UNL     1     113.824 128.925 135.909  0.00  0.00    +0.000 A 
ATOM     13  C   UNL     1     113.976 129.481 136.498  0.00  0.00    +0.000 A 
ATOM     14  C   UNL     1     114.066 129.068 135.132  0.00  0.00    +0.000 A 
ATOM     15  C   UNL     1     114.371 130.182 136.311  0.00  0.00    +0.000 A 
ATOM     16  C   UNL     1     114.461 129.768 134.947  0.00  0.00    +0.000 A 
ATOM     17  C   UNL     1     114.613 130.325 135.536  0.00  0.00    +0.000 A 
BRANCH  15  18
ATOM     18  O   UNL     1     114.523 130.738 136.901  0.00  0.00    +0.000 OA
ATOM     19  C   UNL     1     114.589 130.499 137.688  0.00  0.00    +0.000 C 
ENDBRANCH  15  18
BRANCH  17  20
ATOM     20  O   UNL     1     115.008 131.025 135.350  0.00  0.00    +0.000 OA
ATOM     21  C   UNL     1     115.367 131.113 134.613  0.00  0.00    +0.000 C 
ENDBRANCH  17  20
ENDBRANCH   4  12
BRANCH   8  22
ATOM     22  O   UNL     1     111.420 126.023 136.468  0.00  0.00    +0.000 OA
ATOM     23  C   UNL     1     110.976 125.412 136.801  0.00  0.00    +0.000 C 
ENDBRANCH   8  22
BRANCH  11  24
ATOM     24  O   UNL     1     113.881 124.925 137.595  0.00  0.00    +0.000 OA
ATOM     25  C   UNL     1     114.572 124.627 137.255  0.00  0.00    +0.000 C 
ENDBRANCH  11  24
BRANCH   3  26
ATOM     26  O   UNL     1     112.223 128.756 135.544  0.00  0.00    +0.000 OA
BRANCH  26  35
ATOM     27  O   UNL     1     111.502 129.114 136.725  0.00  0.00    +0.000 OA
ATOM     28  O   UNL     1     109.549 130.056 136.976  0.00  0.00    +0.000 OA
ATOM     29  O   UNL     1     109.655 129.991 135.331  0.00  0.00    +0.000 OA
ATOM     30  O   UNL     1     110.992 129.341 134.615  0.00  0.00    +0.000 OA
ATOM     31  C   UNL     1     110.833 129.439 137.083  0.00  0.00    +0.000 C 
ATOM     32  C   UNL     1     110.218 129.731 136.618  0.00  0.00    +0.000 C 
ATOM     33  C   UNL     1     110.270 129.699 135.795  0.00  0.00    +0.000 C 
ATOM     34  C   UNL     1     110.938 129.374 135.437  0.00  0.00    +0.000 C 
ATOM     35  C   UNL     1     111.555 129.081 135.902  0.00  0.00    +0.000 C 
BRANCH  31  36
ATOM     36  C   UNL     1     110.781 129.471 137.906  0.00  0.00    +0.000 C 
BRANCH  36  37
ATOM     37  O   UNL     1     111.339 129.900 138.337  0.00  0.00    +0.000 OA
BRANCH  37  43
ATOM     38  O   UNL     1     111.564 128.888 139.320  0.00  0.00    +0.000 OA
ATOM     39  O   UNL     1     111.587 131.064 139.479  0.00  0.00    +0.000 OA
ATOM     40  O   UNL     1     111.935 130.635 141.034  0.00  0.00    +0.000 OA
ATOM     41  O   UNL     1     112.036 129.041 141.445  0.00  0.00    +0.000 OA
ATOM     42  C   UNL     1     111.637 130.268 139.685  0.00  0.00    +0.000 C 
ATOM     43  C   UNL     1     111.513 129.686 139.114  0.00  0.00    +0.000 C 
ATOM     44  C   UNL     1     111.811 130.052 140.463  0.00  0.00    +0.000 C 
ATOM     45  C   UNL     1     111.862 129.256 140.669  0.00  0.00    +0.000 C 
ATOM     46  C   UNL     1     111.738 128.673 140.098  0.00  0.00    +0.000 C 
ATOM     47  C   UNL     1     111.788 127.876 140.303  0.00  0.00    +0.000 C 
ENDBRANCH  37  43
ENDBRANCH  36  37
ENDBRANCH  31  36
ENDBRANCH  26  35
ENDBRANCH   3  26
TORSDOF 10
ENDMDL
MODEL 5
REMARK VINA RESULT:      -9.0      1.433      4.511
REMARK  Name = 74978435
REMARK  10 active torsions:
REMARK  status: ('A' for Active; 'I' for Inactive)
REMARK    1  A    between atoms: O_2  and  C_22
REMARK    2  A    between atoms: O_2  and  C_26
REMARK    3  A    between atoms: O_6  and  C_25
REMARK    4  A    between atoms: O_6  and  C_29
REMARK    5  A    between atoms: O_13  and  C_35
REMARK    6  A    between atoms: O_14  and  C_40
REMARK    7  A    between atoms: O_15  and  C_41
REMARK    8  A    between atoms: O_16  and  C_43
REMARK    9  A    between atoms: C_17  and  C_26
REMARK   10  A    between atoms: C_30  and  C_34
REMARK                            x       y       z     vdW  Elec       q    Type
REMARK                         _______ _______ _______ _____ _____    ______ ____
ROOT
ATOM      1  O   UNL     1     113.038 126.377 139.053  0.00  0.00    +0.000 OA
ATOM      2  O   UNL     1     111.063 126.514 137.567  0.00  0.00    +0.000 OA
ATOM      3  C   UNL     1     111.732 126.889 138.773  0.00  0.00    +0.000 A 
ATOM      4  C   UNL     1     112.391 126.843 139.268  0.00  0.00    +0.000 A 
ATOM      5  C   UNL     1     111.721 126.469 138.062  0.00  0.00    +0.000 A 
ATOM      6  C   UNL     1     112.367 126.003 137.847  0.00  0.00    +0.000 A 
ATOM      7  C   UNL     1     113.025 125.958 138.342  0.00  0.00    +0.000 A 
ATOM      8  C   UNL     1     112.342 125.571 137.105  0.00  0.00    +0.000 A 
ATOM      9  C   UNL     1     113.705 125.476 138.129  0.00  0.00    +0.000 A 
ATOM     10  C   UNL     1     113.012 125.084 136.876  0.00  0.00    +0.000 A 
ATOM     11  C   UNL     1     113.699 125.037 137.392  0.00  0.00    +0.000 A 
ENDROOT
BRANCH   4  12
ATOM     12  C   UNL     1     112.404 127.263 139.978  0.00  0.00    +0.000 A 
ATOM     13  C   UNL     1     112.874 127.936 140.051  0.00  0.00    +0.000 A 
ATOM     14  C   UNL     1     111.945 127.008 140.615  0.00  0.00    +0.000 A 
ATOM     15  C   UNL     1     112.886 128.355 140.762  0.00  0.00    +0.000 A 
ATOM     16  C   UNL     1     111.957 127.427 141.325  0.00  0.00    +0.000 A 
ATOM     17  C   UNL     1     112.428 128.101 141.399  0.00  0.00    +0.000 A 
BRANCH  15  18
ATOM     18  O   UNL     1     113.357 129.028 140.836  0.00  0.00    +0.000 OA
ATOM     19  C   UNL     1     114.043 129.104 140.383  0.00  0.00    +0.000 C 
ENDBRANCH  15  18
BRANCH  17  20
ATOM     20  O   UNL     1     112.440 128.520 142.110  0.00  0.00    +0.000 OA
ATOM     21  C   UNL     1     111.847 128.399 142.670  0.00  0.00    +0.000 C 
ENDBRANCH  17  20
ENDBRANCH   4  12
BRANCH   8  22
ATOM     22  O   UNL     1     111.680 125.622 136.616  0.00  0.00    +0.000 OA
ATOM     23  C   UNL     1     111.473 124.986 136.134  0.00  0.00    +0.000 C 
ENDBRANCH   8  22
BRANCH  11  24
ATOM     24  O   UNL     1     114.346 124.572 137.179  0.00  0.00    +0.000 OA
ATOM     25  C   UNL     1     115.016 124.924 136.849  0.00  0.00    +0.000 C 
ENDBRANCH  11  24
BRANCH   3  26
ATOM     26  O   UNL     1     111.087 127.354 138.988  0.00  0.00    +0.000 OA
BRANCH  26  35
ATOM     27  O   UNL     1     111.383 128.354 138.010  0.00  0.00    +0.000 OA
ATOM     28  O   UNL     1     110.095 129.810 137.019  0.00  0.00    +0.000 OA
ATOM     29  O   UNL     1     109.005 129.039 137.989  0.00  0.00    +0.000 OA
ATOM     30  O   UNL     1     109.501 127.811 138.974  0.00  0.00    +0.000 OA
ATOM     31  C   UNL     1     111.135 128.968 137.518  0.00  0.00    +0.000 C 
ATOM     32  C   UNL     1     110.343 129.196 137.512  0.00  0.00    +0.000 C 
ATOM     33  C   UNL     1     109.797 128.811 137.996  0.00  0.00    +0.000 C 
ATOM     34  C   UNL     1     110.045 128.197 138.488  0.00  0.00    +0.000 C 
ATOM     35  C   UNL     1     110.839 127.968 138.496  0.00  0.00    +0.000 C 
BRANCH  31  36
ATOM     36  C   UNL     1     111.680 129.353 137.034  0.00  0.00    +0.000 C 
BRANCH  36  37
ATOM     37  O   UNL     1     112.366 129.676 137.360  0.00  0.00    +0.000 OA
BRANCH  37  43
ATOM     38  O   UNL     1     113.314 129.150 136.429  0.00  0.00    +0.000 OA
ATOM     39  O   UNL     1     113.161 131.121 137.353  0.00  0.00    +0.000 OA
ATOM     40  O   UNL     1     114.507 131.319 136.419  0.00  0.00    +0.000 OA
ATOM     41  O   UNL     1     115.056 130.070 135.491  0.00  0.00    +0.000 OA
ATOM     42  C   UNL     1     113.436 130.498 136.890  0.00  0.00    +0.000 C 
ATOM     43  C   UNL     1     113.039 129.775 136.893  0.00  0.00    +0.000 C 
ATOM     44  C   UNL     1     114.109 130.596 136.422  0.00  0.00    +0.000 C 
ATOM     45  C   UNL     1     114.384 129.972 135.958  0.00  0.00    +0.000 C 
ATOM     46  C   UNL     1     113.986 129.249 135.962  0.00  0.00    +0.000 C 
ATOM     47  C   UNL     1     114.261 128.625 135.498  0.00  0.00    +0.000 C 
ENDBRANCH  37  43
ENDBRANCH  36  37
ENDBRANCH  31  36
ENDBRANCH  26  35
ENDBRANCH   3  26
TORSDOF 10
ENDMDL
MODEL 6
REMARK VINA RESULT:      -9.0      1.817      4.344
REMARK  Name = 74978435
REMARK  10 active torsions:
REMARK  status: ('A' for Active; 'I' for Inactive)
REMARK    1  A    between atoms: O_2  and  C_22
REMARK    2  A    between atoms: O_2  and  C_26
REMARK    3  A    between atoms: O_6  and  C_25
REMARK    4  A    between atoms: O_6  and  C_29
REMARK    5  A    between atoms: O_13  and  C_35
REMARK    6  A    between atoms: O_14  and  C_40
REMARK    7  A    between atoms: O_15  and  C_41
REMARK    8  A    between atoms: O_16  and  C_43
REMARK    9  A    between atoms: C_17  and  C_26
REMARK   10  A    between atoms: C_30  and  C_34
REMARK                            x       y       z     vdW  Elec       q    Type
REMARK                         _______ _______ _______ _____ _____    ______ ____
ROOT
ATOM      1  O   UNL     1     111.599 130.429 136.296  0.00  0.00    +0.000 OA
ATOM      2  O   UNL     1     112.141 131.228 138.575  0.00  0.00    +0.000 OA
ATOM      3  C   UNL     1     111.185 131.009 137.535  0.00  0.00    +0.000 A 
ATOM      4  C   UNL     1     111.004 130.742 136.776  0.00  0.00    +0.000 A 
ATOM      5  C   UNL     1     111.960 130.962 137.815  0.00  0.00    +0.000 A 
ATOM      6  C   UNL     1     112.554 130.649 137.336  0.00  0.00    +0.000 A 
ATOM      7  C   UNL     1     112.373 130.382 136.577  0.00  0.00    +0.000 A 
ATOM      8  C   UNL     1     113.357 130.605 137.639  0.00  0.00    +0.000 A 
ATOM      9  C   UNL     1     112.983 130.054 136.068  0.00  0.00    +0.000 A 
ATOM     10  C   UNL     1     113.979 130.280 137.145  0.00  0.00    +0.000 A 
ATOM     11  C   UNL     1     113.791 130.002 136.353  0.00  0.00    +0.000 A 
ENDROOT
BRANCH   4  12
ATOM     12  C   UNL     1     110.230 130.789 136.495  0.00  0.00    +0.000 A 
ATOM     13  C   UNL     1     109.775 130.105 136.423  0.00  0.00    +0.000 A 
ATOM     14  C   UNL     1     109.911 131.521 136.286  0.00  0.00    +0.000 A 
ATOM     15  C   UNL     1     109.001 130.153 136.142  0.00  0.00    +0.000 A 
ATOM     16  C   UNL     1     109.137 131.568 136.005  0.00  0.00    +0.000 A 
ATOM     17  C   UNL     1     108.682 130.883 135.933  0.00  0.00    +0.000 A 
BRANCH  15  18
ATOM     18  O   UNL     1     108.546 129.468 136.070  0.00  0.00    +0.000 OA
ATOM     19  C   UNL     1     108.914 128.737 135.959  0.00  0.00    +0.000 C 
ENDBRANCH  15  18
BRANCH  17  20
ATOM     20  O   UNL     1     107.907 130.931 135.652  0.00  0.00    +0.000 OA
ATOM     21  C   UNL     1     107.538 131.665 135.581  0.00  0.00    +0.000 C 
ENDBRANCH  17  20
ENDBRANCH   4  12
BRANCH   8  22
ATOM     22  O   UNL     1     113.528 130.874 138.400  0.00  0.00    +0.000 OA
ATOM     23  C   UNL     1     114.177 130.570 138.808  0.00  0.00    +0.000 C 
ENDBRANCH   8  22
BRANCH  11  24
ATOM     24  O   UNL     1     114.383 129.688 135.872  0.00  0.00    +0.000 OA
ATOM     25  C   UNL     1     114.723 130.152 135.280  0.00  0.00    +0.000 C 
ENDBRANCH  11  24
BRANCH   3  26
ATOM     26  O   UNL     1     110.592 131.322 138.014  0.00  0.00    +0.000 OA
BRANCH  26  35
ATOM     27  O   UNL     1     110.554 130.180 138.872  0.00  0.00    +0.000 OA
ATOM     28  O   UNL     1     109.977 129.983 140.967  0.00  0.00    +0.000 OA
ATOM     29  O   UNL     1     109.744 131.599 140.729  0.00  0.00    +0.000 OA
ATOM     30  O   UNL     1     110.051 132.269 139.253  0.00  0.00    +0.000 OA
ATOM     31  C   UNL     1     110.401 129.845 139.610  0.00  0.00    +0.000 C 
ATOM     32  C   UNL     1     110.131 130.318 140.229  0.00  0.00    +0.000 C 
ATOM     33  C   UNL     1     110.014 131.126 140.111  0.00  0.00    +0.000 C 
ATOM     34  C   UNL     1     110.168 131.461 139.372  0.00  0.00    +0.000 C 
ATOM     35  C   UNL     1     110.438 130.987 138.753  0.00  0.00    +0.000 C 
BRANCH  31  36
ATOM     36  C   UNL     1     110.517 129.037 139.729  0.00  0.00    +0.000 C 
BRANCH  36  37
ATOM     37  O   UNL     1     110.211 128.493 139.189  0.00  0.00    +0.000 OA
BRANCH  37  43
ATOM     38  O   UNL     1     111.366 127.659 139.083  0.00  0.00    +0.000 OA
ATOM     39  O   UNL     1     109.242 127.158 139.141  0.00  0.00    +0.000 OA
ATOM     40  O   UNL     1     109.914 125.656 139.011  0.00  0.00    +0.000 OA
ATOM     41  O   UNL     1     111.552 125.490 138.929  0.00  0.00    +0.000 OA
ATOM     42  C   UNL     1     110.061 127.074 139.100  0.00  0.00    +0.000 C 
ATOM     43  C   UNL     1     110.546 127.742 139.124  0.00  0.00    +0.000 C 
ATOM     44  C   UNL     1     110.398 126.324 139.035  0.00  0.00    +0.000 C 
ATOM     45  C   UNL     1     111.217 126.240 138.994  0.00  0.00    +0.000 C 
ATOM     46  C   UNL     1     111.701 126.908 139.018  0.00  0.00    +0.000 C 
ATOM     47  C   UNL     1     112.521 126.825 138.977  0.00  0.00    +0.000 C 
ENDBRANCH  37  43
ENDBRANCH  36  37
ENDBRANCH  31  36
ENDBRANCH  26  35
ENDBRANCH   3  26
TORSDOF 10
ENDMDL
MODEL 7
REMARK VINA RESULT:      -8.9      1.224      4.509
REMARK  Name = 74978435
REMARK  10 active torsions:
REMARK  status: ('A' for Active; 'I' for Inactive)
REMARK    1  A    between atoms: O_2  and  C_22
REMARK    2  A    between atoms: O_2  and  C_26
REMARK    3  A    between atoms: O_6  and  C_25
REMARK    4  A    between atoms: O_6  and  C_29
REMARK    5  A    between atoms: O_13  and  C_35
REMARK    6  A    between atoms: O_14  and  C_40
REMARK    7  A    between atoms: O_15  and  C_41
REMARK    8  A    between atoms: O_16  and  C_43
REMARK    9  A    between atoms: C_17  and  C_26
REMARK   10  A    between atoms: C_30  and  C_34
REMARK                            x       y       z     vdW  Elec       q    Type
REMARK                         _______ _______ _______ _____ _____    ______ ____
ROOT
ATOM      1  O   UNL     1     111.497 126.605 136.043  0.00  0.00    +0.000 OA
ATOM      2  O   UNL     1     113.776 127.287 136.729  0.00  0.00    +0.000 OA
ATOM      3  C   UNL     1     112.462 127.632 136.285  0.00  0.00    +0.000 A 
ATOM      4  C   UNL     1     111.703 127.405 136.056  0.00  0.00    +0.000 A 
ATOM      5  C   UNL     1     113.016 127.060 136.500  0.00  0.00    +0.000 A 
ATOM      6  C   UNL     1     112.811 126.261 136.487  0.00  0.00    +0.000 A 
ATOM      7  C   UNL     1     112.052 126.034 136.259  0.00  0.00    +0.000 A 
ATOM      8  C   UNL     1     113.398 125.675 136.713  0.00  0.00    +0.000 A 
ATOM      9  C   UNL     1     111.826 125.205 136.241  0.00  0.00    +0.000 A 
ATOM     10  C   UNL     1     113.190 124.841 136.702  0.00  0.00    +0.000 A 
ATOM     11  C   UNL     1     112.398 124.605 136.464  0.00  0.00    +0.000 A 
ENDROOT
BRANCH   4  12
ATOM     12  C   UNL     1     111.148 127.976 135.841  0.00  0.00    +0.000 A 
ATOM     13  C   UNL     1     110.507 128.137 136.335  0.00  0.00    +0.000 A 
ATOM     14  C   UNL     1     111.234 128.387 135.130  0.00  0.00    +0.000 A 
ATOM     15  C   UNL     1     109.953 128.709 136.119  0.00  0.00    +0.000 A 
ATOM     16  C   UNL     1     110.680 128.959 134.915  0.00  0.00    +0.000 A 
ATOM     17  C   UNL     1     110.039 129.119 135.409  0.00  0.00    +0.000 A 
BRANCH  15  18
ATOM     18  O   UNL     1     109.312 128.870 136.613  0.00  0.00    +0.000 OA
ATOM     19  C   UNL     1     109.252 128.495 137.347  0.00  0.00    +0.000 C 
ENDBRANCH  15  18
BRANCH  17  20
ATOM     20  O   UNL     1     109.485 129.691 135.193  0.00  0.00    +0.000 OA
ATOM     21  C   UNL     1     109.679 130.262 134.630  0.00  0.00    +0.000 C 
ENDBRANCH  17  20
ENDBRANCH   4  12
BRANCH   8  22
ATOM     22  O   UNL     1     114.155 125.911 136.940  0.00  0.00    +0.000 OA
ATOM     23  C   UNL     1     114.734 125.345 137.094  0.00  0.00    +0.000 C 
ENDBRANCH   8  22
BRANCH  11  24
ATOM     24  O   UNL     1     112.190 123.806 136.450  0.00  0.00    +0.000 OA
ATOM     25  C   UNL     1     111.870 123.452 137.122  0.00  0.00    +0.000 C 
ENDBRANCH  11  24
BRANCH   3  26
ATOM     26  O   UNL     1     112.667 128.431 136.298  0.00  0.00    +0.000 OA
BRANCH  26  35
ATOM     27  O   UNL     1     112.515 128.567 137.712  0.00  0.00    +0.000 OA
ATOM     28  O   UNL     1     113.536 129.864 139.141  0.00  0.00    +0.000 OA
ATOM     29  O   UNL     1     114.274 130.308 137.733  0.00  0.00    +0.000 OA
ATOM     30  O   UNL     1     113.840 129.591 136.312  0.00  0.00    +0.000 OA
ATOM     31  C   UNL     1     112.733 128.926 138.423  0.00  0.00    +0.000 C 
ATOM     32  C   UNL     1     113.318 129.506 138.430  0.00  0.00    +0.000 C 
ATOM     33  C   UNL     1     113.688 129.728 137.727  0.00  0.00    +0.000 C 
ATOM     34  C   UNL     1     113.471 129.370 137.016  0.00  0.00    +0.000 C 
ATOM     35  C   UNL     1     112.884 128.789 137.009  0.00  0.00    +0.000 C 
BRANCH  31  36
ATOM     36  C   UNL     1     112.363 128.703 139.127  0.00  0.00    +0.000 C 
BRANCH  36  37
ATOM     37  O   UNL     1     112.271 127.904 139.308  0.00  0.00    +0.000 OA
BRANCH  37  43
ATOM     38  O   UNL     1     111.218 128.191 140.231  0.00  0.00    +0.000 OA
ATOM     39  O   UNL     1     112.483 126.426 140.010  0.00  0.00    +0.000 OA
ATOM     40  O   UNL     1     111.536 125.973 141.283  0.00  0.00    +0.000 OA
ATOM     41  O   UNL     1     110.377 126.999 141.854  0.00  0.00    +0.000 OA
ATOM     42  C   UNL     1     111.904 126.938 140.296  0.00  0.00    +0.000 C 
ATOM     43  C   UNL     1     111.798 127.677 139.945  0.00  0.00    +0.000 C 
ATOM     44  C   UNL     1     111.430 126.712 140.932  0.00  0.00    +0.000 C 
ATOM     45  C   UNL     1     110.851 127.225 141.218  0.00  0.00    +0.000 C 
ATOM     46  C   UNL     1     110.745 127.964 140.867  0.00  0.00    +0.000 C 
ATOM     47  C   UNL     1     110.165 128.477 141.153  0.00  0.00    +0.000 C 
ENDBRANCH  37  43
ENDBRANCH  36  37
ENDBRANCH  31  36
ENDBRANCH  26  35
ENDBRANCH   3  26
TORSDOF 10
ENDMDL
MODEL 8
REMARK VINA RESULT:      -8.9      1.823      4.817
REMARK  Name = 74978435
REMARK  10 active torsions:
REMARK  status: ('A' for Active; 'I' for Inactive)
REMARK    1  A    between atoms: O_2  and  C_22
REMARK    2  A    between atoms: O_2  and  C_26
REMARK    3  A    between atoms: O_6  and  C_25
REMARK    4  A    between atoms: O_6  and  C_29
REMARK    5  A    between atoms: O_13  and  C_35
REMARK    6  A    between atoms: O_14  and  C_40
REMARK    7  A    between atoms: O_15  and  C_41
REMARK    8  A    between atoms: O_16  and  C_43
REMARK    9  A    between atoms: C_17  and  C_26
REMARK   10  A    between atoms: C_30  and  C_34
REMARK                            x       y       z     vdW  Elec       q    Type
REMARK                         _______ _______ _______ _____ _____    ______ ____
ROOT
ATOM      1  O   UNL     1     111.706 130.509 137.092  0.00  0.00    +0.000 OA
ATOM      2  O   UNL     1     111.989 130.794 139.534  0.00  0.00    +0.000 OA
ATOM      3  C   UNL     1     112.558 130.638 138.233  0.00  0.00    +0.000 A 
ATOM      4  C   UNL     1     112.463 130.543 137.419  0.00  0.00    +0.000 A 
ATOM      5  C   UNL     1     111.895 130.699 138.720  0.00  0.00    +0.000 A 
ATOM      6  C   UNL     1     111.138 130.665 138.394  0.00  0.00    +0.000 A 
ATOM      7  C   UNL     1     111.044 130.570 137.580  0.00  0.00    +0.000 A 
ATOM      8  C   UNL     1     110.456 130.730 138.913  0.00  0.00    +0.000 A 
ATOM      9  C   UNL     1     110.260 130.534 137.229  0.00  0.00    +0.000 A 
ATOM     10  C   UNL     1     109.665 130.696 138.579  0.00  0.00    +0.000 A 
ATOM     11  C   UNL     1     109.567 130.597 137.731  0.00  0.00    +0.000 A 
ENDROOT
BRANCH   4  12
ATOM     12  C   UNL     1     113.125 130.482 136.930  0.00  0.00    +0.000 A 
ATOM     13  C   UNL     1     113.330 129.754 136.601  0.00  0.00    +0.000 A 
ATOM     14  C   UNL     1     113.583 131.151 136.771  0.00  0.00    +0.000 A 
ATOM     15  C   UNL     1     113.993 129.694 136.113  0.00  0.00    +0.000 A 
ATOM     16  C   UNL     1     114.245 131.090 136.283  0.00  0.00    +0.000 A 
ATOM     17  C   UNL     1     114.450 130.361 135.954  0.00  0.00    +0.000 A 
BRANCH  15  18
ATOM     18  O   UNL     1     114.197 128.966 135.783  0.00  0.00    +0.000 OA
ATOM     19  C   UNL     1     113.608 128.425 135.578  0.00  0.00    +0.000 C 
ENDBRANCH  15  18
BRANCH  17  20
ATOM     20  O   UNL     1     115.112 130.302 135.465  0.00  0.00    +0.000 OA
ATOM     21  C   UNL     1     115.533 130.979 135.256  0.00  0.00    +0.000 C 
ENDBRANCH  17  20
ENDBRANCH   4  12
BRANCH   8  22
ATOM     22  O   UNL     1     110.560 130.824 139.726  0.00  0.00    +0.000 OA
ATOM     23  C   UNL     1     109.903 130.887 140.221  0.00  0.00    +0.000 C 
ENDBRANCH   8  22
BRANCH  11  24
ATOM     24  O   UNL     1     108.811 130.563 137.402  0.00  0.00    +0.000 OA
ATOM     25  C   UNL     1     108.560 131.152 136.882  0.00  0.00    +0.000 C 
ENDBRANCH  11  24
BRANCH   3  26
ATOM     26  O   UNL     1     113.314 130.672 138.558  0.00  0.00    +0.000 OA
BRANCH  26  35
ATOM     27  O   UNL     1     113.241 129.358 139.117  0.00  0.00    +0.000 OA
ATOM     28  O   UNL     1     114.214 128.493 140.868  0.00  0.00    +0.000 OA
ATOM     29  O   UNL     1     114.811 130.031 140.907  0.00  0.00    +0.000 OA
ATOM     30  O   UNL     1     114.361 131.120 139.752  0.00  0.00    +0.000 OA
ATOM     31  C   UNL     1     113.466 128.813 139.694  0.00  0.00    +0.000 C 
ATOM     32  C   UNL     1     113.989 129.038 140.291  0.00  0.00    +0.000 C 
ATOM     33  C   UNL     1     114.288 129.807 140.311  0.00  0.00    +0.000 C 
ATOM     34  C   UNL     1     114.063 130.351 139.733  0.00  0.00    +0.000 C 
ATOM     35  C   UNL     1     113.539 130.127 139.136  0.00  0.00    +0.000 C 
BRANCH  31  36
ATOM     36  C   UNL     1     113.167 128.045 139.674  0.00  0.00    +0.000 C 
BRANCH  36  37
ATOM     37  O   UNL     1     113.266 127.582 138.998  0.00  0.00    +0.000 OA
BRANCH  37  43
ATOM     38  O   UNL     1     111.963 127.003 139.092  0.00  0.00    +0.000 OA
ATOM     39  O   UNL     1     113.806 126.238 138.207  0.00  0.00    +0.000 OA
ATOM     40  O   UNL     1     112.773 124.988 137.905  0.00  0.00    +0.000 OA
ATOM     41  O   UNL     1     111.201 125.081 138.394  0.00  0.00    +0.000 OA
ATOM     42  C   UNL     1     113.020 126.284 138.451  0.00  0.00    +0.000 C 
ATOM     43  C   UNL     1     112.750 126.956 138.847  0.00  0.00    +0.000 C 
ATOM     44  C   UNL     1     112.503 125.659 138.301  0.00  0.00    +0.000 C 
ATOM     45  C   UNL     1     111.717 125.705 138.545  0.00  0.00    +0.000 C 
ATOM     46  C   UNL     1     111.447 126.377 138.941  0.00  0.00    +0.000 C 
ATOM     47  C   UNL     1     110.661 126.424 139.185  0.00  0.00    +0.000 C 
ENDBRANCH  37  43
ENDBRANCH  36  37
ENDBRANCH  31  36
ENDBRANCH  26  35
ENDBRANCH   3  26
TORSDOF 10
ENDMDL
MODEL 9
REMARK VINA RESULT:      -8.9      1.653      4.154
REMARK  Name = 74978435
REMARK  10 active torsions:
REMARK  status: ('A' for Active; 'I' for Inactive)
REMARK    1  A    between atoms: O_2  and  C_22
REMARK    2  A    between atoms: O_2  and  C_26
REMARK    3  A    between atoms: O_6  and  C_25
REMARK    4  A    between atoms: O_6  and  C_29
REMARK    5  A    between atoms: O_13  and  C_35
REMARK    6  A    between atoms: O_14  and  C_40
REMARK    7  A    between atoms: O_15  and  C_41
REMARK    8  A    between atoms: O_16  and  C_43
REMARK    9  A    between atoms: C_17  and  C_26
REMARK   10  A    between atoms: C_30  and  C_34
REMARK                            x       y       z     vdW  Elec       q    Type
REMARK                         _______ _______ _______ _____ _____    ______ ____
ROOT
ATOM      1  O   UNL     1     111.389 127.045 136.577  0.00  0.00    +0.000 OA
ATOM      2  O   UNL     1     112.082 128.996 135.221  0.00  0.00    +0.000 OA
ATOM      3  C   UNL     1     112.422 127.862 136.020  0.00  0.00    +0.000 A 
ATOM      4  C   UNL     1     112.191 127.211 136.472  0.00  0.00    +0.000 A 
ATOM      5  C   UNL     1     111.851 128.346 135.673  0.00  0.00    +0.000 A 
ATOM      6  C   UNL     1     111.050 128.181 135.778  0.00  0.00    +0.000 A 
ATOM      7  C   UNL     1     110.819 127.530 136.230  0.00  0.00    +0.000 A 
ATOM      8  C   UNL     1     110.465 128.693 135.411  0.00  0.00    +0.000 A 
ATOM      9  C   UNL     1     109.987 127.348 136.347  0.00  0.00    +0.000 A 
ATOM     10  C   UNL     1     109.629 128.526 135.517  0.00  0.00    +0.000 A 
ATOM     11  C   UNL     1     109.388 127.848 135.988  0.00  0.00    +0.000 A 
ENDROOT
BRANCH   4  12
ATOM     12  C   UNL     1     112.760 126.726 136.819  0.00  0.00    +0.000 A 
ATOM     13  C   UNL     1     112.895 126.764 137.632  0.00  0.00    +0.000 A 
ATOM     14  C   UNL     1     113.195 126.202 136.352  0.00  0.00    +0.000 A 
ATOM     15  C   UNL     1     113.466 126.279 137.978  0.00  0.00    +0.000 A 
ATOM     16  C   UNL     1     113.765 125.717 136.699  0.00  0.00    +0.000 A 
ATOM     17  C   UNL     1     113.900 125.756 137.512  0.00  0.00    +0.000 A 
BRANCH  15  18
ATOM     18  O   UNL     1     113.601 126.317 138.791  0.00  0.00    +0.000 OA
ATOM     19  C   UNL     1     112.996 126.557 139.299  0.00  0.00    +0.000 C 
ENDBRANCH  15  18
BRANCH  17  20
ATOM     20  O   UNL     1     114.471 125.270 137.858  0.00  0.00    +0.000 OA
ATOM     21  C   UNL     1     114.858 124.701 137.405  0.00  0.00    +0.000 C 
ENDBRANCH  17  20
ENDBRANCH   4  12
BRANCH   8  22
ATOM     22  O   UNL     1     110.705 129.341 134.961  0.00  0.00    +0.000 OA
ATOM     23  C   UNL     1     110.162 129.931 134.766  0.00  0.00    +0.000 C 
ENDBRANCH   8  22
BRANCH  11  24
ATOM     24  O   UNL     1     108.588 127.680 136.095  0.00  0.00    +0.000 OA
ATOM     25  C   UNL     1     108.272 126.974 135.807  0.00  0.00    +0.000 C 
ENDBRANCH  11  24
BRANCH   3  26
ATOM     26  O   UNL     1     113.222 128.027 135.915  0.00  0.00    +0.000 OA
BRANCH  26  35
ATOM     27  O   UNL     1     113.197 129.157 136.789  0.00  0.00    +0.000 OA
ATOM     28  O   UNL     1     114.438 130.952 136.840  0.00  0.00    +0.000 OA
ATOM     29  O   UNL     1     115.096 130.155 135.554  0.00  0.00    +0.000 OA
ATOM     30  O   UNL     1     114.488 128.692 135.092  0.00  0.00    +0.000 OA
ATOM     31  C   UNL     1     113.501 129.889 137.020  0.00  0.00    +0.000 C 
ATOM     32  C   UNL     1     114.134 130.221 136.609  0.00  0.00    +0.000 C 
ATOM     33  C   UNL     1     114.463 129.823 135.966  0.00  0.00    +0.000 C 
ATOM     34  C   UNL     1     114.160 129.091 135.734  0.00  0.00    +0.000 C 
ATOM     35  C   UNL     1     113.526 128.758 136.146  0.00  0.00    +0.000 C 
BRANCH  31  36
ATOM     36  C   UNL     1     113.171 130.287 137.663  0.00  0.00    +0.000 C 
BRANCH  36  37
ATOM     37  O   UNL     1     113.127 129.916 138.399  0.00  0.00    +0.000 OA
BRANCH  37  43
ATOM     38  O   UNL     1     111.746 130.183 138.652  0.00  0.00    +0.000 OA
ATOM     39  O   UNL     1     113.468 130.167 139.993  0.00  0.00    +0.000 OA
ATOM     40  O   UNL     1     112.258 130.559 141.044  0.00  0.00    +0.000 OA
ATOM     41  O   UNL     1     110.707 130.700 140.500  0.00  0.00    +0.000 OA
ATOM     42  C   UNL     1     112.693 130.238 139.722  0.00  0.00    +0.000 C 
ATOM     43  C   UNL     1     112.523 130.112 138.924  0.00  0.00    +0.000 C 
ATOM     44  C   UNL     1     112.087 130.434 140.247  0.00  0.00    +0.000 C 
ATOM     45  C   UNL     1     111.312 130.504 139.975  0.00  0.00    +0.000 C 
ATOM     46  C   UNL     1     111.142 130.379 139.178  0.00  0.00    +0.000 C 
ATOM     47  C   UNL     1     110.366 130.449 138.905  0.00  0.00    +0.000 C 
ENDBRANCH  37  43
ENDBRANCH  36  37
ENDBRANCH  31  36
ENDBRANCH  26  35
ENDBRANCH   3  26
TORSDOF 10
ENDMDL
MODEL 10
REMARK VINA RESULT:      -8.9      1.310      3.518
REMARK  Name = 74978435
REMARK  10 active torsions:
REMARK  status: ('A' for Active; 'I' for Inactive)
REMARK    1  A    between atoms: O_2  and  C_22
REMARK    2  A    between atoms: O_2  and  C_26
REMARK    3  A    between atoms: O_6  and  C_25
REMARK    4  A    between atoms: O_6  and  C_29
REMARK    5  A    between atoms: O_13  and  C_35
REMARK    6  A    between atoms: O_14  and  C_40
REMARK    7  A    between atoms: O_15  and  C_41
REMARK    8  A    between atoms: O_16  and  C_43
REMARK    9  A    between atoms: C_17  and  C_26
REMARK   10  A    between atoms: C_30  and  C_34
REMARK                            x       y       z     vdW  Elec       q    Type
REMARK                         _______ _______ _______ _____ _____    ______ ____
ROOT
ATOM      1  O   UNL     1     112.779 128.479 135.580  0.00  0.00    +0.000 OA
ATOM      2  O   UNL     1     111.550 130.385 136.570  0.00  0.00    +0.000 OA
ATOM      3  C   UNL     1     111.560 129.050 136.063  0.00  0.00    +0.000 A 
ATOM      4  C   UNL     1     111.970 128.414 135.733  0.00  0.00    +0.000 A 
ATOM      5  C   UNL     1     111.959 129.750 136.240  0.00  0.00    +0.000 A 
ATOM      6  C   UNL     1     112.767 129.815 136.088  0.00  0.00    +0.000 A 
ATOM      7  C   UNL     1     113.177 129.179 135.758  0.00  0.00    +0.000 A 
ATOM      8  C   UNL     1     113.171 130.549 136.278  0.00  0.00    +0.000 A 
ATOM      9  C   UNL     1     114.019 129.234 135.595  0.00  0.00    +0.000 A 
ATOM     10  C   UNL     1     114.013 130.622 136.122  0.00  0.00    +0.000 A 
ATOM     11  C   UNL     1     114.440 129.960 135.777  0.00  0.00    +0.000 A 
ENDROOT
BRANCH   4  12
ATOM     12  C   UNL     1     111.572 127.714 135.555  0.00  0.00    +0.000 A 
ATOM     13  C   UNL     1     111.696 127.040 136.014  0.00  0.00    +0.000 A 
ATOM     14  C   UNL     1     111.049 127.688 134.916  0.00  0.00    +0.000 A 
ATOM     15  C   UNL     1     111.297 126.340 135.835  0.00  0.00    +0.000 A 
ATOM     16  C   UNL     1     110.651 126.988 134.738  0.00  0.00    +0.000 A 
ATOM     17  C   UNL     1     110.775 126.314 135.198  0.00  0.00    +0.000 A 
BRANCH  15  18
ATOM     18  O   UNL     1     111.422 125.666 136.294  0.00  0.00    +0.000 OA
ATOM     19  C   UNL     1     112.147 125.552 136.672  0.00  0.00    +0.000 C 
ENDBRANCH  15  18
BRANCH  17  20
ATOM     20  O   UNL     1     110.376 125.614 135.019  0.00  0.00    +0.000 OA
ATOM     21  C   UNL     1     109.660 125.640 134.612  0.00  0.00    +0.000 C 
ENDBRANCH  17  20
ENDBRANCH   4  12
BRANCH   8  22
ATOM     22  O   UNL     1     112.753 131.179 136.608  0.00  0.00    +0.000 OA
ATOM     23  C   UNL     1     113.137 131.709 137.111  0.00  0.00    +0.000 C 
ENDBRANCH   8  22
BRANCH  11  24
ATOM     24  O   UNL     1     115.248 130.022 135.624  0.00  0.00    +0.000 OA
ATOM     25  C   UNL     1     115.510 130.221 134.868  0.00  0.00    +0.000 C 
ENDBRANCH  11  24
BRANCH   3  26
ATOM     26  O   UNL     1     110.753 128.985 136.215  0.00  0.00    +0.000 OA
BRANCH  26  35
ATOM     27  O   UNL     1     110.908 128.868 137.631  0.00  0.00    +0.000 OA
ATOM     28  O   UNL     1     109.604 129.484 139.268  0.00  0.00    +0.000 OA
ATOM     29  O   UNL     1     108.717 129.968 137.964  0.00  0.00    +0.000 OA
ATOM     30  O   UNL     1     109.291 129.719 136.437  0.00  0.00    +0.000 OA
ATOM     31  C   UNL     1     110.621 128.993 138.394  0.00  0.00    +0.000 C 
ATOM     32  C   UNL     1     109.891 129.360 138.505  0.00  0.00    +0.000 C 
ATOM     33  C   UNL     1     109.447 129.602 137.853  0.00  0.00    +0.000 C 
ATOM     34  C   UNL     1     109.734 129.477 137.090  0.00  0.00    +0.000 C 
ATOM     35  C   UNL     1     110.465 129.110 136.978  0.00  0.00    +0.000 C 
BRANCH  31  36
ATOM     36  C   UNL     1     111.065 128.751 139.046  0.00  0.00    +0.000 C 
BRANCH  36  37
ATOM     37  O   UNL     1     111.315 127.967 139.106  0.00  0.00    +0.000 OA
BRANCH  37  43
ATOM     38  O   UNL     1     112.552 128.254 139.761  0.00  0.00    +0.000 OA
ATOM     39  O   UNL     1     111.182 126.567 139.970  0.00  0.00    +0.000 OA
ATOM     40  O   UNL     1     112.353 126.155 141.057  0.00  0.00    +0.000 OA
ATOM     41  O   UNL     1     113.655 127.141 141.280  0.00  0.00    +0.000 OA
ATOM     42  C   UNL     1     111.833 127.060 140.082  0.00  0.00    +0.000 C 
ATOM     43  C   UNL     1     111.900 127.760 139.650  0.00  0.00    +0.000 C 
ATOM     44  C   UNL     1     112.419 126.854 140.625  0.00  0.00    +0.000 C 
ATOM     45  C   UNL     1     113.070 127.347 140.737  0.00  0.00    +0.000 C 
ATOM     46  C   UNL     1     113.137 128.047 140.305  0.00  0.00    +0.000 C 
ATOM     47  C   UNL     1     113.788 128.541 140.416  0.00  0.00    +0.000 C 
ENDBRANCH  37  43
ENDBRANCH  36  37
ENDBRANCH  31  36
ENDBRANCH  26  35
ENDBRANCH   3  26
TORSDOF 10
ENDMDL
