MODEL 1
REMARK VINA RESULT:      -9.6      0.000      0.000
REMARK  Name = 10252339
REMARK  4 active torsions:
REMARK  status: ('A' for Active; 'I' for Inactive)
REMARK    1  A    between atoms: O_2  and  C_15
REMARK    2  A    between atoms: O_2  and  C_17
REMARK    3  A    between atoms: C_14  and  C_16
REMARK    4  A    between atoms: C_18  and  C_22
REMARK                            x       y       z     vdW  Elec       q    Type
REMARK                         _______ _______ _______ _____ _____    ______ ____
ROOT
ATOM      1  O   UNL     1     105.665 124.406 147.713  0.00  0.00    +0.000 OA
ATOM      2  O   UNL     1     107.079 125.614 146.080  0.00  0.00    +0.000 OA
ATOM      3  O   UNL     1     108.195 125.604 146.995  0.00  0.00    +0.000 OA
ATOM      4  O   UNL     1     107.872 124.348 149.612  0.00  0.00    +0.000 OA
ATOM      5  C   UNL     1     105.828 125.022 146.434  0.00  0.00    +0.000 A 
ATOM      6  C   UNL     1     105.356 124.620 146.978  0.00  0.00    +0.000 A 
ATOM      7  C   UNL     1     106.607 125.211 146.624  0.00  0.00    +0.000 A 
ATOM      8  C   UNL     1     106.916 124.998 147.359  0.00  0.00    +0.000 A 
ATOM      9  C   UNL     1     106.445 124.596 147.903  0.00  0.00    +0.000 A 
ATOM     10  C   UNL     1     107.730 125.201 147.546  0.00  0.00    +0.000 A 
ATOM     11  C   UNL     1     106.754 124.368 148.672  0.00  0.00    +0.000 A 
ATOM     12  C   UNL     1     108.057 124.982 148.309  0.00  0.00    +0.000 A 
ATOM     13  C   UNL     1     107.565 124.562 148.876  0.00  0.00    +0.000 A 
ENDROOT
BRANCH   6  16
ATOM     14  O   UNL     1     102.551 125.042 147.326  0.00  0.00    +0.000 OA
ATOM     15  O   UNL     1     102.236 123.863 146.216  0.00  0.00    +0.000 OA
ATOM     16  C   UNL     1     104.576 124.430 146.788  0.00  0.00    +0.000 A 
ATOM     17  C   UNL     1     103.954 124.831 147.152  0.00  0.00    +0.000 A 
ATOM     18  C   UNL     1     104.418 123.840 146.233  0.00  0.00    +0.000 A 
ATOM     19  C   UNL     1     103.174 124.642 146.962  0.00  0.00    +0.000 A 
ATOM     20  C   UNL     1     103.638 123.651 146.042  0.00  0.00    +0.000 A 
ATOM     21  C   UNL     1     103.016 124.052 146.407  0.00  0.00    +0.000 A 
ENDBRANCH   6  16
BRANCH   5  22
ATOM     22  O   UNL     1     105.519 125.235 145.699  0.00  0.00    +0.000 OA
BRANCH  22  29
ATOM     23  O   UNL     1     105.392 126.670 145.995  0.00  0.00    +0.000 OA
ATOM     24  O   UNL     1     105.500 127.666 144.109  0.00  0.00    +0.000 OA
ATOM     25  O   UNL     1     105.631 125.877 144.027  0.00  0.00    +0.000 OA
ATOM     26  C   UNL     1     105.476 127.148 144.750  0.00  0.00    +0.000 C 
ATOM     27  C   UNL     1     105.536 126.326 144.713  0.00  0.00    +0.000 C 
ATOM     28  C   UNL     1     105.387 127.361 145.543  0.00  0.00    +0.000 C 
ATOM     29  C   UNL     1     105.484 126.031 145.482  0.00  0.00    +0.000 C 
BRANCH  28  31
ATOM     30  O   UNL     1     104.962 128.258 146.570  0.00  0.00    +0.000 OA
ATOM     31  C   UNL     1     105.307 128.130 145.832  0.00  0.00    +0.000 C 
ENDBRANCH  28  31
ENDBRANCH  22  29
ENDBRANCH   5  22
TORSDOF 4
ENDMDL
MODEL 2
REMARK VINA RESULT:      -8.9     10.051     11.860
REMARK  Name = 10252339
REMARK  4 active torsions:
REMARK  status: ('A' for Active; 'I' for Inactive)
REMARK    1  A    between atoms: O_2  and  C_15
REMARK    2  A    between atoms: O_2  and  C_17
REMARK    3  A    between atoms: C_14  and  C_16
REMARK    4  A    between atoms: C_18  and  C_22
REMARK                            x       y       z     vdW  Elec       q    Type
REMARK                         _______ _______ _______ _____ _____    ______ ____
ROOT
ATOM      1  O   UNL     1     113.431 126.245 138.682  0.00  0.00    +0.000 OA
ATOM      2  O   UNL     1     111.115 125.435 138.352  0.00  0.00    +0.000 OA
ATOM      3  O   UNL     1     110.704 126.010 139.610  0.00  0.00    +0.000 OA
ATOM      4  O   UNL     1     112.673 127.432 141.232  0.00  0.00    +0.000 OA
ATOM      5  C   UNL     1     112.464 125.550 137.892  0.00  0.00    +0.000 A 
ATOM      6  C   UNL     1     113.236 125.821 138.002  0.00  0.00    +0.000 A 
ATOM      7  C   UNL     1     111.887 125.705 138.462  0.00  0.00    +0.000 A 
ATOM      8  C   UNL     1     112.082 126.129 139.142  0.00  0.00    +0.000 A 
ATOM      9  C   UNL     1     112.854 126.400 139.252  0.00  0.00    +0.000 A 
ATOM     10  C   UNL     1     111.473 126.284 139.728  0.00  0.00    +0.000 A 
ATOM     11  C   UNL     1     113.071 126.843 139.955  0.00  0.00    +0.000 A 
ATOM     12  C   UNL     1     111.671 126.725 140.438  0.00  0.00    +0.000 A 
ATOM     13  C   UNL     1     112.475 127.007 140.552  0.00  0.00    +0.000 A 
ENDROOT
BRANCH   6  16
ATOM     14  O   UNL     1     114.866 126.705 135.829  0.00  0.00    +0.000 OA
ATOM     15  O   UNL     1     115.540 125.203 135.723  0.00  0.00    +0.000 OA
ATOM     16  C   UNL     1     113.812 125.666 137.433  0.00  0.00    +0.000 A 
ATOM     17  C   UNL     1     114.051 126.263 136.916  0.00  0.00    +0.000 A 
ATOM     18  C   UNL     1     114.149 124.915 137.380  0.00  0.00    +0.000 A 
ATOM     19  C   UNL     1     114.627 126.108 136.346  0.00  0.00    +0.000 A 
ATOM     20  C   UNL     1     114.725 124.761 136.810  0.00  0.00    +0.000 A 
ATOM     21  C   UNL     1     114.964 125.358 136.293  0.00  0.00    +0.000 A 
ENDBRANCH   6  16
BRANCH   5  22
ATOM     22  O   UNL     1     112.269 125.126 137.212  0.00  0.00    +0.000 OA
BRANCH  22  29
ATOM     23  O   UNL     1     111.509 126.219 136.589  0.00  0.00    +0.000 OA
ATOM     24  O   UNL     1     110.208 125.292 135.173  0.00  0.00    +0.000 OA
ATOM     25  O   UNL     1     111.260 124.160 136.085  0.00  0.00    +0.000 OA
ATOM     26  C   UNL     1     110.759 125.500 135.749  0.00  0.00    +0.000 C 
ATOM     27  C   UNL     1     111.243 124.980 136.169  0.00  0.00    +0.000 C 
ATOM     28  C   UNL     1     110.923 126.267 136.009  0.00  0.00    +0.000 C 
ATOM     29  C   UNL     1     111.706 125.424 136.687  0.00  0.00    +0.000 C 
BRANCH  28  31
ATOM     30  O   UNL     1     111.009 127.649 135.658  0.00  0.00    +0.000 OA
ATOM     31  C   UNL     1     110.565 126.958 135.736  0.00  0.00    +0.000 C 
ENDBRANCH  28  31
ENDBRANCH  22  29
ENDBRANCH   5  22
TORSDOF 4
ENDMDL
MODEL 3
REMARK VINA RESULT:      -8.9     10.318     12.301
REMARK  Name = 10252339
REMARK  4 active torsions:
REMARK  status: ('A' for Active; 'I' for Inactive)
REMARK    1  A    between atoms: O_2  and  C_15
REMARK    2  A    between atoms: O_2  and  C_17
REMARK    3  A    between atoms: C_14  and  C_16
REMARK    4  A    between atoms: C_18  and  C_22
REMARK                            x       y       z     vdW  Elec       q    Type
REMARK                         _______ _______ _______ _____ _____    ______ ____
ROOT
ATOM      1  O   UNL     1     113.592 127.215 136.518  0.00  0.00    +0.000 OA
ATOM      2  O   UNL     1     112.241 128.234 138.325  0.00  0.00    +0.000 OA
ATOM      3  O   UNL     1     112.513 129.558 137.820  0.00  0.00    +0.000 OA
ATOM      4  O   UNL     1     114.182 129.856 135.442  0.00  0.00    +0.000 OA
ATOM      5  C   UNL     1     112.775 127.074 137.681  0.00  0.00    +0.000 A 
ATOM      6  C   UNL     1     113.225 126.734 137.079  0.00  0.00    +0.000 A 
ATOM      7  C   UNL     1     112.692 127.894 137.722  0.00  0.00    +0.000 A 
ATOM      8  C   UNL     1     113.059 128.374 137.161  0.00  0.00    +0.000 A 
ATOM      9  C   UNL     1     113.509 128.035 136.559  0.00  0.00    +0.000 A 
ATOM     10  C   UNL     1     112.965 129.227 137.214  0.00  0.00    +0.000 A 
ATOM     11  C   UNL     1     113.896 128.523 135.968  0.00  0.00    +0.000 A 
ATOM     12  C   UNL     1     113.345 129.732 136.632  0.00  0.00    +0.000 A 
ATOM     13  C   UNL     1     113.814 129.378 136.005  0.00  0.00    +0.000 A 
ENDROOT
BRANCH   6  16
ATOM     14  O   UNL     1     114.808 124.386 137.457  0.00  0.00    +0.000 OA
ATOM     15  O   UNL     1     113.557 123.455 136.916  0.00  0.00    +0.000 OA
ATOM     16  C   UNL     1     113.308 125.915 137.038  0.00  0.00    +0.000 A 
ATOM     17  C   UNL     1     114.016 125.560 137.268  0.00  0.00    +0.000 A 
ATOM     18  C   UNL     1     112.682 125.450 136.768  0.00  0.00    +0.000 A 
ATOM     19  C   UNL     1     114.099 124.741 137.227  0.00  0.00    +0.000 A 
ATOM     20  C   UNL     1     112.765 124.630 136.727  0.00  0.00    +0.000 A 
ATOM     21  C   UNL     1     113.474 124.275 136.957  0.00  0.00    +0.000 A 
ENDBRANCH   6  16
BRANCH   5  22
ATOM     22  O   UNL     1     112.408 126.594 138.243  0.00  0.00    +0.000 OA
BRANCH  22  29
ATOM     23  O   UNL     1     113.323 126.944 139.339  0.00  0.00    +0.000 OA
ATOM     24  O   UNL     1     112.261 126.524 141.143  0.00  0.00    +0.000 OA
ATOM     25  O   UNL     1     111.353 126.177 139.634  0.00  0.00    +0.000 OA
ATOM     26  C   UNL     1     112.538 126.635 140.374  0.00  0.00    +0.000 C 
ATOM     27  C   UNL     1     112.120 126.475 139.680  0.00  0.00    +0.000 C 
ATOM     28  C   UNL     1     113.281 126.925 140.163  0.00  0.00    +0.000 C 
ATOM     29  C   UNL     1     112.606 126.667 139.041  0.00  0.00    +0.000 C 
BRANCH  28  31
ATOM     30  O   UNL     1     114.670 127.036 140.484  0.00  0.00    +0.000 OA
ATOM     31  C   UNL     1     113.878 127.154 140.684  0.00  0.00    +0.000 C 
ENDBRANCH  28  31
ENDBRANCH  22  29
ENDBRANCH   5  22
TORSDOF 4
ENDMDL
MODEL 4
REMARK VINA RESULT:      -8.8     11.888     13.049
REMARK  Name = 10252339
REMARK  4 active torsions:
REMARK  status: ('A' for Active; 'I' for Inactive)
REMARK    1  A    between atoms: O_2  and  C_15
REMARK    2  A    between atoms: O_2  and  C_17
REMARK    3  A    between atoms: C_14  and  C_16
REMARK    4  A    between atoms: C_18  and  C_22
REMARK                            x       y       z     vdW  Elec       q    Type
REMARK                         _______ _______ _______ _____ _____    ______ ____
ROOT
ATOM      1  O   UNL     1     111.898 125.762 136.104  0.00  0.00    +0.000 OA
ATOM      2  O   UNL     1     111.356 128.100 136.713  0.00  0.00    +0.000 OA
ATOM      3  O   UNL     1     110.111 128.030 135.988  0.00  0.00    +0.000 OA
ATOM      4  O   UNL     1     109.400 125.549 134.621  0.00  0.00    +0.000 OA
ATOM      5  C   UNL     1     112.241 126.979 136.771  0.00  0.00    +0.000 A 
ATOM      6  C   UNL     1     112.421 126.199 136.568  0.00  0.00    +0.000 A 
ATOM      7  C   UNL     1     111.537 127.320 136.510  0.00  0.00    +0.000 A 
ATOM      8  C   UNL     1     111.013 126.883 136.046  0.00  0.00    +0.000 A 
ATOM      9  C   UNL     1     111.194 126.104 135.843  0.00  0.00    +0.000 A 
ATOM     10  C   UNL     1     110.283 127.250 135.780  0.00  0.00    +0.000 A 
ATOM     11  C   UNL     1     110.657 125.638 135.361  0.00  0.00    +0.000 A 
ATOM     12  C   UNL     1     109.734 126.800 135.296  0.00  0.00    +0.000 A 
ATOM     13  C   UNL     1     109.922 125.988 135.085  0.00  0.00    +0.000 A 
ENDROOT
BRANCH   6  16
ATOM     14  O   UNL     1     115.074 125.282 136.033  0.00  0.00    +0.000 OA
ATOM     15  O   UNL     1     115.237 124.833 137.613  0.00  0.00    +0.000 OA
ATOM     16  C   UNL     1     113.125 125.858 136.829  0.00  0.00    +0.000 A 
ATOM     17  C   UNL     1     113.747 125.741 136.301  0.00  0.00    +0.000 A 
ATOM     18  C   UNL     1     113.206 125.633 137.619  0.00  0.00    +0.000 A 
ATOM     19  C   UNL     1     114.451 125.399 136.562  0.00  0.00    +0.000 A 
ATOM     20  C   UNL     1     113.910 125.292 137.880  0.00  0.00    +0.000 A 
ATOM     21  C   UNL     1     114.533 125.174 137.351  0.00  0.00    +0.000 A 
ENDBRANCH   6  16
BRANCH   5  22
ATOM     22  O   UNL     1     112.765 127.416 137.235  0.00  0.00    +0.000 OA
BRANCH  22  29
ATOM     23  O   UNL     1     113.265 128.275 136.152  0.00  0.00    +0.000 OA
ATOM     24  O   UNL     1     113.871 130.097 137.086  0.00  0.00    +0.000 OA
ATOM     25  O   UNL     1     113.211 128.858 138.205  0.00  0.00    +0.000 OA
ATOM     26  C   UNL     1     113.598 129.348 136.874  0.00  0.00    +0.000 C 
ATOM     27  C   UNL     1     113.295 128.779 137.388  0.00  0.00    +0.000 C 
ATOM     28  C   UNL     1     113.580 129.037 136.110  0.00  0.00    +0.000 C 
ATOM     29  C   UNL     1     113.089 128.116 136.942  0.00  0.00    +0.000 C 
BRANCH  28  31
ATOM     30  O   UNL     1     114.044 128.980 134.759  0.00  0.00    +0.000 OA
ATOM     31  C   UNL     1     113.832 129.420 135.424  0.00  0.00    +0.000 C 
ENDBRANCH  28  31
ENDBRANCH  22  29
ENDBRANCH   5  22
TORSDOF 4
ENDMDL
MODEL 5
REMARK VINA RESULT:      -8.8     10.742     12.010
REMARK  Name = 10252339
REMARK  4 active torsions:
REMARK  status: ('A' for Active; 'I' for Inactive)
REMARK    1  A    between atoms: O_2  and  C_15
REMARK    2  A    between atoms: O_2  and  C_17
REMARK    3  A    between atoms: C_14  and  C_16
REMARK    4  A    between atoms: C_18  and  C_22
REMARK                            x       y       z     vdW  Elec       q    Type
REMARK                         _______ _______ _______ _____ _____    ______ ____
ROOT
ATOM      1  O   UNL     1     111.023 125.282 136.522  0.00  0.00    +0.000 OA
ATOM      2  O   UNL     1     113.256 126.286 136.161  0.00  0.00    +0.000 OA
ATOM      3  O   UNL     1     113.902 125.042 136.502  0.00  0.00    +0.000 OA
ATOM      4  O   UNL     1     112.257 122.739 137.223  0.00  0.00    +0.000 OA
ATOM      5  C   UNL     1     111.832 126.406 136.170  0.00  0.00    +0.000 A 
ATOM      6  C   UNL     1     111.087 126.071 136.290  0.00  0.00    +0.000 A 
ATOM      7  C   UNL     1     112.512 125.952 136.281  0.00  0.00    +0.000 A 
ATOM      8  C   UNL     1     112.447 125.162 136.513  0.00  0.00    +0.000 A 
ATOM      9  C   UNL     1     111.702 124.828 136.633  0.00  0.00    +0.000 A 
ATOM     10  C   UNL     1     113.162 124.699 136.625  0.00  0.00    +0.000 A 
ATOM     11  C   UNL     1     111.621 124.007 136.874  0.00  0.00    +0.000 A 
ATOM     12  C   UNL     1     113.101 123.877 136.866  0.00  0.00    +0.000 A 
ATOM     13  C   UNL     1     112.325 123.529 136.991  0.00  0.00    +0.000 A 
ENDROOT
BRANCH   6  16
ATOM     14  O   UNL     1     108.880 127.528 137.373  0.00  0.00    +0.000 OA
ATOM     15  O   UNL     1     108.370 127.889 135.846  0.00  0.00    +0.000 OA
ATOM     16  C   UNL     1     110.408 126.526 136.179  0.00  0.00    +0.000 A 
ATOM     17  C   UNL     1     109.984 126.799 136.831  0.00  0.00    +0.000 A 
ATOM     18  C   UNL     1     110.153 126.706 135.416  0.00  0.00    +0.000 A 
ATOM     19  C   UNL     1     109.305 127.254 136.720  0.00  0.00    +0.000 A 
ATOM     20  C   UNL     1     109.474 127.161 135.304  0.00  0.00    +0.000 A 
ATOM     21  C   UNL     1     109.049 127.435 135.957  0.00  0.00    +0.000 A 
ENDBRANCH   6  16
BRANCH   5  22
ATOM     22  O   UNL     1     111.897 127.195 135.939  0.00  0.00    +0.000 OA
BRANCH  22  29
ATOM     23  O   UNL     1     112.361 127.701 137.238  0.00  0.00    +0.000 OA
ATOM     24  O   UNL     1     113.486 129.464 136.810  0.00  0.00    +0.000 OA
ATOM     25  O   UNL     1     112.797 128.641 135.372  0.00  0.00    +0.000 OA
ATOM     26  C   UNL     1     113.031 128.776 136.817  0.00  0.00    +0.000 C 
ATOM     27  C   UNL     1     112.715 128.398 136.156  0.00  0.00    +0.000 C 
ATOM     28  C   UNL     1     112.813 128.346 137.486  0.00  0.00    +0.000 C 
ATOM     29  C   UNL     1     112.301 127.733 136.417  0.00  0.00    +0.000 C 
BRANCH  28  31
ATOM     30  O   UNL     1     112.573 128.210 138.889  0.00  0.00    +0.000 OA
ATOM     31  C   UNL     1     113.012 128.528 138.266  0.00  0.00    +0.000 C 
ENDBRANCH  28  31
ENDBRANCH  22  29
ENDBRANCH   5  22
TORSDOF 4
ENDMDL
MODEL 6
REMARK VINA RESULT:      -8.8      1.362      3.995
REMARK  Name = 10252339
REMARK  4 active torsions:
REMARK  status: ('A' for Active; 'I' for Inactive)
REMARK    1  A    between atoms: O_2  and  C_15
REMARK    2  A    between atoms: O_2  and  C_17
REMARK    3  A    between atoms: C_14  and  C_16
REMARK    4  A    between atoms: C_18  and  C_22
REMARK                            x       y       z     vdW  Elec       q    Type
REMARK                         _______ _______ _______ _____ _____    ______ ____
ROOT
ATOM      1  O   UNL     1     105.158 124.128 147.213  0.00  0.00    +0.000 OA
ATOM      2  O   UNL     1     103.618 125.852 148.099  0.00  0.00    +0.000 OA
ATOM      3  O   UNL     1     102.505 125.259 147.398  0.00  0.00    +0.000 OA
ATOM      4  O   UNL     1     102.959 122.876 145.770  0.00  0.00    +0.000 OA
ATOM      5  C   UNL     1     104.930 125.293 148.008  0.00  0.00    +0.000 A 
ATOM      6  C   UNL     1     105.444 124.719 147.713  0.00  0.00    +0.000 A 
ATOM      7  C   UNL     1     104.131 125.277 147.804  0.00  0.00    +0.000 A 
ATOM      8  C   UNL     1     103.845 124.686 147.304  0.00  0.00    +0.000 A 
ATOM      9  C   UNL     1     104.359 124.112 147.008  0.00  0.00    +0.000 A 
ATOM     10  C   UNL     1     103.011 124.680 147.098  0.00  0.00    +0.000 A 
ATOM     11  C   UNL     1     104.074 123.491 146.487  0.00  0.00    +0.000 A 
ATOM     12  C   UNL     1     102.707 124.067 146.578  0.00  0.00    +0.000 A 
ATOM     13  C   UNL     1     103.243 123.469 146.270  0.00  0.00    +0.000 A 
ENDROOT
BRANCH   6  16
ATOM     14  O   UNL     1     108.159 125.299 147.039  0.00  0.00    +0.000 OA
ATOM     15  O   UNL     1     108.640 124.785 148.531  0.00  0.00    +0.000 OA
ATOM     16  C   UNL     1     106.243 124.735 147.918  0.00  0.00    +0.000 A 
ATOM     17  C   UNL     1     106.801 125.009 147.376  0.00  0.00    +0.000 A 
ATOM     18  C   UNL     1     106.483 124.478 148.664  0.00  0.00    +0.000 A 
ATOM     19  C   UNL     1     107.600 125.025 147.581  0.00  0.00    +0.000 A 
ATOM     20  C   UNL     1     107.282 124.494 148.869  0.00  0.00    +0.000 A 
ATOM     21  C   UNL     1     107.841 124.768 148.327  0.00  0.00    +0.000 A 
ENDBRANCH   6  16
BRANCH   5  22
ATOM     22  O   UNL     1     105.217 125.884 148.508  0.00  0.00    +0.000 OA
BRANCH  22  29
ATOM     23  O   UNL     1     105.216 126.969 147.516  0.00  0.00    +0.000 OA
ATOM     24  O   UNL     1     104.900 128.769 148.620  0.00  0.00    +0.000 OA
ATOM     25  O   UNL     1     104.944 127.273 149.611  0.00  0.00    +0.000 OA
ATOM     26  C   UNL     1     105.013 128.003 148.337  0.00  0.00    +0.000 C 
ATOM     27  C   UNL     1     105.033 127.315 148.793  0.00  0.00    +0.000 C 
ATOM     28  C   UNL     1     105.126 127.789 147.548  0.00  0.00    +0.000 C 
ATOM     29  C   UNL     1     105.159 126.677 148.285  0.00  0.00    +0.000 C 
BRANCH  28  31
ATOM     30  O   UNL     1     104.924 128.038 146.155  0.00  0.00    +0.000 OA
ATOM     31  C   UNL     1     105.145 128.304 146.903  0.00  0.00    +0.000 C 
ENDBRANCH  28  31
ENDBRANCH  22  29
ENDBRANCH   5  22
TORSDOF 4
ENDMDL
MODEL 7
REMARK VINA RESULT:      -8.8      1.434      3.973
REMARK  Name = 10252339
REMARK  4 active torsions:
REMARK  status: ('A' for Active; 'I' for Inactive)
REMARK    1  A    between atoms: O_2  and  C_15
REMARK    2  A    between atoms: O_2  and  C_17
REMARK    3  A    between atoms: C_14  and  C_16
REMARK    4  A    between atoms: C_18  and  C_22
REMARK                            x       y       z     vdW  Elec       q    Type
REMARK                         _______ _______ _______ _____ _____    ______ ____
ROOT
ATOM      1  O   UNL     1     103.750 125.595 147.423  0.00  0.00    +0.000 OA
ATOM      2  O   UNL     1     105.713 124.599 146.292  0.00  0.00    +0.000 OA
ATOM      3  O   UNL     1     104.918 123.489 145.826  0.00  0.00    +0.000 OA
ATOM      4  O   UNL     1     102.081 123.387 146.516  0.00  0.00    +0.000 OA
ATOM      5  C   UNL     1     105.137 125.641 147.082  0.00  0.00    +0.000 A 
ATOM      6  C   UNL     1     104.482 125.973 147.459  0.00  0.00    +0.000 A 
ATOM      7  C   UNL     1     105.059 124.931 146.669  0.00  0.00    +0.000 A 
ATOM      8  C   UNL     1     104.326 124.553 146.633  0.00  0.00    +0.000 A 
ATOM      9  C   UNL     1     103.672 124.886 147.010  0.00  0.00    +0.000 A 
ATOM     10  C   UNL     1     104.258 123.814 146.200  0.00  0.00    +0.000 A 
ATOM     11  C   UNL     1     102.904 124.503 146.980  0.00  0.00    +0.000 A 
ATOM     12  C   UNL     1     103.497 123.416 146.158  0.00  0.00    +0.000 A 
ATOM     13  C   UNL     1     102.816 123.763 146.551  0.00  0.00    +0.000 A 
ENDROOT
BRANCH   6  16
ATOM     14  O   UNL     1     104.741 128.819 147.462  0.00  0.00    +0.000 OA
ATOM     15  O   UNL     1     104.795 128.813 149.111  0.00  0.00    +0.000 OA
ATOM     16  C   UNL     1     104.561 126.683 147.872  0.00  0.00    +0.000 A 
ATOM     17  C   UNL     1     104.612 127.396 147.460  0.00  0.00    +0.000 A 
ATOM     18  C   UNL     1     104.588 126.680 148.697  0.00  0.00    +0.000 A 
ATOM     19  C   UNL     1     104.690 128.106 147.873  0.00  0.00    +0.000 A 
ATOM     20  C   UNL     1     104.666 127.389 149.110  0.00  0.00    +0.000 A 
ATOM     21  C   UNL     1     104.717 128.103 148.698  0.00  0.00    +0.000 A 
ENDBRANCH   6  16
BRANCH   5  22
ATOM     22  O   UNL     1     105.869 126.019 147.119  0.00  0.00    +0.000 OA
BRANCH  22  29
ATOM     23  O   UNL     1     106.479 125.106 148.097  0.00  0.00    +0.000 OA
ATOM     24  O   UNL     1     108.578 125.156 147.713  0.00  0.00    +0.000 OA
ATOM     25  O   UNL     1     107.589 126.201 146.639  0.00  0.00    +0.000 OA
ATOM     26  C   UNL     1     107.758 125.241 147.740  0.00  0.00    +0.000 C 
ATOM     27  C   UNL     1     107.304 125.721 147.246  0.00  0.00    +0.000 C 
ATOM     28  C   UNL     1     107.248 124.861 148.266  0.00  0.00    +0.000 C 
ATOM     29  C   UNL     1     106.513 125.637 147.467  0.00  0.00    +0.000 C 
BRANCH  28  31
ATOM     30  O   UNL     1     106.933 124.124 149.449  0.00  0.00    +0.000 OA
ATOM     31  C   UNL     1     107.470 124.329 148.857  0.00  0.00    +0.000 C 
ENDBRANCH  28  31
ENDBRANCH  22  29
ENDBRANCH   5  22
TORSDOF 4
ENDMDL
MODEL 8
REMARK VINA RESULT:      -8.7      0.902      3.341
REMARK  Name = 10252339
REMARK  4 active torsions:
REMARK  status: ('A' for Active; 'I' for Inactive)
REMARK    1  A    between atoms: O_2  and  C_15
REMARK    2  A    between atoms: O_2  and  C_17
REMARK    3  A    between atoms: C_14  and  C_16
REMARK    4  A    between atoms: C_18  and  C_22
REMARK                            x       y       z     vdW  Elec       q    Type
REMARK                         _______ _______ _______ _____ _____    ______ ____
ROOT
ATOM      1  O   UNL     1     106.784 125.555 147.083  0.00  0.00    +0.000 OA
ATOM      2  O   UNL     1     104.801 124.741 148.321  0.00  0.00    +0.000 OA
ATOM      3  O   UNL     1     105.639 124.189 149.358  0.00  0.00    +0.000 OA
ATOM      4  O   UNL     1     108.538 124.466 149.137  0.00  0.00    +0.000 OA
ATOM      5  C   UNL     1     105.366 125.417 147.195  0.00  0.00    +0.000 A 
ATOM      6  C   UNL     1     106.027 125.688 146.782  0.00  0.00    +0.000 A 
ATOM      7  C   UNL     1     105.462 125.013 147.908  0.00  0.00    +0.000 A 
ATOM      8  C   UNL     1     106.219 124.879 148.208  0.00  0.00    +0.000 A 
ATOM      9  C   UNL     1     106.880 125.150 147.795  0.00  0.00    +0.000 A 
ATOM     10  C   UNL     1     106.306 124.457 148.951  0.00  0.00    +0.000 A 
ATOM     11  C   UNL     1     107.673 125.018 148.097  0.00  0.00    +0.000 A 
ATOM     12  C   UNL     1     107.091 124.315 149.269  0.00  0.00    +0.000 A 
ATOM     13  C   UNL     1     107.780 124.598 148.838  0.00  0.00    +0.000 A 
ENDROOT
BRANCH   6  16
ATOM     14  O   UNL     1     106.243 125.767 143.934  0.00  0.00    +0.000 OA
ATOM     15  O   UNL     1     105.643 127.304 143.932  0.00  0.00    +0.000 OA
ATOM     16  C   UNL     1     105.931 126.092 146.070  0.00  0.00    +0.000 A 
ATOM     17  C   UNL     1     106.135 125.728 145.359  0.00  0.00    +0.000 A 
ATOM     18  C   UNL     1     105.631 126.861 146.069  0.00  0.00    +0.000 A 
ATOM     19  C   UNL     1     106.039 126.132 144.646  0.00  0.00    +0.000 A 
ATOM     20  C   UNL     1     105.535 127.265 145.356  0.00  0.00    +0.000 A 
ATOM     21  C   UNL     1     105.739 126.900 144.644  0.00  0.00    +0.000 A 
ENDBRANCH   6  16
BRANCH   5  22
ATOM     22  O   UNL     1     104.609 125.550 146.895  0.00  0.00    +0.000 OA
BRANCH  22  29
ATOM     23  O   UNL     1     104.365 124.211 146.340  0.00  0.00    +0.000 OA
ATOM     24  O   UNL     1     102.275 123.849 146.588  0.00  0.00    +0.000 OA
ATOM     25  O   UNL     1     102.843 125.441 147.193  0.00  0.00    +0.000 OA
ATOM     26  C   UNL     1     103.050 124.129 146.562  0.00  0.00    +0.000 C 
ATOM     27  C   UNL     1     103.311 124.861 146.840  0.00  0.00    +0.000 C 
ATOM     28  C   UNL     1     103.702 123.727 146.253  0.00  0.00    +0.000 C 
ATOM     29  C   UNL     1     104.123 124.911 146.703  0.00  0.00    +0.000 C 
BRANCH  28  31
ATOM     30  O   UNL     1     104.298 122.741 145.408  0.00  0.00    +0.000 OA
ATOM     31  C   UNL     1     103.691 122.974 145.916  0.00  0.00    +0.000 C 
ENDBRANCH  28  31
ENDBRANCH  22  29
ENDBRANCH   5  22
TORSDOF 4
ENDMDL
MODEL 9
REMARK VINA RESULT:      -8.7     11.325     12.804
REMARK  Name = 10252339
REMARK  4 active torsions:
REMARK  status: ('A' for Active; 'I' for Inactive)
REMARK    1  A    between atoms: O_2  and  C_15
REMARK    2  A    between atoms: O_2  and  C_17
REMARK    3  A    between atoms: C_14  and  C_16
REMARK    4  A    between atoms: C_18  and  C_22
REMARK                            x       y       z     vdW  Elec       q    Type
REMARK                         _______ _______ _______ _____ _____    ______ ____
ROOT
ATOM      1  O   UNL     1     111.831 129.568 135.856  0.00  0.00    +0.000 OA
ATOM      2  O   UNL     1     112.381 131.061 137.753  0.00  0.00    +0.000 OA
ATOM      3  O   UNL     1     113.779 131.045 137.396  0.00  0.00    +0.000 OA
ATOM      4  O   UNL     1     114.636 129.490 135.077  0.00  0.00    +0.000 OA
ATOM      5  C   UNL     1     111.417 130.330 136.992  0.00  0.00    +0.000 A 
ATOM      6  C   UNL     1     111.233 129.833 136.360  0.00  0.00    +0.000 A 
ATOM      7  C   UNL     1     112.198 130.563 137.120  0.00  0.00    +0.000 A 
ATOM      8  C   UNL     1     112.795 130.298 136.617  0.00  0.00    +0.000 A 
ATOM      9  C   UNL     1     112.612 129.800 135.985  0.00  0.00    +0.000 A 
ATOM     10  C   UNL     1     113.605 130.547 136.761  0.00  0.00    +0.000 A 
ATOM     11  C   UNL     1     113.224 129.518 135.454  0.00  0.00    +0.000 A 
ATOM     12  C   UNL     1     114.232 130.275 136.241  0.00  0.00    +0.000 A 
ATOM     13  C   UNL     1     114.039 129.756 135.582  0.00  0.00    +0.000 A 
ENDROOT
BRANCH   6  16
ATOM     14  O   UNL     1     108.801 130.043 134.874  0.00  0.00    +0.000 OA
ATOM     15  O   UNL     1     108.109 128.903 135.845  0.00  0.00    +0.000 OA
ATOM     16  C   UNL     1     110.452 129.600 136.231  0.00  0.00    +0.000 A 
ATOM     17  C   UNL     1     110.017 129.938 135.617  0.00  0.00    +0.000 A 
ATOM     18  C   UNL     1     110.106 129.030 136.717  0.00  0.00    +0.000 A 
ATOM     19  C   UNL     1     109.236 129.705 135.488  0.00  0.00    +0.000 A 
ATOM     20  C   UNL     1     109.325 128.798 136.589  0.00  0.00    +0.000 A 
ATOM     21  C   UNL     1     108.890 129.135 135.974  0.00  0.00    +0.000 A 
ENDBRANCH   6  16
BRANCH   5  22
ATOM     22  O   UNL     1     110.819 130.595 137.495  0.00  0.00    +0.000 OA
BRANCH  22  29
ATOM     23  O   UNL     1     110.760 131.968 136.972  0.00  0.00    +0.000 OA
ATOM     24  O   UNL     1     110.071 133.180 138.589  0.00  0.00    +0.000 OA
ATOM     25  O   UNL     1     110.233 131.433 138.970  0.00  0.00    +0.000 OA
ATOM     26  C   UNL     1     110.324 132.591 138.070  0.00  0.00    +0.000 C 
ATOM     27  C   UNL     1     110.399 131.789 138.245  0.00  0.00    +0.000 C 
ATOM     28  C   UNL     1     110.548 132.702 137.283  0.00  0.00    +0.000 C 
ATOM     29  C   UNL     1     110.668 131.403 137.566  0.00  0.00    +0.000 C 
BRANCH  28  31
ATOM     30  O   UNL     1     110.345 133.449 136.081  0.00  0.00    +0.000 OA
ATOM     31  C   UNL     1     110.557 133.422 136.878  0.00  0.00    +0.000 C 
ENDBRANCH  28  31
ENDBRANCH  22  29
ENDBRANCH   5  22
TORSDOF 4
ENDMDL
MODEL 10
REMARK VINA RESULT:      -8.6      9.344     11.230
REMARK  Name = 10252339
REMARK  4 active torsions:
REMARK  status: ('A' for Active; 'I' for Inactive)
REMARK    1  A    between atoms: O_2  and  C_15
REMARK    2  A    between atoms: O_2  and  C_17
REMARK    3  A    between atoms: C_14  and  C_16
REMARK    4  A    between atoms: C_18  and  C_22
REMARK                            x       y       z     vdW  Elec       q    Type
REMARK                         _______ _______ _______ _____ _____    ______ ____
ROOT
ATOM      1  O   UNL     1     113.792 126.259 138.249  0.00  0.00    +0.000 OA
ATOM      2  O   UNL     1     111.784 124.852 137.909  0.00  0.00    +0.000 OA
ATOM      3  O   UNL     1     112.394 124.204 136.774  0.00  0.00    +0.000 OA
ATOM      4  O   UNL     1     115.087 124.995 135.966  0.00  0.00    +0.000 OA
ATOM      5  C   UNL     1     112.474 125.868 138.639  0.00  0.00    +0.000 A 
ATOM      6  C   UNL     1     113.144 126.337 138.753  0.00  0.00    +0.000 A 
ATOM      7  C   UNL     1     112.454 125.321 138.022  0.00  0.00    +0.000 A 
ATOM      8  C   UNL     1     113.102 125.242 137.518  0.00  0.00    +0.000 A 
ATOM      9  C   UNL     1     113.771 125.712 137.631  0.00  0.00    +0.000 A 
ATOM     10  C   UNL     1     113.068 124.669 136.879  0.00  0.00    +0.000 A 
ATOM     11  C   UNL     1     114.453 125.640 137.114  0.00  0.00    +0.000 A 
ATOM     12  C   UNL     1     113.740 124.583 136.351  0.00  0.00    +0.000 A 
ATOM     13  C   UNL     1     114.437 125.072 136.469  0.00  0.00    +0.000 A 
ENDROOT
BRANCH   6  16
ATOM     14  O   UNL     1     113.029 129.042 139.666  0.00  0.00    +0.000 OA
ATOM     15  O   UNL     1     113.227 128.526 141.221  0.00  0.00    +0.000 OA
ATOM     16  C   UNL     1     113.165 126.884 139.370  0.00  0.00    +0.000 A 
ATOM     17  C   UNL     1     113.086 127.689 139.210  0.00  0.00    +0.000 A 
ATOM     18  C   UNL     1     113.264 126.626 140.147  0.00  0.00    +0.000 A 
ATOM     19  C   UNL     1     113.107 128.236 139.827  0.00  0.00    +0.000 A 
ATOM     20  C   UNL     1     113.285 127.173 140.764  0.00  0.00    +0.000 A 
ATOM     21  C   UNL     1     113.207 127.979 140.604  0.00  0.00    +0.000 A 
ENDBRANCH   6  16
BRANCH   5  22
ATOM     22  O   UNL     1     111.826 125.947 139.144  0.00  0.00    +0.000 OA
BRANCH  22  29
ATOM     23  O   UNL     1     110.966 126.645 138.178  0.00  0.00    +0.000 OA
ATOM     24  O   UNL     1     108.959 126.226 138.774  0.00  0.00    +0.000 OA
ATOM     25  O   UNL     1     110.225 125.479 139.805  0.00  0.00    +0.000 OA
ATOM     26  C   UNL     1     109.774 126.297 138.670  0.00  0.00    +0.000 C 
ATOM     27  C   UNL     1     110.356 125.954 139.144  0.00  0.00    +0.000 C 
ATOM     28  C   UNL     1     110.151 126.725 138.073  0.00  0.00    +0.000 C 
ATOM     29  C   UNL     1     111.092 126.169 138.839  0.00  0.00    +0.000 C 
BRANCH  28  31
ATOM     30  O   UNL     1     110.181 127.766 137.095  0.00  0.00    +0.000 OA
ATOM     31  C   UNL     1     109.778 127.156 137.476  0.00  0.00    +0.000 C 
ENDBRANCH  28  31
ENDBRANCH  22  29
ENDBRANCH   5  22
TORSDOF 4
ENDMDL
