MODEL 1
REMARK VINA RESULT:      -9.5      0.000      0.000
REMARK  Name = 42607805
REMARK  9 active torsions:
REMARK  status: ('A' for Active; 'I' for Inactive)
REMARK    1  A    between atoms: O_1  and  C_16
REMARK    2  A    between atoms: O_1  and  C_18
REMARK    3  A    between atoms: O_4  and  C_15
REMARK    4  A    between atoms: O_4  and  C_26
REMARK    5  A    between atoms: O_7  and  C_22
REMARK    6  A    between atoms: O_7  and  C_27
REMARK    7  A    between atoms: C_15  and  C_24
REMARK    8  A    between atoms: C_23  and  C_25
REMARK    9  A    between atoms: C_31  and  C_32
REMARK                            x       y       z     vdW  Elec       q    Type
REMARK                         _______ _______ _______ _____ _____    ______ ____
ROOT
ATOM      1  O   UNL     1     107.075 125.022 141.016  0.00  0.00    +0.000 OA
ATOM      2  O   UNL     1     107.439 127.015 142.438  0.00  0.00    +0.000 OA
ATOM      3  O   UNL     1     108.584 126.564 141.339  0.00  0.00    +0.000 OA
ATOM      4  C   UNL     1     106.623 125.911 142.039  0.00  0.00    +0.000 C 
ATOM      5  C   UNL     1     107.318 126.350 141.964  0.00  0.00    +0.000 C 
ATOM      6  C   UNL     1     107.890 126.125 141.414  0.00  0.00    +0.000 C 
ATOM      7  C   UNL     1     106.502 125.246 141.565  0.00  0.00    +0.000 C 
ATOM      8  C   UNL     1     107.769 125.460 140.940  0.00  0.00    +0.000 C 
ENDROOT
BRANCH   8  10
ATOM      9  O   UNL     1     108.788 124.553 140.516  0.00  0.00    +0.000 OA
ATOM     10  C   UNL     1     108.342 125.236 140.392  0.00  0.00    +0.000 C 
ENDBRANCH   8  10
BRANCH   4  11
ATOM     11  O   UNL     1     106.051 126.136 142.589  0.00  0.00    +0.000 OA
BRANCH  11  16
ATOM     12  O   UNL     1     106.663 125.370 143.684  0.00  0.00    +0.000 OA
ATOM     13  O   UNL     1     105.136 126.835 143.966  0.00  0.00    +0.000 OA
ATOM     14  C   UNL     1     105.983 125.890 144.709  0.00  0.00    +0.000 C 
ATOM     15  C   UNL     1     105.719 126.253 144.016  0.00  0.00    +0.000 C 
ATOM     16  C   UNL     1     106.139 125.931 143.384  0.00  0.00    +0.000 C 
ATOM     17  C   UNL     1     106.567 125.344 144.503  0.00  0.00    +0.000 C 
BRANCH  14  19
ATOM     18  O   UNL     1     106.814 125.472 145.794  0.00  0.00    +0.000 OA
ATOM     19  C   UNL     1     106.072 125.685 145.503  0.00  0.00    +0.000 C 
ENDBRANCH  14  19
BRANCH  14  20
ATOM     20  O   UNL     1     105.455 126.345 145.149  0.00  0.00    +0.000 OA
BRANCH  20  22
ATOM     21  O   UNL     1     104.524 125.324 145.513  0.00  0.00    +0.000 OA
ATOM     22  C   UNL     1     104.973 125.986 145.714  0.00  0.00    +0.000 C 
ATOM     23  C   UNL     1     104.940 126.290 146.481  0.00  0.00    +0.000 C 
ENDBRANCH  20  22
ENDBRANCH  14  20
ENDBRANCH  11  16
ENDBRANCH   4  11
BRANCH   7  24
ATOM     24  O   UNL     1     105.808 124.807 141.641  0.00  0.00    +0.000 OA
BRANCH  24  25
ATOM     25  C   UNL     1     105.389 124.579 140.968  0.00  0.00    +0.000 A 
ATOM     26  C   UNL     1     105.287 123.778 140.797  0.00  0.00    +0.000 A 
ATOM     27  C   UNL     1     105.072 125.151 140.465  0.00  0.00    +0.000 A 
ATOM     28  C   UNL     1     104.552 124.122 139.621  0.00  0.00    +0.000 A 
ATOM     29  C   UNL     1     104.868 123.549 140.124  0.00  0.00    +0.000 A 
ATOM     30  C   UNL     1     104.654 124.922 139.792  0.00  0.00    +0.000 A 
BRANCH  28  34
ATOM     31  O   UNL     1     104.539 123.675 138.263  0.00  0.00    +0.000 OA
ATOM     32  O   UNL     1     102.064 123.645 138.297  0.00  0.00    +0.000 OA
ATOM     33  O   UNL     1     104.533 122.765 135.497  0.00  0.00    +0.000 OA
ATOM     34  C   UNL     1     104.133 123.894 138.948  0.00  0.00    +0.000 C 
ATOM     35  C   UNL     1     103.308 123.884 138.959  0.00  0.00    +0.000 C 
ATOM     36  C   UNL     1     102.890 123.655 138.286  0.00  0.00    +0.000 C 
ATOM     37  C   UNL     1     104.121 123.447 137.590  0.00  0.00    +0.000 A 
ATOM     38  C   UNL     1     103.295 123.437 137.602  0.00  0.00    +0.000 A 
ATOM     39  C   UNL     1     104.555 123.222 136.884  0.00  0.00    +0.000 A 
ATOM     40  C   UNL     1     102.848 123.201 136.907  0.00  0.00    +0.000 A 
ATOM     41  C   UNL     1     104.124 122.983 136.180  0.00  0.00    +0.000 A 
ATOM     42  C   UNL     1     103.265 122.973 136.191  0.00  0.00    +0.000 A 
ENDBRANCH  28  34
ENDBRANCH  24  25
ENDBRANCH   7  24
TORSDOF 9
ENDMDL
MODEL 2
REMARK VINA RESULT:      -9.5      7.315      8.628
REMARK  Name = 42607805
REMARK  9 active torsions:
REMARK  status: ('A' for Active; 'I' for Inactive)
REMARK    1  A    between atoms: O_1  and  C_16
REMARK    2  A    between atoms: O_1  and  C_18
REMARK    3  A    between atoms: O_4  and  C_15
REMARK    4  A    between atoms: O_4  and  C_26
REMARK    5  A    between atoms: O_7  and  C_22
REMARK    6  A    between atoms: O_7  and  C_27
REMARK    7  A    between atoms: C_15  and  C_24
REMARK    8  A    between atoms: C_23  and  C_25
REMARK    9  A    between atoms: C_31  and  C_32
REMARK                            x       y       z     vdW  Elec       q    Type
REMARK                         _______ _______ _______ _____ _____    ______ ____
ROOT
ATOM      1  O   UNL     1     113.662 129.764 139.632  0.00  0.00    +0.000 OA
ATOM      2  O   UNL     1     114.110 131.025 141.714  0.00  0.00    +0.000 OA
ATOM      3  O   UNL     1     114.879 131.441 140.316  0.00  0.00    +0.000 OA
ATOM      4  C   UNL     1     113.426 129.976 141.025  0.00  0.00    +0.000 C 
ATOM      5  C   UNL     1     113.960 130.605 141.020  0.00  0.00    +0.000 C 
ATOM      6  C   UNL     1     114.345 130.813 140.321  0.00  0.00    +0.000 C 
ATOM      7  C   UNL     1     113.277 129.555 140.331  0.00  0.00    +0.000 C 
ATOM      8  C   UNL     1     114.196 130.393 139.627  0.00  0.00    +0.000 C 
ENDROOT
BRANCH   8  10
ATOM      9  O   UNL     1     114.142 130.818 138.264  0.00  0.00    +0.000 OA
ATOM     10  C   UNL     1     114.580 130.601 138.928  0.00  0.00    +0.000 C 
ENDBRANCH   8  10
BRANCH   4  11
ATOM     11  O   UNL     1     113.041 129.768 141.725  0.00  0.00    +0.000 OA
BRANCH  11  16
ATOM     12  O   UNL     1     112.003 130.793 141.549  0.00  0.00    +0.000 OA
ATOM     13  O   UNL     1     112.116 129.493 143.238  0.00  0.00    +0.000 OA
ATOM     14  C   UNL     1     111.314 130.589 142.675  0.00  0.00    +0.000 C 
ATOM     15  C   UNL     1     111.943 130.055 142.659  0.00  0.00    +0.000 C 
ATOM     16  C   UNL     1     112.368 130.181 141.964  0.00  0.00    +0.000 C 
ATOM     17  C   UNL     1     111.351 131.046 141.988  0.00  0.00    +0.000 C 
BRANCH  14  19
ATOM     18  O   UNL     1     110.091 131.254 142.352  0.00  0.00    +0.000 OA
ATOM     19  C   UNL     1     110.641 131.003 142.913  0.00  0.00    +0.000 C 
ENDBRANCH  14  19
BRANCH  14  20
ATOM     20  O   UNL     1     111.071 130.282 143.401  0.00  0.00    +0.000 OA
BRANCH  20  22
ATOM     21  O   UNL     1     111.561 131.343 144.224  0.00  0.00    +0.000 OA
ATOM     22  C   UNL     1     110.981 130.783 144.050  0.00  0.00    +0.000 C 
ATOM     23  C   UNL     1     110.310 130.724 144.526  0.00  0.00    +0.000 C 
ENDBRANCH  20  22
ENDBRANCH  14  20
ENDBRANCH  11  16
ENDBRANCH   4  11
BRANCH   7  24
ATOM     24  O   UNL     1     112.743 128.927 140.337  0.00  0.00    +0.000 OA
BRANCH  24  25
ATOM     25  C   UNL     1     112.879 128.266 139.863  0.00  0.00    +0.000 A 
ATOM     26  C   UNL     1     113.388 127.670 140.122  0.00  0.00    +0.000 A 
ATOM     27  C   UNL     1     112.508 128.200 139.129  0.00  0.00    +0.000 A 
ATOM     28  C   UNL     1     113.153 126.943 138.915  0.00  0.00    +0.000 A 
ATOM     29  C   UNL     1     113.525 127.008 139.648  0.00  0.00    +0.000 A 
ATOM     30  C   UNL     1     112.645 127.538 138.655  0.00  0.00    +0.000 A 
BRANCH  28  34
ATOM     31  O   UNL     1     112.653 125.862 138.125  0.00  0.00    +0.000 OA
ATOM     32  O   UNL     1     114.972 125.137 137.651  0.00  0.00    +0.000 OA
ATOM     33  O   UNL     1     111.616 123.665 136.519  0.00  0.00    +0.000 OA
ATOM     34  C   UNL     1     113.289 126.282 138.441  0.00  0.00    +0.000 C 
ATOM     35  C   UNL     1     114.062 126.040 138.283  0.00  0.00    +0.000 C 
ATOM     36  C   UNL     1     114.198 125.379 137.809  0.00  0.00    +0.000 C 
ATOM     37  C   UNL     1     112.789 125.201 137.651  0.00  0.00    +0.000 A 
ATOM     38  C   UNL     1     113.563 124.959 137.493  0.00  0.00    +0.000 A 
ATOM     39  C   UNL     1     112.118 124.772 137.328  0.00  0.00    +0.000 A 
ATOM     40  C   UNL     1     113.718 124.272 137.000  0.00  0.00    +0.000 A 
ATOM     41  C   UNL     1     112.254 124.083 136.833  0.00  0.00    +0.000 A 
ATOM     42  C   UNL     1     113.059 123.831 136.669  0.00  0.00    +0.000 A 
ENDBRANCH  28  34
ENDBRANCH  24  25
ENDBRANCH   7  24
TORSDOF 9
ENDMDL
MODEL 3
REMARK VINA RESULT:      -9.5      8.211      9.539
REMARK  Name = 42607805
REMARK  9 active torsions:
REMARK  status: ('A' for Active; 'I' for Inactive)
REMARK    1  A    between atoms: O_1  and  C_16
REMARK    2  A    between atoms: O_1  and  C_18
REMARK    3  A    between atoms: O_4  and  C_15
REMARK    4  A    between atoms: O_4  and  C_26
REMARK    5  A    between atoms: O_7  and  C_22
REMARK    6  A    between atoms: O_7  and  C_27
REMARK    7  A    between atoms: C_15  and  C_24
REMARK    8  A    between atoms: C_23  and  C_25
REMARK    9  A    between atoms: C_31  and  C_32
REMARK                            x       y       z     vdW  Elec       q    Type
REMARK                         _______ _______ _______ _____ _____    ______ ____
ROOT
ATOM      1  O   UNL     1     112.180 130.123 136.545  0.00  0.00    +0.000 OA
ATOM      2  O   UNL     1     111.183 132.111 137.631  0.00  0.00    +0.000 OA
ATOM      3  O   UNL     1     112.813 132.032 137.391  0.00  0.00    +0.000 OA
ATOM      4  C   UNL     1     111.032 130.825 137.026  0.00  0.00    +0.000 C 
ATOM      5  C   UNL     1     111.515 131.449 137.269  0.00  0.00    +0.000 C 
ATOM      6  C   UNL     1     112.330 131.409 137.149  0.00  0.00    +0.000 C 
ATOM      7  C   UNL     1     111.364 130.162 136.664  0.00  0.00    +0.000 C 
ATOM      8  C   UNL     1     112.663 130.746 136.787  0.00  0.00    +0.000 C 
ENDROOT
BRANCH   8  10
ATOM      9  O   UNL     1     113.779 130.625 135.903  0.00  0.00    +0.000 OA
ATOM     10  C   UNL     1     113.477 130.707 136.667  0.00  0.00    +0.000 C 
ENDBRANCH   8  10
BRANCH   4  11
ATOM     11  O   UNL     1     110.217 130.865 137.146  0.00  0.00    +0.000 OA
BRANCH  11  16
ATOM     12  O   UNL     1     109.971 131.476 135.832  0.00  0.00    +0.000 OA
ATOM     13  O   UNL     1     108.465 131.215 137.323  0.00  0.00    +0.000 OA
ATOM     14  C   UNL     1     108.668 131.737 135.963  0.00  0.00    +0.000 C 
ATOM     15  C   UNL     1     108.929 131.381 136.661  0.00  0.00    +0.000 C 
ATOM     16  C   UNL     1     109.734 131.220 136.579  0.00  0.00    +0.000 C 
ATOM     17  C   UNL     1     109.313 131.796 135.451  0.00  0.00    +0.000 C 
BRANCH  14  19
ATOM     18  O   UNL     1     108.505 132.634 134.863  0.00  0.00    +0.000 OA
ATOM     19  C   UNL     1     108.185 132.092 135.396  0.00  0.00    +0.000 C 
ENDBRANCH  14  19
BRANCH  14  20
ATOM     20  O   UNL     1     107.906 131.791 136.275  0.00  0.00    +0.000 OA
BRANCH  20  22
ATOM     21  O   UNL     1     107.277 130.656 135.677  0.00  0.00    +0.000 OA
ATOM     22  C   UNL     1     107.270 131.458 135.869  0.00  0.00    +0.000 C 
ATOM     23  C   UNL     1     106.627 131.928 135.655  0.00  0.00    +0.000 C 
ENDBRANCH  20  22
ENDBRANCH  14  20
ENDBRANCH  11  16
ENDBRANCH   4  11
BRANCH   7  24
ATOM     24  O   UNL     1     110.881 129.539 136.422  0.00  0.00    +0.000 OA
BRANCH  24  25
ATOM     25  C   UNL     1     111.161 128.764 136.455  0.00  0.00    +0.000 A 
ATOM     26  C   UNL     1     111.183 128.363 137.177  0.00  0.00    +0.000 A 
ATOM     27  C   UNL     1     111.419 128.388 135.768  0.00  0.00    +0.000 A 
ATOM     28  C   UNL     1     111.720 127.213 136.521  0.00  0.00    +0.000 A 
ATOM     29  C   UNL     1     111.463 127.588 137.210  0.00  0.00    +0.000 A 
ATOM     30  C   UNL     1     111.698 127.613 135.801  0.00  0.00    +0.000 A 
BRANCH  28  34
ATOM     31  O   UNL     1     112.765 126.285 136.827  0.00  0.00    +0.000 OA
ATOM     32  O   UNL     1     111.311 124.415 136.109  0.00  0.00    +0.000 OA
ATOM     33  O   UNL     1     114.903 124.411 137.454  0.00  0.00    +0.000 OA
ATOM     34  C   UNL     1     112.000 126.437 136.554  0.00  0.00    +0.000 C 
ATOM     35  C   UNL     1     111.516 125.813 136.315  0.00  0.00    +0.000 C 
ATOM     36  C   UNL     1     111.796 125.038 136.348  0.00  0.00    +0.000 C 
ATOM     37  C   UNL     1     113.044 125.510 136.860  0.00  0.00    +0.000 A 
ATOM     38  C   UNL     1     112.559 124.887 136.620  0.00  0.00    +0.000 A 
ATOM     39  C   UNL     1     113.842 125.365 137.145  0.00  0.00    +0.000 A 
ATOM     40  C   UNL     1     112.840 124.074 136.650  0.00  0.00    +0.000 A 
ATOM     41  C   UNL     1     114.138 124.560 137.182  0.00  0.00    +0.000 A 
ATOM     42  C   UNL     1     113.634 123.910 136.933  0.00  0.00    +0.000 A 
ENDBRANCH  28  34
ENDBRANCH  24  25
ENDBRANCH   7  24
TORSDOF 9
ENDMDL
MODEL 4
REMARK VINA RESULT:      -9.2      4.006      5.654
REMARK  Name = 42607805
REMARK  9 active torsions:
REMARK  status: ('A' for Active; 'I' for Inactive)
REMARK    1  A    between atoms: O_1  and  C_16
REMARK    2  A    between atoms: O_1  and  C_18
REMARK    3  A    between atoms: O_4  and  C_15
REMARK    4  A    between atoms: O_4  and  C_26
REMARK    5  A    between atoms: O_7  and  C_22
REMARK    6  A    between atoms: O_7  and  C_27
REMARK    7  A    between atoms: C_15  and  C_24
REMARK    8  A    between atoms: C_23  and  C_25
REMARK    9  A    between atoms: C_31  and  C_32
REMARK                            x       y       z     vdW  Elec       q    Type
REMARK                         _______ _______ _______ _____ _____    ______ ____
ROOT
ATOM      1  O   UNL     1     106.497 128.037 142.405  0.00  0.00    +0.000 OA
ATOM      2  O   UNL     1     107.497 125.774 142.490  0.00  0.00    +0.000 OA
ATOM      3  O   UNL     1     108.361 127.035 141.870  0.00  0.00    +0.000 OA
ATOM      4  C   UNL     1     106.397 126.652 142.743  0.00  0.00    +0.000 C 
ATOM      5  C   UNL     1     107.163 126.528 142.462  0.00  0.00    +0.000 C 
ATOM      6  C   UNL     1     107.595 127.159 142.152  0.00  0.00    +0.000 C 
ATOM      7  C   UNL     1     106.064 127.406 142.715  0.00  0.00    +0.000 C 
ATOM      8  C   UNL     1     107.262 127.913 142.123  0.00  0.00    +0.000 C 
ENDROOT
BRANCH   8  10
ATOM      9  O   UNL     1     107.523 128.831 141.059  0.00  0.00    +0.000 OA
ATOM     10  C   UNL     1     107.694 128.543 141.813  0.00  0.00    +0.000 C 
ENDBRANCH   8  10
BRANCH   4  11
ATOM     11  O   UNL     1     105.966 126.021 143.053  0.00  0.00    +0.000 OA
BRANCH  11  16
ATOM     12  O   UNL     1     106.577 126.157 144.384  0.00  0.00    +0.000 OA
ATOM     13  O   UNL     1     105.130 124.669 143.886  0.00  0.00    +0.000 OA
ATOM     14  C   UNL     1     105.955 125.151 145.003  0.00  0.00    +0.000 C 
ATOM     15  C   UNL     1     105.686 125.177 144.223  0.00  0.00    +0.000 C 
ATOM     16  C   UNL     1     106.070 125.798 143.841  0.00  0.00    +0.000 C 
ATOM     17  C   UNL     1     106.506 125.758 145.102  0.00  0.00    +0.000 C 
BRANCH  14  19
ATOM     18  O   UNL     1     106.820 124.864 146.104  0.00  0.00    +0.000 OA
ATOM     19  C   UNL     1     106.059 124.929 145.791  0.00  0.00    +0.000 C 
ENDBRANCH  14  19
BRANCH  14  20
ATOM     20  O   UNL     1     105.463 124.506 145.153  0.00  0.00    +0.000 OA
BRANCH  20  22
ATOM     21  O   UNL     1     104.497 125.269 145.877  0.00  0.00    +0.000 OA
ATOM     22  C   UNL     1     104.885 124.555 145.738  0.00  0.00    +0.000 C 
ATOM     23  C   UNL     1     104.695 123.889 146.186  0.00  0.00    +0.000 C 
ENDBRANCH  20  22
ENDBRANCH  14  20
ENDBRANCH  11  16
ENDBRANCH   4  11
BRANCH   7  24
ATOM     24  O   UNL     1     105.299 127.530 142.996  0.00  0.00    +0.000 OA
BRANCH  24  25
ATOM     25  C   UNL     1     104.874 128.195 142.757  0.00  0.00    +0.000 A 
ATOM     26  C   UNL     1     104.458 128.184 142.044  0.00  0.00    +0.000 A 
ATOM     27  C   UNL     1     104.864 128.871 143.229  0.00  0.00    +0.000 A 
ATOM     28  C   UNL     1     104.023 129.525 142.278  0.00  0.00    +0.000 A 
ATOM     29  C   UNL     1     104.032 128.850 141.804  0.00  0.00    +0.000 A 
ATOM     30  C   UNL     1     104.439 129.536 142.990  0.00  0.00    +0.000 A 
BRANCH  28  34
ATOM     31  O   UNL     1     102.934 130.432 142.466  0.00  0.00    +0.000 OA
ATOM     32  O   UNL     1     103.649 131.703 140.466  0.00  0.00    +0.000 OA
ATOM     33  O   UNL     1     100.710 132.269 142.864  0.00  0.00    +0.000 OA
ATOM     34  C   UNL     1     103.598 130.190 142.038  0.00  0.00    +0.000 C 
ATOM     35  C   UNL     1     103.836 130.615 141.372  0.00  0.00    +0.000 C 
ATOM     36  C   UNL     1     103.411 131.280 141.133  0.00  0.00    +0.000 C 
ATOM     37  C   UNL     1     102.509 131.097 142.226  0.00  0.00    +0.000 A 
ATOM     38  C   UNL     1     102.748 131.521 141.559  0.00  0.00    +0.000 A 
ATOM     39  C   UNL     1     101.820 131.338 142.679  0.00  0.00    +0.000 A 
ATOM     40  C   UNL     1     102.313 132.216 141.300  0.00  0.00    +0.000 A 
ATOM     41  C   UNL     1     101.373 132.030 142.435  0.00  0.00    +0.000 A 
ATOM     42  C   UNL     1     101.621 132.472 141.740  0.00  0.00    +0.000 A 
ENDBRANCH  28  34
ENDBRANCH  24  25
ENDBRANCH   7  24
TORSDOF 9
ENDMDL
MODEL 5
REMARK VINA RESULT:      -9.2      7.099      8.323
REMARK  Name = 42607805
REMARK  9 active torsions:
REMARK  status: ('A' for Active; 'I' for Inactive)
REMARK    1  A    between atoms: O_1  and  C_16
REMARK    2  A    between atoms: O_1  and  C_18
REMARK    3  A    between atoms: O_4  and  C_15
REMARK    4  A    between atoms: O_4  and  C_26
REMARK    5  A    between atoms: O_7  and  C_22
REMARK    6  A    between atoms: O_7  and  C_27
REMARK    7  A    between atoms: C_15  and  C_24
REMARK    8  A    between atoms: C_23  and  C_25
REMARK    9  A    between atoms: C_31  and  C_32
REMARK                            x       y       z     vdW  Elec       q    Type
REMARK                         _______ _______ _______ _____ _____    ______ ____
ROOT
ATOM      1  O   UNL     1     110.791 129.198 139.414  0.00  0.00    +0.000 OA
ATOM      2  O   UNL     1     110.802 131.599 140.016  0.00  0.00    +0.000 OA
ATOM      3  O   UNL     1     109.654 131.012 138.988  0.00  0.00    +0.000 OA
ATOM      4  C   UNL     1     111.369 130.292 140.129  0.00  0.00    +0.000 C 
ATOM      5  C   UNL     1     110.798 130.799 139.816  0.00  0.00    +0.000 C 
ATOM      6  C   UNL     1     110.224 130.505 139.301  0.00  0.00    +0.000 C 
ATOM      7  C   UNL     1     111.365 129.491 139.928  0.00  0.00    +0.000 C 
ATOM      8  C   UNL     1     110.220 129.705 139.101  0.00  0.00    +0.000 C 
ENDROOT
BRANCH   8  10
ATOM      9  O   UNL     1     109.137 128.812 138.835  0.00  0.00    +0.000 OA
ATOM     10  C   UNL     1     109.646 129.412 138.587  0.00  0.00    +0.000 C 
ENDBRANCH   8  10
BRANCH   4  11
ATOM     11  O   UNL     1     111.943 130.586 140.643  0.00  0.00    +0.000 OA
BRANCH  11  16
ATOM     12  O   UNL     1     111.081 130.445 141.826  0.00  0.00    +0.000 OA
ATOM     13  O   UNL     1     112.954 131.470 141.835  0.00  0.00    +0.000 OA
ATOM     14  C   UNL     1     111.833 131.103 142.712  0.00  0.00    +0.000 C 
ATOM     15  C   UNL     1     112.225 131.114 141.986  0.00  0.00    +0.000 C 
ATOM     16  C   UNL     1     111.760 130.708 141.439  0.00  0.00    +0.000 C 
ATOM     17  C   UNL     1     111.125 130.689 142.613  0.00  0.00    +0.000 C 
BRANCH  14  19
ATOM     18  O   UNL     1     111.312 130.617 143.951  0.00  0.00    +0.000 OA
ATOM     19  C   UNL     1     111.649 131.225 143.507  0.00  0.00    +0.000 C 
ENDBRANCH  14  19
BRANCH  14  20
ATOM     20  O   UNL     1     112.448 131.534 143.052  0.00  0.00    +0.000 OA
BRANCH  20  22
ATOM     21  O   UNL     1     111.804 132.809 143.018  0.00  0.00    +0.000 OA
ATOM     22  C   UNL     1     112.296 132.267 143.398  0.00  0.00    +0.000 C 
ATOM     23  C   UNL     1     112.636 132.458 144.125  0.00  0.00    +0.000 C 
ENDBRANCH  20  22
ENDBRANCH  14  20
ENDBRANCH  11  16
ENDBRANCH   4  11
BRANCH   7  24
ATOM     24  O   UNL     1     111.936 128.985 140.242  0.00  0.00    +0.000 OA
BRANCH  24  25
ATOM     25  C   UNL     1     112.202 128.341 139.801  0.00  0.00    +0.000 A 
ATOM     26  C   UNL     1     111.963 127.576 140.001  0.00  0.00    +0.000 A 
ATOM     27  C   UNL     1     112.707 128.460 139.160  0.00  0.00    +0.000 A 
ATOM     28  C   UNL     1     112.735 127.052 138.919  0.00  0.00    +0.000 A 
ATOM     29  C   UNL     1     112.229 126.932 139.560  0.00  0.00    +0.000 A 
ATOM     30  C   UNL     1     112.973 127.815 138.719  0.00  0.00    +0.000 A 
BRANCH  28  34
ATOM     31  O   UNL     1     112.469 125.972 138.020  0.00  0.00    +0.000 OA
ATOM     32  O   UNL     1     114.863 125.344 138.070  0.00  0.00    +0.000 OA
ATOM     33  O   UNL     1     111.910 123.778 136.189  0.00  0.00    +0.000 OA
ATOM     34  C   UNL     1     113.001 126.408 138.478  0.00  0.00    +0.000 C 
ATOM     35  C   UNL     1     113.798 126.197 138.494  0.00  0.00    +0.000 C 
ATOM     36  C   UNL     1     114.065 125.553 138.053  0.00  0.00    +0.000 C 
ATOM     37  C   UNL     1     112.736 125.328 137.579  0.00  0.00    +0.000 A 
ATOM     38  C   UNL     1     113.534 125.119 137.596  0.00  0.00    +0.000 A 
ATOM     39  C   UNL     1     112.172 124.883 137.107  0.00  0.00    +0.000 A 
ATOM     40  C   UNL     1     113.823 124.449 137.141  0.00  0.00    +0.000 A 
ATOM     41  C   UNL     1     112.444 124.211 136.646  0.00  0.00    +0.000 A 
ATOM     42  C   UNL     1     113.275 123.993 136.663  0.00  0.00    +0.000 A 
ENDBRANCH  28  34
ENDBRANCH  24  25
ENDBRANCH   7  24
TORSDOF 9
ENDMDL
MODEL 6
REMARK VINA RESULT:      -9.2      1.395      6.831
REMARK  Name = 42607805
REMARK  9 active torsions:
REMARK  status: ('A' for Active; 'I' for Inactive)
REMARK    1  A    between atoms: O_1  and  C_16
REMARK    2  A    between atoms: O_1  and  C_18
REMARK    3  A    between atoms: O_4  and  C_15
REMARK    4  A    between atoms: O_4  and  C_26
REMARK    5  A    between atoms: O_7  and  C_22
REMARK    6  A    between atoms: O_7  and  C_27
REMARK    7  A    between atoms: C_15  and  C_24
REMARK    8  A    between atoms: C_23  and  C_25
REMARK    9  A    between atoms: C_31  and  C_32
REMARK                            x       y       z     vdW  Elec       q    Type
REMARK                         _______ _______ _______ _____ _____    ______ ____
ROOT
ATOM      1  O   UNL     1     106.984 126.366 142.329  0.00  0.00    +0.000 OA
ATOM      2  O   UNL     1     107.467 124.959 140.351  0.00  0.00    +0.000 OA
ATOM      3  O   UNL     1     108.516 126.154 140.790  0.00  0.00    +0.000 OA
ATOM      4  C   UNL     1     106.620 125.299 141.451  0.00  0.00    +0.000 C 
ATOM      5  C   UNL     1     107.306 125.428 141.011  0.00  0.00    +0.000 C 
ATOM      6  C   UNL     1     107.830 126.026 141.230  0.00  0.00    +0.000 C 
ATOM      7  C   UNL     1     106.458 125.769 142.110  0.00  0.00    +0.000 C 
ATOM      8  C   UNL     1     107.669 126.495 141.890  0.00  0.00    +0.000 C 
ENDROOT
BRANCH   8  10
ATOM      9  O   UNL     1     107.930 127.871 142.172  0.00  0.00    +0.000 OA
ATOM     10  C   UNL     1     108.194 127.092 142.109  0.00  0.00    +0.000 C 
ENDBRANCH   8  10
BRANCH   4  11
ATOM     11  O   UNL     1     106.095 124.702 141.231  0.00  0.00    +0.000 OA
BRANCH  11  16
ATOM     12  O   UNL     1     105.434 125.544 140.224  0.00  0.00    +0.000 OA
ATOM     13  O   UNL     1     104.975 123.483 140.537  0.00  0.00    +0.000 OA
ATOM     14  C   UNL     1     104.601 124.637 139.707  0.00  0.00    +0.000 C 
ATOM     15  C   UNL     1     105.040 124.271 140.303  0.00  0.00    +0.000 C 
ATOM     16  C   UNL     1     105.555 124.832 140.621  0.00  0.00    +0.000 C 
ATOM     17  C   UNL     1     104.845 125.425 139.659  0.00  0.00    +0.000 C 
BRANCH  14  19
ATOM     18  O   UNL     1     103.689 125.500 139.025  0.00  0.00    +0.000 OA
ATOM     19  C   UNL     1     104.061 124.768 139.098  0.00  0.00    +0.000 C 
ENDBRANCH  14  19
BRANCH  14  20
ATOM     20  O   UNL     1     104.202 123.929 139.565  0.00  0.00    +0.000 OA
BRANCH  20  22
ATOM     21  O   UNL     1     104.835 123.448 138.378  0.00  0.00    +0.000 OA
ATOM     22  C   UNL     1     104.149 123.633 138.797  0.00  0.00    +0.000 C 
ATOM     23  C   UNL     1     103.410 123.523 138.448  0.00  0.00    +0.000 C 
ENDBRANCH  20  22
ENDBRANCH  14  20
ENDBRANCH  11  16
ENDBRANCH   4  11
BRANCH   7  24
ATOM     24  O   UNL     1     105.773 125.640 142.550  0.00  0.00    +0.000 OA
BRANCH  24  25
ATOM     25  C   UNL     1     105.820 125.540 143.367  0.00  0.00    +0.000 A 
ATOM     26  C   UNL     1     105.748 126.193 143.868  0.00  0.00    +0.000 A 
ATOM     27  C   UNL     1     105.939 124.789 143.686  0.00  0.00    +0.000 A 
ATOM     28  C   UNL     1     105.914 125.341 145.003  0.00  0.00    +0.000 A 
ATOM     29  C   UNL     1     105.795 126.094 144.685  0.00  0.00    +0.000 A 
ATOM     30  C   UNL     1     105.986 124.689 144.503  0.00  0.00    +0.000 A 
BRANCH  28  34
ATOM     31  O   UNL     1     106.698 125.182 146.187  0.00  0.00    +0.000 OA
ATOM     32  O   UNL     1     104.629 125.061 147.540  0.00  0.00    +0.000 OA
ATOM     33  O   UNL     1     108.312 124.860 148.590  0.00  0.00    +0.000 OA
ATOM     34  C   UNL     1     105.961 125.242 145.820  0.00  0.00    +0.000 C 
ATOM     35  C   UNL     1     105.272 125.201 146.272  0.00  0.00    +0.000 C 
ATOM     36  C   UNL     1     105.319 125.101 147.089  0.00  0.00    +0.000 C 
ATOM     37  C   UNL     1     106.745 125.083 147.005  0.00  0.00    +0.000 A 
ATOM     38  C   UNL     1     106.055 125.042 147.455  0.00  0.00    +0.000 A 
ATOM     39  C   UNL     1     107.519 125.023 147.375  0.00  0.00    +0.000 A 
ATOM     40  C   UNL     1     106.091 124.939 148.309  0.00  0.00    +0.000 A 
ATOM     41  C   UNL     1     107.574 124.919 148.226  0.00  0.00    +0.000 A 
ATOM     42  C   UNL     1     106.856 124.877 148.696  0.00  0.00    +0.000 A 
ENDBRANCH  28  34
ENDBRANCH  24  25
ENDBRANCH   7  24
TORSDOF 9
ENDMDL
MODEL 7
REMARK VINA RESULT:      -9.1      5.714      7.896
REMARK  Name = 42607805
REMARK  9 active torsions:
REMARK  status: ('A' for Active; 'I' for Inactive)
REMARK    1  A    between atoms: O_1  and  C_16
REMARK    2  A    between atoms: O_1  and  C_18
REMARK    3  A    between atoms: O_4  and  C_15
REMARK    4  A    between atoms: O_4  and  C_26
REMARK    5  A    between atoms: O_7  and  C_22
REMARK    6  A    between atoms: O_7  and  C_27
REMARK    7  A    between atoms: C_15  and  C_24
REMARK    8  A    between atoms: C_23  and  C_25
REMARK    9  A    between atoms: C_31  and  C_32
REMARK                            x       y       z     vdW  Elec       q    Type
REMARK                         _______ _______ _______ _____ _____    ______ ____
ROOT
ATOM      1  O   UNL     1     106.934 125.571 147.356  0.00  0.00    +0.000 OA
ATOM      2  O   UNL     1     105.350 124.260 148.734  0.00  0.00    +0.000 OA
ATOM      3  O   UNL     1     106.970 124.172 149.030  0.00  0.00    +0.000 OA
ATOM      4  C   UNL     1     105.596 125.179 147.666  0.00  0.00    +0.000 C 
ATOM      5  C   UNL     1     105.878 124.697 148.274  0.00  0.00    +0.000 C 
ATOM      6  C   UNL     1     106.689 124.653 148.422  0.00  0.00    +0.000 C 
ATOM      7  C   UNL     1     106.124 125.616 147.207  0.00  0.00    +0.000 C 
ATOM      8  C   UNL     1     107.216 125.090 147.963  0.00  0.00    +0.000 C 
ENDROOT
BRANCH   8  10
ATOM      9  O   UNL     1     108.562 125.048 147.484  0.00  0.00    +0.000 OA
ATOM     10  C   UNL     1     108.026 125.046 148.111  0.00  0.00    +0.000 C 
ENDBRANCH   8  10
BRANCH   4  11
ATOM     11  O   UNL     1     104.785 125.223 147.518  0.00  0.00    +0.000 OA
BRANCH  11  16
ATOM     12  O   UNL     1     104.807 124.053 146.627  0.00  0.00    +0.000 OA
ATOM     13  O   UNL     1     103.036 125.137 147.124  0.00  0.00    +0.000 OA
ATOM     14  C   UNL     1     103.506 123.990 146.334  0.00  0.00    +0.000 C 
ATOM     15  C   UNL     1     103.622 124.628 146.844  0.00  0.00    +0.000 C 
ATOM     16  C   UNL     1     104.426 124.667 147.025  0.00  0.00    +0.000 C 
ATOM     17  C   UNL     1     104.239 123.634 146.200  0.00  0.00    +0.000 C 
BRANCH  14  19
ATOM     18  O   UNL     1     103.507 123.218 145.131  0.00  0.00    +0.000 OA
ATOM     19  C   UNL     1     103.147 123.434 145.841  0.00  0.00    +0.000 C 
ENDBRANCH  14  19
BRANCH  14  20
ATOM     20  O   UNL     1     102.698 124.156 146.309  0.00  0.00    +0.000 OA
BRANCH  20  22
ATOM     21  O   UNL     1     102.288 123.097 147.177  0.00  0.00    +0.000 OA
ATOM     22  C   UNL     1     102.152 123.575 146.518  0.00  0.00    +0.000 C 
ATOM     23  C   UNL     1     101.468 123.471 146.067  0.00  0.00    +0.000 C 
ENDBRANCH  20  22
ENDBRANCH  14  20
ENDBRANCH  11  16
ENDBRANCH   4  11
BRANCH   7  24
ATOM     24  O   UNL     1     105.841 126.097 146.600  0.00  0.00    +0.000 OA
BRANCH  24  25
ATOM     25  C   UNL     1     106.232 126.799 146.414  0.00  0.00    +0.000 A 
ATOM     26  C   UNL     1     106.641 126.868 145.700  0.00  0.00    +0.000 A 
ATOM     27  C   UNL     1     106.216 127.433 146.942  0.00  0.00    +0.000 A 
ATOM     28  C   UNL     1     107.014 128.204 146.043  0.00  0.00    +0.000 A 
ATOM     29  C   UNL     1     107.032 127.571 145.515  0.00  0.00    +0.000 A 
ATOM     30  C   UNL     1     106.607 128.135 146.757  0.00  0.00    +0.000 A 
BRANCH  28  34
ATOM     31  O   UNL     1     108.211 128.895 145.676  0.00  0.00    +0.000 OA
ATOM     32  O   UNL     1     106.969 131.036 145.665  0.00  0.00    +0.000 OA
ATOM     33  O   UNL     1     110.657 130.286 144.929  0.00  0.00    +0.000 OA
ATOM     34  C   UNL     1     107.405 128.906 145.858  0.00  0.00    +0.000 C 
ATOM     35  C   UNL     1     106.992 129.620 145.854  0.00  0.00    +0.000 C 
ATOM     36  C   UNL     1     107.384 130.323 145.668  0.00  0.00    +0.000 C 
ATOM     37  C   UNL     1     108.602 129.597 145.491  0.00  0.00    +0.000 A 
ATOM     38  C   UNL     1     108.188 130.311 145.487  0.00  0.00    +0.000 A 
ATOM     39  C   UNL     1     109.440 129.572 145.304  0.00  0.00    +0.000 A 
ATOM     40  C   UNL     1     108.584 131.050 145.295  0.00  0.00    +0.000 A 
ATOM     41  C   UNL     1     109.853 130.300 145.110  0.00  0.00    +0.000 A 
ATOM     42  C   UNL     1     109.422 131.044 145.106  0.00  0.00    +0.000 A 
ENDBRANCH  28  34
ENDBRANCH  24  25
ENDBRANCH   7  24
TORSDOF 9
ENDMDL
MODEL 8
REMARK VINA RESULT:      -9.1      7.486      9.309
REMARK  Name = 42607805
REMARK  9 active torsions:
REMARK  status: ('A' for Active; 'I' for Inactive)
REMARK    1  A    between atoms: O_1  and  C_16
REMARK    2  A    between atoms: O_1  and  C_18
REMARK    3  A    between atoms: O_4  and  C_15
REMARK    4  A    between atoms: O_4  and  C_26
REMARK    5  A    between atoms: O_7  and  C_22
REMARK    6  A    between atoms: O_7  and  C_27
REMARK    7  A    between atoms: C_15  and  C_24
REMARK    8  A    between atoms: C_23  and  C_25
REMARK    9  A    between atoms: C_31  and  C_32
REMARK                            x       y       z     vdW  Elec       q    Type
REMARK                         _______ _______ _______ _____ _____    ______ ____
ROOT
ATOM      1  O   UNL     1     110.602 130.080 138.995  0.00  0.00    +0.000 OA
ATOM      2  O   UNL     1     108.230 130.785 138.991  0.00  0.00    +0.000 OA
ATOM      3  O   UNL     1     109.142 130.966 140.353  0.00  0.00    +0.000 OA
ATOM      4  C   UNL     1     109.356 130.223 138.311  0.00  0.00    +0.000 C 
ATOM      5  C   UNL     1     109.021 130.550 138.992  0.00  0.00    +0.000 C 
ATOM      6  C   UNL     1     109.477 130.640 139.673  0.00  0.00    +0.000 C 
ATOM      7  C   UNL     1     110.147 129.988 138.313  0.00  0.00    +0.000 C 
ATOM      8  C   UNL     1     110.268 130.405 139.674  0.00  0.00    +0.000 C 
ENDROOT
BRANCH   8  10
ATOM      9  O   UNL     1     111.390 130.983 140.345  0.00  0.00    +0.000 OA
ATOM     10  C   UNL     1     110.724 130.496 140.355  0.00  0.00    +0.000 C 
ENDBRANCH   8  10
BRANCH   4  11
ATOM     11  O   UNL     1     108.899 130.133 137.631  0.00  0.00    +0.000 OA
BRANCH  11  16
ATOM     12  O   UNL     1     109.192 131.495 137.160  0.00  0.00    +0.000 OA
ATOM     13  O   UNL     1     107.886 130.142 136.148  0.00  0.00    +0.000 OA
ATOM     14  C   UNL     1     108.439 131.502 136.057  0.00  0.00    +0.000 C 
ATOM     15  C   UNL     1     108.354 130.765 136.420  0.00  0.00    +0.000 C 
ATOM     16  C   UNL     1     108.820 130.761 137.101  0.00  0.00    +0.000 C 
ATOM     17  C   UNL     1     108.957 131.953 136.515  0.00  0.00    +0.000 C 
BRANCH  14  19
ATOM     18  O   UNL     1     109.026 132.553 135.287  0.00  0.00    +0.000 OA
ATOM     19  C   UNL     1     108.360 132.130 135.528  0.00  0.00    +0.000 C 
ENDBRANCH  14  19
BRANCH  14  20
ATOM     20  O   UNL     1     107.922 131.267 135.459  0.00  0.00    +0.000 OA
BRANCH  20  22
ATOM     21  O   UNL     1     106.631 131.707 135.884  0.00  0.00    +0.000 OA
ATOM     22  C   UNL     1     107.232 131.695 135.319  0.00  0.00    +0.000 C 
ATOM     23  C   UNL     1     107.142 132.113 134.613  0.00  0.00    +0.000 C 
ENDBRANCH  20  22
ENDBRANCH  14  20
ENDBRANCH  11  16
ENDBRANCH   4  11
BRANCH   7  24
ATOM     24  O   UNL     1     110.481 129.663 137.633  0.00  0.00    +0.000 OA
BRANCH  24  25
ATOM     25  C   UNL     1     111.034 129.054 137.697  0.00  0.00    +0.000 A 
ATOM     26  C   UNL     1     111.836 129.212 137.583  0.00  0.00    +0.000 A 
ATOM     27  C   UNL     1     110.786 128.288 137.874  0.00  0.00    +0.000 A 
ATOM     28  C   UNL     1     112.141 127.837 137.824  0.00  0.00    +0.000 A 
ATOM     29  C   UNL     1     112.390 128.603 137.646  0.00  0.00    +0.000 A 
ATOM     30  C   UNL     1     111.340 127.679 137.938  0.00  0.00    +0.000 A 
BRANCH  28  34
ATOM     31  O   UNL     1     112.898 126.784 137.222  0.00  0.00    +0.000 OA
ATOM     32  O   UNL     1     113.947 126.290 139.408  0.00  0.00    +0.000 OA
ATOM     33  O   UNL     1     114.432 124.644 135.978  0.00  0.00    +0.000 OA
ATOM     34  C   UNL     1     112.694 127.228 137.887  0.00  0.00    +0.000 C 
ATOM     35  C   UNL     1     113.044 127.063 138.615  0.00  0.00    +0.000 C 
ATOM     36  C   UNL     1     113.597 126.454 138.679  0.00  0.00    +0.000 C 
ATOM     37  C   UNL     1     113.451 126.176 137.285  0.00  0.00    +0.000 A 
ATOM     38  C   UNL     1     113.801 126.011 138.014  0.00  0.00    +0.000 A 
ATOM     39  C   UNL     1     113.655 125.721 136.585  0.00  0.00    +0.000 A 
ATOM     40  C   UNL     1     114.379 125.379 138.093  0.00  0.00    +0.000 A 
ATOM     41  C   UNL     1     114.230 125.086 136.645  0.00  0.00    +0.000 A 
ATOM     42  C   UNL     1     114.595 124.914 137.404  0.00  0.00    +0.000 A 
ENDBRANCH  28  34
ENDBRANCH  24  25
ENDBRANCH   7  24
TORSDOF 9
ENDMDL
MODEL 9
REMARK VINA RESULT:      -9.0      4.440      7.187
REMARK  Name = 42607805
REMARK  9 active torsions:
REMARK  status: ('A' for Active; 'I' for Inactive)
REMARK    1  A    between atoms: O_1  and  C_16
REMARK    2  A    between atoms: O_1  and  C_18
REMARK    3  A    between atoms: O_4  and  C_15
REMARK    4  A    between atoms: O_4  and  C_26
REMARK    5  A    between atoms: O_7  and  C_22
REMARK    6  A    between atoms: O_7  and  C_27
REMARK    7  A    between atoms: C_15  and  C_24
REMARK    8  A    between atoms: C_23  and  C_25
REMARK    9  A    between atoms: C_31  and  C_32
REMARK                            x       y       z     vdW  Elec       q    Type
REMARK                         _______ _______ _______ _____ _____    ______ ____
ROOT
ATOM      1  O   UNL     1     106.668 128.507 143.744  0.00  0.00    +0.000 OA
ATOM      2  O   UNL     1     106.516 129.077 141.341  0.00  0.00    +0.000 OA
ATOM      3  O   UNL     1     107.878 129.449 142.192  0.00  0.00    +0.000 OA
ATOM      4  C   UNL     1     105.935 128.511 142.518  0.00  0.00    +0.000 C 
ATOM      5  C   UNL     1     106.567 128.887 142.142  0.00  0.00    +0.000 C 
ATOM      6  C   UNL     1     107.248 129.073 142.568  0.00  0.00    +0.000 C 
ATOM      7  C   UNL     1     105.986 128.321 143.319  0.00  0.00    +0.000 C 
ATOM      8  C   UNL     1     107.299 128.883 143.369  0.00  0.00    +0.000 C 
ENDROOT
BRANCH   8  10
ATOM      9  O   UNL     1     108.512 128.474 144.004  0.00  0.00    +0.000 OA
ATOM     10  C   UNL     1     107.980 129.069 143.794  0.00  0.00    +0.000 C 
ENDBRANCH   8  10
BRANCH   4  11
ATOM     11  O   UNL     1     105.254 128.325 142.092  0.00  0.00    +0.000 OA
BRANCH  11  16
ATOM     12  O   UNL     1     104.615 129.614 142.395  0.00  0.00    +0.000 OA
ATOM     13  O   UNL     1     103.799 128.169 141.051  0.00  0.00    +0.000 OA
ATOM     14  C   UNL     1     103.533 129.498 141.621  0.00  0.00    +0.000 C 
ATOM     15  C   UNL     1     103.985 128.813 141.533  0.00  0.00    +0.000 C 
ATOM     16  C   UNL     1     104.653 128.885 142.011  0.00  0.00    +0.000 C 
ATOM     17  C   UNL     1     103.923 129.993 142.154  0.00  0.00    +0.000 C 
BRANCH  14  19
ATOM     18  O   UNL     1     102.651 130.460 142.204  0.00  0.00    +0.000 OA
ATOM     19  C   UNL     1     102.932 130.058 141.540  0.00  0.00    +0.000 C 
ENDBRANCH  14  19
BRANCH  14  20
ATOM     20  O   UNL     1     102.977 129.200 141.089  0.00  0.00    +0.000 OA
BRANCH  20  22
ATOM     21  O   UNL     1     103.277 130.164 140.078  0.00  0.00    +0.000 OA
ATOM     22  C   UNL     1     102.741 129.653 140.442  0.00  0.00    +0.000 C 
ATOM     23  C   UNL     1     101.968 129.597 140.159  0.00  0.00    +0.000 C 
ENDBRANCH  20  22
ENDBRANCH  14  20
ENDBRANCH  11  16
ENDBRANCH   4  11
BRANCH   7  24
ATOM     24  O   UNL     1     105.356 127.945 143.694  0.00  0.00    +0.000 OA
BRANCH  24  25
ATOM     25  C   UNL     1     105.494 127.458 144.346  0.00  0.00    +0.000 A 
ATOM     26  C   UNL     1     105.731 126.675 144.234  0.00  0.00    +0.000 A 
ATOM     27  C   UNL     1     105.397 127.753 145.110  0.00  0.00    +0.000 A 
ATOM     28  C   UNL     1     105.772 126.485 145.649  0.00  0.00    +0.000 A 
ATOM     29  C   UNL     1     105.870 126.188 144.885  0.00  0.00    +0.000 A 
ATOM     30  C   UNL     1     105.536 127.267 145.761  0.00  0.00    +0.000 A 
BRANCH  28  34
ATOM     31  O   UNL     1     106.677 125.913 146.597  0.00  0.00    +0.000 OA
ATOM     32  O   UNL     1     104.796 124.710 147.665  0.00  0.00    +0.000 OA
ATOM     33  O   UNL     1     108.534 124.757 148.518  0.00  0.00    +0.000 OA
ATOM     34  C   UNL     1     105.911 125.998 146.301  0.00  0.00    +0.000 C 
ATOM     35  C   UNL     1     105.284 125.597 146.657  0.00  0.00    +0.000 C 
ATOM     36  C   UNL     1     105.423 125.111 147.309  0.00  0.00    +0.000 C 
ATOM     37  C   UNL     1     106.815 125.426 147.248  0.00  0.00    +0.000 A 
ATOM     38  C   UNL     1     106.188 125.025 147.604  0.00  0.00    +0.000 A 
ATOM     39  C   UNL     1     107.617 125.346 147.547  0.00  0.00    +0.000 A 
ATOM     40  C   UNL     1     106.320 124.515 148.284  0.00  0.00    +0.000 A 
ATOM     41  C   UNL     1     107.768 124.840 148.225  0.00  0.00    +0.000 A 
ATOM     42  C   UNL     1     107.115 124.422 148.596  0.00  0.00    +0.000 A 
ENDBRANCH  28  34
ENDBRANCH  24  25
ENDBRANCH   7  24
TORSDOF 9
ENDMDL
MODEL 10
REMARK VINA RESULT:      -9.0      5.229      7.716
REMARK  Name = 42607805
REMARK  9 active torsions:
REMARK  status: ('A' for Active; 'I' for Inactive)
REMARK    1  A    between atoms: O_1  and  C_16
REMARK    2  A    between atoms: O_1  and  C_18
REMARK    3  A    between atoms: O_4  and  C_15
REMARK    4  A    between atoms: O_4  and  C_26
REMARK    5  A    between atoms: O_7  and  C_22
REMARK    6  A    between atoms: O_7  and  C_27
REMARK    7  A    between atoms: C_15  and  C_24
REMARK    8  A    between atoms: C_23  and  C_25
REMARK    9  A    between atoms: C_31  and  C_32
REMARK                            x       y       z     vdW  Elec       q    Type
REMARK                         _______ _______ _______ _____ _____    ______ ____
ROOT
ATOM      1  O   UNL     1     110.235 127.692 140.847  0.00  0.00    +0.000 OA
ATOM      2  O   UNL     1     109.901 128.495 143.165  0.00  0.00    +0.000 OA
ATOM      3  O   UNL     1     108.728 127.604 142.423  0.00  0.00    +0.000 OA
ATOM      4  C   UNL     1     110.711 128.405 141.990  0.00  0.00    +0.000 C 
ATOM      5  C   UNL     1     110.012 128.227 142.392  0.00  0.00    +0.000 C 
ATOM      6  C   UNL     1     109.426 127.782 142.021  0.00  0.00    +0.000 C 
ATOM      7  C   UNL     1     110.822 128.138 141.218  0.00  0.00    +0.000 C 
ATOM      8  C   UNL     1     109.537 127.515 141.248  0.00  0.00    +0.000 C 
ENDROOT
BRANCH   8  10
ATOM      9  O   UNL     1     108.615 127.334 140.172  0.00  0.00    +0.000 OA
ATOM     10  C   UNL     1     108.950 127.070 140.878  0.00  0.00    +0.000 C 
ENDBRANCH   8  10
BRANCH   4  11
ATOM     11  O   UNL     1     111.298 128.851 142.361  0.00  0.00    +0.000 OA
BRANCH  11  16
ATOM     12  O   UNL     1     110.680 130.129 141.978  0.00  0.00    +0.000 OA
ATOM     13  O   UNL     1     112.413 129.969 143.214  0.00  0.00    +0.000 OA
ATOM     14  C   UNL     1     111.510 130.961 142.613  0.00  0.00    +0.000 C 
ATOM     15  C   UNL     1     111.762 130.188 142.757  0.00  0.00    +0.000 C 
ATOM     16  C   UNL     1     111.249 129.675 142.365  0.00  0.00    +0.000 C 
ATOM     17  C   UNL     1     110.840 130.923 142.130  0.00  0.00    +0.000 C 
BRANCH  14  19
ATOM     18  O   UNL     1     111.233 132.187 141.933  0.00  0.00    +0.000 OA
ATOM     19  C   UNL     1     111.461 131.784 142.616  0.00  0.00    +0.000 C 
ENDBRANCH  14  19
BRANCH  14  20
ATOM     20  O   UNL     1     112.131 131.250 143.072  0.00  0.00    +0.000 OA
BRANCH  20  22
ATOM     21  O   UNL     1     111.345 131.604 144.212  0.00  0.00    +0.000 OA
ATOM     22  C   UNL     1     111.975 131.759 143.701  0.00  0.00    +0.000 C 
ATOM     23  C   UNL     1     112.449 132.424 143.821  0.00  0.00    +0.000 C 
ENDBRANCH  20  22
ENDBRANCH  14  20
ENDBRANCH  11  16
ENDBRANCH   4  11
BRANCH   7  24
ATOM     24  O   UNL     1     111.520 128.316 140.816  0.00  0.00    +0.000 OA
BRANCH  24  25
ATOM     25  C   UNL     1     111.832 127.778 140.274  0.00  0.00    +0.000 A 
ATOM     26  C   UNL     1     112.206 127.092 140.540  0.00  0.00    +0.000 A 
ATOM     27  C   UNL     1     111.771 127.926 139.465  0.00  0.00    +0.000 A 
ATOM     28  C   UNL     1     112.456 126.704 139.188  0.00  0.00    +0.000 A 
ATOM     29  C   UNL     1     112.518 126.555 139.998  0.00  0.00    +0.000 A 
ATOM     30  C   UNL     1     112.083 127.389 138.922  0.00  0.00    +0.000 A 
BRANCH  28  34
ATOM     31  O   UNL     1     112.264 125.676 138.213  0.00  0.00    +0.000 OA
ATOM     32  O   UNL     1     114.713 125.533 137.882  0.00  0.00    +0.000 OA
ATOM     33  O   UNL     1     111.853 123.585 136.228  0.00  0.00    +0.000 OA
ATOM     34  C   UNL     1     112.768 126.166 138.646  0.00  0.00    +0.000 C 
ATOM     35  C   UNL     1     113.584 126.118 138.535  0.00  0.00    +0.000 C 
ATOM     36  C   UNL     1     113.896 125.581 137.992  0.00  0.00    +0.000 C 
ATOM     37  C   UNL     1     112.576 125.139 137.670  0.00  0.00    +0.000 A 
ATOM     38  C   UNL     1     113.392 125.092 137.560  0.00  0.00    +0.000 A 
ATOM     39  C   UNL     1     112.040 124.635 137.226  0.00  0.00    +0.000 A 
ATOM     40  C   UNL     1     113.730 124.536 136.997  0.00  0.00    +0.000 A 
ATOM     41  C   UNL     1     112.359 124.074 136.659  0.00  0.00    +0.000 A 
ATOM     42  C   UNL     1     113.209 124.023 136.544  0.00  0.00    +0.000 A 
ENDBRANCH  28  34
ENDBRANCH  24  25
ENDBRANCH   7  24
TORSDOF 9
ENDMDL
