MODEL 1
REMARK VINA RESULT:      -8.5      0.000      0.000
REMARK  Name = 14583401
REMARK  6 active torsions:
REMARK  status: ('A' for Active; 'I' for Inactive)
REMARK    1  A    between atoms: O_2  and  C_12
REMARK    2  A    between atoms: O_2  and  C_13
REMARK    3  A    between atoms: O_3  and  C_17
REMARK    4  A    between atoms: C_8  and  C_9
REMARK    5  A    between atoms: C_8  and  C_13
REMARK    6  A    between atoms: C_15  and  C_22
REMARK                            x       y       z     vdW  Elec       q    Type
REMARK                         _______ _______ _______ _____ _____    ______ ____
ROOT
ATOM      1  O   UNL     1     112.463 126.542 136.317  0.00  0.00    +0.000 OA
ATOM      2  O   UNL     1     109.939 125.735 135.164  0.00  0.00    +0.000 OA
ATOM      3  O   UNL     1     110.623 128.570 135.325  0.00  0.00    +0.000 OA
ATOM      4  O   UNL     1     110.876 124.759 135.665  0.00  0.00    +0.000 OA
ATOM      5  C   UNL     1     111.744 126.738 135.964  0.00  0.00    +0.000 A 
ATOM      6  C   UNL     1     111.215 126.144 135.746  0.00  0.00    +0.000 A 
ATOM      7  C   UNL     1     111.557 127.566 135.827  0.00  0.00    +0.000 A 
ATOM      8  C   UNL     1     112.653 125.750 136.453  0.00  0.00    +0.000 A 
ATOM      9  C   UNL     1     111.405 125.353 135.882  0.00  0.00    +0.000 A 
ATOM     10  C   UNL     1     112.124 125.156 136.235  0.00  0.00    +0.000 A 
ATOM     11  C   UNL     1     110.462 126.336 135.377  0.00  0.00    +0.000 A 
ATOM     12  C   UNL     1     110.810 127.777 135.460  0.00  0.00    +0.000 A 
ATOM     13  C   UNL     1     110.259 127.158 135.233  0.00  0.00    +0.000 A 
ENDROOT
BRANCH   8  14
ATOM     14  C   UNL     1     113.372 125.554 136.806  0.00  0.00    +0.000 A 
ATOM     15  C   UNL     1     113.448 125.580 137.628  0.00  0.00    +0.000 A 
ATOM     16  C   UNL     1     114.015 125.333 136.339  0.00  0.00    +0.000 A 
ATOM     17  C   UNL     1     114.167 125.384 137.981  0.00  0.00    +0.000 A 
ATOM     18  C   UNL     1     114.734 125.137 136.693  0.00  0.00    +0.000 A 
ATOM     19  C   UNL     1     114.810 125.163 137.514  0.00  0.00    +0.000 A 
ENDBRANCH   8  14
BRANCH  10  20
ATOM     20  O   UNL     1     112.314 124.365 136.371  0.00  0.00    +0.000 OA
ATOM     21  C   UNL     1     111.714 123.805 136.453  0.00  0.00    +0.000 C 
ENDBRANCH  10  20
BRANCH   7  22
ATOM     22  O   UNL     1     112.092 128.154 136.048  0.00  0.00    +0.000 OA
BRANCH  22  24
ATOM     23  O   UNL     1     112.314 128.490 134.677  0.00  0.00    +0.000 OA
ATOM     24  C   UNL     1     112.526 128.554 135.471  0.00  0.00    +0.000 C 
BRANCH  24  25
ATOM     25  C   UNL     1     113.172 129.018 135.689  0.00  0.00    +0.000 C 
ATOM     26  C   UNL     1     113.134 129.486 136.368  0.00  0.00    +0.000 C 
BRANCH  25  27
ATOM     27  C   UNL     1     113.857 129.015 135.229  0.00  0.00    +0.000 C 
ATOM     28  C   UNL     1     114.531 129.414 135.488  0.00  0.00    +0.000 C 
ENDBRANCH  25  27
ENDBRANCH  24  25
ENDBRANCH  22  24
ENDBRANCH   7  22
TORSDOF 6
ENDMDL
MODEL 2
REMARK VINA RESULT:      -8.0      0.790      3.508
REMARK  Name = 14583401
REMARK  6 active torsions:
REMARK  status: ('A' for Active; 'I' for Inactive)
REMARK    1  A    between atoms: O_2  and  C_12
REMARK    2  A    between atoms: O_2  and  C_13
REMARK    3  A    between atoms: O_3  and  C_17
REMARK    4  A    between atoms: C_8  and  C_9
REMARK    5  A    between atoms: C_8  and  C_13
REMARK    6  A    between atoms: C_15  and  C_22
REMARK                            x       y       z     vdW  Elec       q    Type
REMARK                         _______ _______ _______ _____ _____    ______ ____
ROOT
ATOM      1  O   UNL     1     112.207 127.272 135.834  0.00  0.00    +0.000 OA
ATOM      2  O   UNL     1     109.390 126.936 135.286  0.00  0.00    +0.000 OA
ATOM      3  O   UNL     1     111.061 124.595 135.795  0.00  0.00    +0.000 OA
ATOM      4  O   UNL     1     109.992 128.247 135.313  0.00  0.00    +0.000 OA
ATOM      5  C   UNL     1     111.552 126.780 135.737  0.00  0.00    +0.000 A 
ATOM      6  C   UNL     1     110.814 127.105 135.563  0.00  0.00    +0.000 A 
ATOM      7  C   UNL     1     111.651 125.930 135.818  0.00  0.00    +0.000 A 
ATOM      8  C   UNL     1     112.123 128.090 135.758  0.00  0.00    +0.000 A 
ATOM      9  C   UNL     1     110.730 127.922 135.487  0.00  0.00    +0.000 A 
ATOM     10  C   UNL     1     111.385 128.415 135.585  0.00  0.00    +0.000 A 
ATOM     11  C   UNL     1     110.124 126.602 135.459  0.00  0.00    +0.000 A 
ATOM     12  C   UNL     1     110.973 125.413 135.718  0.00  0.00    +0.000 A 
ATOM     13  C   UNL     1     110.205 125.751 135.537  0.00  0.00    +0.000 A 
ENDROOT
BRANCH   8  14
ATOM     14  C   UNL     1     112.778 128.582 135.856  0.00  0.00    +0.000 A 
ATOM     15  C   UNL     1     112.941 128.909 136.596  0.00  0.00    +0.000 A 
ATOM     16  C   UNL     1     113.270 128.746 135.215  0.00  0.00    +0.000 A 
ATOM     17  C   UNL     1     113.596 129.401 136.694  0.00  0.00    +0.000 A 
ATOM     18  C   UNL     1     113.925 129.238 135.314  0.00  0.00    +0.000 A 
ATOM     19  C   UNL     1     114.088 129.565 136.053  0.00  0.00    +0.000 A 
ENDBRANCH   8  14
BRANCH  10  20
ATOM     20  O   UNL     1     111.302 129.231 135.509  0.00  0.00    +0.000 OA
ATOM     21  C   UNL     1     110.652 129.544 135.108  0.00  0.00    +0.000 C 
ENDBRANCH  10  20
BRANCH   7  22
ATOM     22  O   UNL     1     112.394 125.614 135.992  0.00  0.00    +0.000 OA
BRANCH  22  24
ATOM     23  O   UNL     1     111.946 125.274 137.306  0.00  0.00    +0.000 OA
ATOM     24  C   UNL     1     112.553 125.329 136.750  0.00  0.00    +0.000 C 
BRANCH  24  25
ATOM     25  C   UNL     1     113.319 125.098 136.951  0.00  0.00    +0.000 C 
ATOM     26  C   UNL     1     113.742 124.593 136.453  0.00  0.00    +0.000 C 
BRANCH  25  27
ATOM     27  C   UNL     1     113.663 125.371 137.649  0.00  0.00    +0.000 C 
ATOM     28  C   UNL     1     114.474 125.285 137.771  0.00  0.00    +0.000 C 
ENDBRANCH  25  27
ENDBRANCH  24  25
ENDBRANCH  22  24
ENDBRANCH   7  22
TORSDOF 6
ENDMDL
MODEL 3
REMARK VINA RESULT:      -7.8      2.508      3.378
REMARK  Name = 14583401
REMARK  6 active torsions:
REMARK  status: ('A' for Active; 'I' for Inactive)
REMARK    1  A    between atoms: O_2  and  C_12
REMARK    2  A    between atoms: O_2  and  C_13
REMARK    3  A    between atoms: O_3  and  C_17
REMARK    4  A    between atoms: C_8  and  C_9
REMARK    5  A    between atoms: C_8  and  C_13
REMARK    6  A    between atoms: C_15  and  C_22
REMARK                            x       y       z     vdW  Elec       q    Type
REMARK                         _______ _______ _______ _____ _____    ______ ____
ROOT
ATOM      1  O   UNL     1     112.666 126.233 138.249  0.00  0.00    +0.000 OA
ATOM      2  O   UNL     1     109.797 125.896 138.187  0.00  0.00    +0.000 OA
ATOM      3  O   UNL     1     111.011 127.662 140.172  0.00  0.00    +0.000 OA
ATOM      4  O   UNL     1     110.648 125.204 137.251  0.00  0.00    +0.000 OA
ATOM      5  C   UNL     1     111.920 126.410 138.552  0.00  0.00    +0.000 A 
ATOM      6  C   UNL     1     111.247 126.067 138.219  0.00  0.00    +0.000 A 
ATOM      7  C   UNL     1     111.855 126.953 139.215  0.00  0.00    +0.000 A 
ATOM      8  C   UNL     1     112.740 125.712 137.612  0.00  0.00    +0.000 A 
ATOM      9  C   UNL     1     111.321 125.547 137.584  0.00  0.00    +0.000 A 
ATOM     10  C   UNL     1     112.067 125.369 137.280  0.00  0.00    +0.000 A 
ATOM     11  C   UNL     1     110.464 126.244 138.527  0.00  0.00    +0.000 A 
ATOM     12  C   UNL     1     111.081 127.141 139.535  0.00  0.00    +0.000 A 
ATOM     13  C   UNL     1     110.381 126.784 139.189  0.00  0.00    +0.000 A 
ENDROOT
BRANCH   8  14
ATOM     14  C   UNL     1     113.486 125.536 137.309  0.00  0.00    +0.000 A 
ATOM     15  C   UNL     1     113.808 126.002 136.709  0.00  0.00    +0.000 A 
ATOM     16  C   UNL     1     113.911 124.894 137.607  0.00  0.00    +0.000 A 
ATOM     17  C   UNL     1     114.555 125.825 136.406  0.00  0.00    +0.000 A 
ATOM     18  C   UNL     1     114.658 124.718 137.303  0.00  0.00    +0.000 A 
ATOM     19  C   UNL     1     114.980 125.183 136.703  0.00  0.00    +0.000 A 
ENDBRANCH   8  14
BRANCH  10  20
ATOM     20  O   UNL     1     112.141 124.850 136.644  0.00  0.00    +0.000 OA
ATOM     21  C   UNL     1     111.467 124.572 136.258  0.00  0.00    +0.000 C 
ENDBRANCH  10  20
BRANCH   7  22
ATOM     22  O   UNL     1     112.534 127.291 139.541  0.00  0.00    +0.000 OA
BRANCH  22  24
ATOM     23  O   UNL     1     112.399 126.456 140.693  0.00  0.00    +0.000 OA
ATOM     24  C   UNL     1     112.822 127.020 140.265  0.00  0.00    +0.000 C 
BRANCH  24  25
ATOM     25  C   UNL     1     113.534 127.314 140.561  0.00  0.00    +0.000 C 
ATOM     26  C   UNL     1     113.686 128.124 140.542  0.00  0.00    +0.000 C 
BRANCH  25  27
ATOM     27  C   UNL     1     114.094 126.796 140.877  0.00  0.00    +0.000 C 
ATOM     28  C   UNL     1     114.880 127.036 140.954  0.00  0.00    +0.000 C 
ENDBRANCH  25  27
ENDBRANCH  24  25
ENDBRANCH  22  24
ENDBRANCH   7  22
TORSDOF 6
ENDMDL
MODEL 4
REMARK VINA RESULT:      -7.8     13.476     14.510
REMARK  Name = 14583401
REMARK  6 active torsions:
REMARK  status: ('A' for Active; 'I' for Inactive)
REMARK    1  A    between atoms: O_2  and  C_12
REMARK    2  A    between atoms: O_2  and  C_13
REMARK    3  A    between atoms: O_3  and  C_17
REMARK    4  A    between atoms: C_8  and  C_9
REMARK    5  A    between atoms: C_8  and  C_13
REMARK    6  A    between atoms: C_15  and  C_22
REMARK                            x       y       z     vdW  Elec       q    Type
REMARK                         _______ _______ _______ _____ _____    ______ ____
ROOT
ATOM      1  O   UNL     1     103.885 124.230 147.142  0.00  0.00    +0.000 OA
ATOM      2  O   UNL     1     103.439 122.862 144.636  0.00  0.00    +0.000 OA
ATOM      3  O   UNL     1     101.416 122.740 146.740  0.00  0.00    +0.000 OA
ATOM      4  O   UNL     1     104.650 123.610 144.871  0.00  0.00    +0.000 OA
ATOM      5  C   UNL     1     103.409 123.760 146.660  0.00  0.00    +0.000 A 
ATOM      6  C   UNL     1     103.664 123.553 145.903  0.00  0.00    +0.000 A 
ATOM      7  C   UNL     1     102.649 123.492 146.958  0.00  0.00    +0.000 A 
ATOM      8  C   UNL     1     104.618 124.494 146.866  0.00  0.00    +0.000 A 
ATOM      9  C   UNL     1     104.395 123.817 145.628  0.00  0.00    +0.000 A 
ATOM     10  C   UNL     1     104.872 124.288 146.109  0.00  0.00    +0.000 A 
ATOM     11  C   UNL     1     103.176 123.064 145.392  0.00  0.00    +0.000 A 
ATOM     12  C   UNL     1     102.148 123.002 146.461  0.00  0.00    +0.000 A 
ATOM     13  C   UNL     1     102.413 122.786 145.673  0.00  0.00    +0.000 A 
ENDROOT
BRANCH   8  14
ATOM     14  C   UNL     1     105.094 124.965 147.348  0.00  0.00    +0.000 A 
ATOM     15  C   UNL     1     105.654 124.613 147.843  0.00  0.00    +0.000 A 
ATOM     16  C   UNL     1     105.012 125.785 147.336  0.00  0.00    +0.000 A 
ATOM     17  C   UNL     1     106.130 125.083 148.325  0.00  0.00    +0.000 A 
ATOM     18  C   UNL     1     105.489 126.255 147.818  0.00  0.00    +0.000 A 
ATOM     19  C   UNL     1     106.047 125.904 148.313  0.00  0.00    +0.000 A 
ENDBRANCH   8  14
BRANCH  10  20
ATOM     20  O   UNL     1     105.603 124.551 145.834  0.00  0.00    +0.000 OA
ATOM     21  C   UNL     1     105.720 124.675 145.027  0.00  0.00    +0.000 C 
ENDBRANCH  10  20
BRANCH   7  22
ATOM     22  O   UNL     1     102.402 123.703 147.716  0.00  0.00    +0.000 OA
BRANCH  22  24
ATOM     23  O   UNL     1     101.385 124.542 147.164  0.00  0.00    +0.000 OA
ATOM     24  C   UNL     1     101.818 124.278 147.815  0.00  0.00    +0.000 C 
BRANCH  24  25
ATOM     25  C   UNL     1     101.667 124.589 148.564  0.00  0.00    +0.000 C 
ATOM     26  C   UNL     1     101.659 124.092 149.222  0.00  0.00    +0.000 C 
BRANCH  25  27
ATOM     27  C   UNL     1     101.524 125.396 148.655  0.00  0.00    +0.000 C 
ATOM     28  C   UNL     1     101.533 125.735 149.407  0.00  0.00    +0.000 C 
ENDBRANCH  25  27
ENDBRANCH  24  25
ENDBRANCH  22  24
ENDBRANCH   7  22
TORSDOF 6
ENDMDL
MODEL 5
REMARK VINA RESULT:      -7.6      2.059      4.563
REMARK  Name = 14583401
REMARK  6 active torsions:
REMARK  status: ('A' for Active; 'I' for Inactive)
REMARK    1  A    between atoms: O_2  and  C_12
REMARK    2  A    between atoms: O_2  and  C_13
REMARK    3  A    between atoms: O_3  and  C_17
REMARK    4  A    between atoms: C_8  and  C_9
REMARK    5  A    between atoms: C_8  and  C_13
REMARK    6  A    between atoms: C_15  and  C_22
REMARK                            x       y       z     vdW  Elec       q    Type
REMARK                         _______ _______ _______ _____ _____    ______ ____
ROOT
ATOM      1  O   UNL     1     113.016 127.944 137.447  0.00  0.00    +0.000 OA
ATOM      2  O   UNL     1     112.335 128.898 140.089  0.00  0.00    +0.000 OA
ATOM      3  O   UNL     1     112.441 126.027 139.563  0.00  0.00    +0.000 OA
ATOM      4  O   UNL     1     112.626 129.818 139.017  0.00  0.00    +0.000 OA
ATOM      5  C   UNL     1     112.809 127.790 138.231  0.00  0.00    +0.000 A 
ATOM      6  C   UNL     1     112.679 128.415 138.754  0.00  0.00    +0.000 A 
ATOM      7  C   UNL     1     112.732 126.974 138.491  0.00  0.00    +0.000 A 
ATOM      8  C   UNL     1     113.093 128.724 137.187  0.00  0.00    +0.000 A 
ATOM      9  C   UNL     1     112.756 129.193 138.494  0.00  0.00    +0.000 A 
ATOM     10  C   UNL     1     112.963 129.348 137.710  0.00  0.00    +0.000 A 
ATOM     11  C   UNL     1     112.463 128.267 139.573  0.00  0.00    +0.000 A 
ATOM     12  C   UNL     1     112.517 126.808 139.305  0.00  0.00    +0.000 A 
ATOM     13  C   UNL     1     112.382 127.458 139.850  0.00  0.00    +0.000 A 
ENDROOT
BRANCH   8  14
ATOM     14  C   UNL     1     113.299 128.878 136.403  0.00  0.00    +0.000 A 
ATOM     15  C   UNL     1     114.092 128.988 136.200  0.00  0.00    +0.000 A 
ATOM     16  C   UNL     1     112.715 128.921 135.823  0.00  0.00    +0.000 A 
ATOM     17  C   UNL     1     114.299 129.141 135.417  0.00  0.00    +0.000 A 
ATOM     18  C   UNL     1     112.923 129.075 135.039  0.00  0.00    +0.000 A 
ATOM     19  C   UNL     1     113.714 129.185 134.836  0.00  0.00    +0.000 A 
ENDBRANCH   8  14
BRANCH  10  20
ATOM     20  O   UNL     1     113.040 130.127 137.450  0.00  0.00    +0.000 OA
ATOM     21  C   UNL     1     112.709 130.743 137.888  0.00  0.00    +0.000 C 
ENDBRANCH  10  20
BRANCH   7  22
ATOM     22  O   UNL     1     112.864 126.356 137.960  0.00  0.00    +0.000 OA
BRANCH  22  24
ATOM     23  O   UNL     1     114.037 125.972 138.680  0.00  0.00    +0.000 OA
ATOM     24  C   UNL     1     113.552 125.905 138.016  0.00  0.00    +0.000 C 
BRANCH  24  25
ATOM     25  C   UNL     1     113.755 125.386 137.408  0.00  0.00    +0.000 C 
ATOM     26  C   UNL     1     113.175 124.921 137.051  0.00  0.00    +0.000 C 
BRANCH  25  27
ATOM     27  C   UNL     1     114.540 125.332 137.157  0.00  0.00    +0.000 C 
ATOM     28  C   UNL     1     114.713 125.025 136.411  0.00  0.00    +0.000 C 
ENDBRANCH  25  27
ENDBRANCH  24  25
ENDBRANCH  22  24
ENDBRANCH   7  22
TORSDOF 6
ENDMDL
MODEL 6
REMARK VINA RESULT:      -7.6      1.728      3.131
REMARK  Name = 14583401
REMARK  6 active torsions:
REMARK  status: ('A' for Active; 'I' for Inactive)
REMARK    1  A    between atoms: O_2  and  C_12
REMARK    2  A    between atoms: O_2  and  C_13
REMARK    3  A    between atoms: O_3  and  C_17
REMARK    4  A    between atoms: C_8  and  C_9
REMARK    5  A    between atoms: C_8  and  C_13
REMARK    6  A    between atoms: C_15  and  C_22
REMARK                            x       y       z     vdW  Elec       q    Type
REMARK                         _______ _______ _______ _____ _____    ______ ____
ROOT
ATOM      1  O   UNL     1     112.454 126.920 137.111  0.00  0.00    +0.000 OA
ATOM      2  O   UNL     1     112.007 128.764 139.291  0.00  0.00    +0.000 OA
ATOM      3  O   UNL     1     110.459 129.023 136.828  0.00  0.00    +0.000 OA
ATOM      4  O   UNL     1     112.987 127.710 139.395  0.00  0.00    +0.000 OA
ATOM      5  C   UNL     1     112.055 127.569 137.427  0.00  0.00    +0.000 A 
ATOM      6  C   UNL     1     112.232 127.832 138.189  0.00  0.00    +0.000 A 
ATOM      7  C   UNL     1     111.455 127.963 136.953  0.00  0.00    +0.000 A 
ATOM      8  C   UNL     1     113.031 126.534 137.558  0.00  0.00    +0.000 A 
ATOM      9  C   UNL     1     112.809 127.447 138.634  0.00  0.00    +0.000 A 
ATOM     10  C   UNL     1     113.209 126.797 138.319  0.00  0.00    +0.000 A 
ATOM     11  C   UNL     1     111.823 128.508 138.529  0.00  0.00    +0.000 A 
ATOM     12  C   UNL     1     111.036 128.639 137.277  0.00  0.00    +0.000 A 
ATOM     13  C   UNL     1     111.221 128.913 138.069  0.00  0.00    +0.000 A 
ENDROOT
BRANCH   8  14
ATOM     14  C   UNL     1     113.430 125.885 137.241  0.00  0.00    +0.000 A 
ATOM     15  C   UNL     1     114.134 125.997 136.825  0.00  0.00    +0.000 A 
ATOM     16  C   UNL     1     113.126 125.124 137.341  0.00  0.00    +0.000 A 
ATOM     17  C   UNL     1     114.533 125.348 136.509  0.00  0.00    +0.000 A 
ATOM     18  C   UNL     1     113.527 124.476 137.024  0.00  0.00    +0.000 A 
ATOM     19  C   UNL     1     114.230 124.587 136.609  0.00  0.00    +0.000 A 
ENDBRANCH   8  14
BRANCH  10  20
ATOM     20  O   UNL     1     113.786 126.412 138.764  0.00  0.00    +0.000 OA
ATOM     21  C   UNL     1     113.862 126.574 139.569  0.00  0.00    +0.000 C 
ENDBRANCH  10  20
BRANCH   7  22
ATOM     22  O   UNL     1     111.284 127.692 136.193  0.00  0.00    +0.000 OA
BRANCH  22  24
ATOM     23  O   UNL     1     109.985 127.276 136.619  0.00  0.00    +0.000 OA
ATOM     24  C   UNL     1     110.580 127.287 136.048  0.00  0.00    +0.000 C 
BRANCH  24  25
ATOM     25  C   UNL     1     110.470 126.894 135.331  0.00  0.00    +0.000 C 
ATOM     26  C   UNL     1     110.685 127.259 134.623  0.00  0.00    +0.000 C 
BRANCH  25  27
ATOM     27  C   UNL     1     110.146 126.135 135.322  0.00  0.00    +0.000 C 
ATOM     28  C   UNL     1     110.093 125.718 134.612  0.00  0.00    +0.000 C 
ENDBRANCH  25  27
ENDBRANCH  24  25
ENDBRANCH  22  24
ENDBRANCH   7  22
TORSDOF 6
ENDMDL
MODEL 7
REMARK VINA RESULT:      -7.6     13.233     14.256
REMARK  Name = 14583401
REMARK  6 active torsions:
REMARK  status: ('A' for Active; 'I' for Inactive)
REMARK    1  A    between atoms: O_2  and  C_12
REMARK    2  A    between atoms: O_2  and  C_13
REMARK    3  A    between atoms: O_3  and  C_17
REMARK    4  A    between atoms: C_8  and  C_9
REMARK    5  A    between atoms: C_8  and  C_13
REMARK    6  A    between atoms: C_15  and  C_22
REMARK                            x       y       z     vdW  Elec       q    Type
REMARK                         _______ _______ _______ _____ _____    ______ ____
ROOT
ATOM      1  O   UNL     1     103.718 124.417 146.999  0.00  0.00    +0.000 OA
ATOM      2  O   UNL     1     104.180 123.309 144.371  0.00  0.00    +0.000 OA
ATOM      3  O   UNL     1     106.236 124.952 145.638  0.00  0.00    +0.000 OA
ATOM      4  O   UNL     1     102.945 123.066 145.075  0.00  0.00    +0.000 OA
ATOM      5  C   UNL     1     104.205 124.320 146.341  0.00  0.00    +0.000 A 
ATOM      6  C   UNL     1     103.948 123.870 145.699  0.00  0.00    +0.000 A 
ATOM      7  C   UNL     1     104.980 124.694 146.334  0.00  0.00    +0.000 A 
ATOM      8  C   UNL     1     102.973 124.063 147.016  0.00  0.00    +0.000 A 
ATOM      9  C   UNL     1     103.203 123.516 145.717  0.00  0.00    +0.000 A 
ATOM     10  C   UNL     1     102.715 123.613 146.375  0.00  0.00    +0.000 A 
ATOM     11  C   UNL     1     104.447 123.762 145.008  0.00  0.00    +0.000 A 
ATOM     12  C   UNL     1     105.492 124.597 145.652  0.00  0.00    +0.000 A 
ATOM     13  C   UNL     1     105.223 124.127 144.984  0.00  0.00    +0.000 A 
ENDROOT
BRANCH   8  14
ATOM     14  C   UNL     1     102.486 124.161 147.675  0.00  0.00    +0.000 A 
ATOM     15  C   UNL     1     102.503 123.605 148.286  0.00  0.00    +0.000 A 
ATOM     16  C   UNL     1     101.982 124.812 147.724  0.00  0.00    +0.000 A 
ATOM     17  C   UNL     1     102.016 123.702 148.944  0.00  0.00    +0.000 A 
ATOM     18  C   UNL     1     101.495 124.908 148.383  0.00  0.00    +0.000 A 
ATOM     19  C   UNL     1     101.512 124.354 148.993  0.00  0.00    +0.000 A 
ENDBRANCH   8  14
BRANCH  10  20
ATOM     20  O   UNL     1     101.970 123.259 146.392  0.00  0.00    +0.000 OA
ATOM     21  C   UNL     1     101.621 123.000 145.692  0.00  0.00    +0.000 C 
ENDBRANCH  10  20
BRANCH   7  22
ATOM     22  O   UNL     1     105.229 125.143 146.980  0.00  0.00    +0.000 OA
BRANCH  22  24
ATOM     23  O   UNL     1     106.178 124.132 147.325  0.00  0.00    +0.000 OA
ATOM     24  C   UNL     1     105.789 124.837 147.504  0.00  0.00    +0.000 C 
BRANCH  24  25
ATOM     25  C   UNL     1     105.960 125.236 148.205  0.00  0.00    +0.000 C 
ATOM     26  C   UNL     1     105.974 126.061 148.217  0.00  0.00    +0.000 C 
BRANCH  25  27
ATOM     27  C   UNL     1     106.116 124.811 148.894  0.00  0.00    +0.000 C 
ATOM     28  C   UNL     1     106.213 125.208 149.611  0.00  0.00    +0.000 C 
ENDBRANCH  25  27
ENDBRANCH  24  25
ENDBRANCH  22  24
ENDBRANCH   7  22
TORSDOF 6
ENDMDL
MODEL 8
REMARK VINA RESULT:      -7.5      1.839      4.189
REMARK  Name = 14583401
REMARK  6 active torsions:
REMARK  status: ('A' for Active; 'I' for Inactive)
REMARK    1  A    between atoms: O_2  and  C_12
REMARK    2  A    between atoms: O_2  and  C_13
REMARK    3  A    between atoms: O_3  and  C_17
REMARK    4  A    between atoms: C_8  and  C_9
REMARK    5  A    between atoms: C_8  and  C_13
REMARK    6  A    between atoms: C_15  and  C_22
REMARK                            x       y       z     vdW  Elec       q    Type
REMARK                         _______ _______ _______ _____ _____    ______ ____
ROOT
ATOM      1  O   UNL     1     112.429 127.326 137.077  0.00  0.00    +0.000 OA
ATOM      2  O   UNL     1     112.354 127.295 139.965  0.00  0.00    +0.000 OA
ATOM      3  O   UNL     1     111.212 125.069 138.458  0.00  0.00    +0.000 OA
ATOM      4  O   UNL     1     112.948 128.396 139.247  0.00  0.00    +0.000 OA
ATOM      5  C   UNL     1     112.218 126.953 137.782  0.00  0.00    +0.000 A 
ATOM      6  C   UNL     1     112.391 127.310 138.505  0.00  0.00    +0.000 A 
ATOM      7  C   UNL     1     111.819 126.193 137.749  0.00  0.00    +0.000 A 
ATOM      8  C   UNL     1     112.813 128.056 137.096  0.00  0.00    +0.000 A 
ATOM      9  C   UNL     1     112.775 128.039 138.524  0.00  0.00    +0.000 A 
ATOM     10  C   UNL     1     112.986 128.413 137.819  0.00  0.00    +0.000 A 
ATOM     11  C   UNL     1     112.177 126.931 139.246  0.00  0.00    +0.000 A 
ATOM     12  C   UNL     1     111.596 125.799 138.480  0.00  0.00    +0.000 A 
ATOM     13  C   UNL     1     111.777 126.171 139.233  0.00  0.00    +0.000 A 
ENDROOT
BRANCH   8  14
ATOM     14  C   UNL     1     113.024 128.429 136.390  0.00  0.00    +0.000 A 
ATOM     15  C   UNL     1     113.770 128.299 136.063  0.00  0.00    +0.000 A 
ATOM     16  C   UNL     1     112.489 128.931 136.013  0.00  0.00    +0.000 A 
ATOM     17  C   UNL     1     113.981 128.672 135.357  0.00  0.00    +0.000 A 
ATOM     18  C   UNL     1     112.701 129.304 135.308  0.00  0.00    +0.000 A 
ATOM     19  C   UNL     1     113.446 129.174 134.980  0.00  0.00    +0.000 A 
ENDBRANCH   8  14
BRANCH  10  20
ATOM     20  O   UNL     1     113.370 129.142 137.837  0.00  0.00    +0.000 OA
ATOM     21  C   UNL     1     113.366 129.593 138.528  0.00  0.00    +0.000 C 
ENDBRANCH  10  20
BRANCH   7  22
ATOM     22  O   UNL     1     111.650 125.844 137.021  0.00  0.00    +0.000 OA
BRANCH  22  24
ATOM     23  O   UNL     1     110.255 126.084 137.222  0.00  0.00    +0.000 OA
ATOM     24  C   UNL     1     110.875 125.839 136.736  0.00  0.00    +0.000 C 
BRANCH  24  25
ATOM     25  C   UNL     1     110.721 125.589 135.965  0.00  0.00    +0.000 C 
ATOM     26  C   UNL     1     111.122 124.939 135.654  0.00  0.00    +0.000 C 
BRANCH  25  27
ATOM     27  C   UNL     1     110.166 125.991 135.504  0.00  0.00    +0.000 C 
ATOM     28  C   UNL     1     110.109 125.832 134.697  0.00  0.00    +0.000 C 
ENDBRANCH  25  27
ENDBRANCH  24  25
ENDBRANCH  22  24
ENDBRANCH   7  22
TORSDOF 6
ENDMDL
