MODEL 1
REMARK VINA RESULT:      -9.2      0.000      0.000
REMARK  Name = 44258227
REMARK  9 active torsions:
REMARK  status: ('A' for Active; 'I' for Inactive)
REMARK    1  A    between atoms: O_3  and  C_19
REMARK    2  A    between atoms: O_3  and  C_21
REMARK    3  A    between atoms: O_6  and  C_20
REMARK    4  A    between atoms: O_6  and  C_24
REMARK    5  A    between atoms: O_13  and  C_38
REMARK    6  A    between atoms: C_17  and  C_20
REMARK    7  A    between atoms: C_24  and  C_28
REMARK    8  A    between atoms: C_28  and  C_33
REMARK    9  A    between atoms: C_30  and  C_32
REMARK                            x       y       z     vdW  Elec       q    Type
REMARK                         _______ _______ _______ _____ _____    ______ ____
ROOT
ATOM      1  O   UNL     1     111.797 127.010 135.956  0.00  0.00    +0.000 OA
ATOM      2  O   UNL     1     110.022 128.854 134.614  0.00  0.00    +0.000 OA
ATOM      3  O   UNL     1     109.544 127.585 135.107  0.00  0.00    +0.000 OA
ATOM      4  C   UNL     1     112.205 129.026 135.083  0.00  0.00    +0.000 A 
ATOM      5  C   UNL     1     112.331 128.274 135.479  0.00  0.00    +0.000 A 
ATOM      6  C   UNL     1     111.424 129.226 134.789  0.00  0.00    +0.000 A 
ATOM      7  C   UNL     1     111.672 127.731 135.575  0.00  0.00    +0.000 A 
ATOM      8  C   UNL     1     110.920 127.922 135.292  0.00  0.00    +0.000 A 
ATOM      9  C   UNL     1     110.777 128.670 134.894  0.00  0.00    +0.000 A 
ATOM     10  C   UNL     1     110.295 127.393 135.390  0.00  0.00    +0.000 A 
ATOM     11  C   UNL     1     111.172 126.481 136.054  0.00  0.00    +0.000 A 
ATOM     12  C   UNL     1     110.421 126.672 135.771  0.00  0.00    +0.000 A 
ENDROOT
BRANCH  11  14
ATOM     13  O   UNL     1     111.262 124.932 138.454  0.00  0.00    +0.000 OA
ATOM     14  C   UNL     1     111.298 125.760 136.434  0.00  0.00    +0.000 A 
ATOM     15  C   UNL     1     111.217 125.706 137.254  0.00  0.00    +0.000 A 
ATOM     16  C   UNL     1     111.504 125.092 135.996  0.00  0.00    +0.000 A 
ATOM     17  C   UNL     1     111.343 124.986 137.635  0.00  0.00    +0.000 A 
ATOM     18  C   UNL     1     111.630 124.371 136.377  0.00  0.00    +0.000 A 
ATOM     19  C   UNL     1     111.549 124.318 137.196  0.00  0.00    +0.000 A 
BRANCH  19  20
ATOM     20  O   UNL     1     111.675 123.597 137.577  0.00  0.00    +0.000 OA
ATOM     21  C   UNL     1     112.090 122.996 137.195  0.00  0.00    +0.000 C 
ENDBRANCH  19  20
ENDBRANCH  11  14
BRANCH   4  22
ATOM     22  O   UNL     1     112.832 129.554 134.987  0.00  0.00    +0.000 OA
BRANCH  22  31
ATOM     23  O   UNL     1     112.621 130.319 136.175  0.00  0.00    +0.000 OA
ATOM     24  O   UNL     1     114.041 131.177 137.594  0.00  0.00    +0.000 OA
ATOM     25  O   UNL     1     115.068 130.458 136.521  0.00  0.00    +0.000 OA
ATOM     26  O   UNL     1     114.464 129.647 135.217  0.00  0.00    +0.000 OA
ATOM     27  C   UNL     1     113.739 130.771 136.942  0.00  0.00    +0.000 C 
ATOM     28  C   UNL     1     114.252 130.412 136.405  0.00  0.00    +0.000 C 
ATOM     29  C   UNL     1     112.924 130.724 136.826  0.00  0.00    +0.000 C 
ATOM     30  C   UNL     1     113.951 130.006 135.753  0.00  0.00    +0.000 C 
ATOM     31  C   UNL     1     113.135 129.959 135.638  0.00  0.00    +0.000 C 
BRANCH  29  32
ATOM     32  C   UNL     1     112.409 131.083 137.363  0.00  0.00    +0.000 C 
BRANCH  32  33
ATOM     33  O   UNL     1     111.712 131.432 137.095  0.00  0.00    +0.000 OA
BRANCH  33  35
ATOM     34  O   UNL     1     111.108 131.500 138.389  0.00  0.00    +0.000 OA
ATOM     35  C   UNL     1     111.206 131.807 137.630  0.00  0.00    +0.000 C 
BRANCH  35  36
ATOM     36  C   UNL     1     110.799 132.488 137.404  0.00  0.00    +0.000 C 
BRANCH  36  39
ATOM     37  O   UNL     1     109.387 132.360 137.575  0.00  0.00    +0.000 OA
ATOM     38  O   UNL     1     110.129 133.255 138.406  0.00  0.00    +0.000 OA
ATOM     39  C   UNL     1     110.106 132.701 137.795  0.00  0.00    +0.000 C 
ENDBRANCH  36  39
ENDBRANCH  35  36
ENDBRANCH  33  35
ENDBRANCH  32  33
ENDBRANCH  29  32
ENDBRANCH  22  31
ENDBRANCH   4  22
TORSDOF 9
ENDMDL
MODEL 2
REMARK VINA RESULT:      -9.0      1.619      3.589
REMARK  Name = 44258227
REMARK  9 active torsions:
REMARK  status: ('A' for Active; 'I' for Inactive)
REMARK    1  A    between atoms: O_3  and  C_19
REMARK    2  A    between atoms: O_3  and  C_21
REMARK    3  A    between atoms: O_6  and  C_20
REMARK    4  A    between atoms: O_6  and  C_24
REMARK    5  A    between atoms: O_13  and  C_38
REMARK    6  A    between atoms: C_17  and  C_20
REMARK    7  A    between atoms: C_24  and  C_28
REMARK    8  A    between atoms: C_28  and  C_33
REMARK    9  A    between atoms: C_30  and  C_32
REMARK                            x       y       z     vdW  Elec       q    Type
REMARK                         _______ _______ _______ _____ _____    ______ ____
ROOT
ATOM      1  O   UNL     1     112.775 127.846 136.987  0.00  0.00    +0.000 OA
ATOM      2  O   UNL     1     113.918 130.096 135.578  0.00  0.00    +0.000 OA
ATOM      3  O   UNL     1     114.355 128.748 135.309  0.00  0.00    +0.000 OA
ATOM      4  C   UNL     1     112.332 130.029 137.159  0.00  0.00    +0.000 A 
ATOM      5  C   UNL     1     112.298 129.182 137.298  0.00  0.00    +0.000 A 
ATOM      6  C   UNL     1     112.880 130.342 136.577  0.00  0.00    +0.000 A 
ATOM      7  C   UNL     1     112.812 128.659 136.851  0.00  0.00    +0.000 A 
ATOM      8  C   UNL     1     113.339 128.959 136.291  0.00  0.00    +0.000 A 
ATOM      9  C   UNL     1     113.387 129.804 136.140  0.00  0.00    +0.000 A 
ATOM     10  C   UNL     1     113.829 128.447 135.868  0.00  0.00    +0.000 A 
ATOM     11  C   UNL     1     113.264 127.334 136.564  0.00  0.00    +0.000 A 
ATOM     12  C   UNL     1     113.791 127.635 136.005  0.00  0.00    +0.000 A 
ENDROOT
BRANCH  11  14
ATOM     13  O   UNL     1     114.384 124.961 137.698  0.00  0.00    +0.000 OA
ATOM     14  C   UNL     1     113.227 126.521 136.701  0.00  0.00    +0.000 A 
ATOM     15  C   UNL     1     113.824 126.147 137.131  0.00  0.00    +0.000 A 
ATOM     16  C   UNL     1     112.594 126.082 136.407  0.00  0.00    +0.000 A 
ATOM     17  C   UNL     1     113.787 125.335 137.268  0.00  0.00    +0.000 A 
ATOM     18  C   UNL     1     112.557 125.269 136.543  0.00  0.00    +0.000 A 
ATOM     19  C   UNL     1     113.154 124.896 136.974  0.00  0.00    +0.000 A 
BRANCH  19  20
ATOM     20  O   UNL     1     113.116 124.083 137.110  0.00  0.00    +0.000 OA
ATOM     21  C   UNL     1     112.431 123.664 136.922  0.00  0.00    +0.000 C 
ENDBRANCH  19  20
ENDBRANCH  11  14
BRANCH   4  22
ATOM     22  O   UNL     1     111.842 130.539 137.584  0.00  0.00    +0.000 OA
BRANCH  22  31
ATOM     23  O   UNL     1     110.623 130.315 136.872  0.00  0.00    +0.000 OA
ATOM     24  O   UNL     1     109.085 131.710 136.199  0.00  0.00    +0.000 OA
ATOM     25  O   UNL     1     110.144 132.743 136.930  0.00  0.00    +0.000 OA
ATOM     26  O   UNL     1     111.523 132.157 137.622  0.00  0.00    +0.000 OA
ATOM     27  C   UNL     1     109.774 131.418 136.546  0.00  0.00    +0.000 C 
ATOM     28  C   UNL     1     110.304 131.934 136.910  0.00  0.00    +0.000 C 
ATOM     29  C   UNL     1     109.934 130.609 136.527  0.00  0.00    +0.000 C 
ATOM     30  C   UNL     1     110.993 131.642 137.257  0.00  0.00    +0.000 C 
ATOM     31  C   UNL     1     111.153 130.832 137.238  0.00  0.00    +0.000 C 
BRANCH  29  32
ATOM     32  C   UNL     1     109.404 130.092 136.161  0.00  0.00    +0.000 C 
BRANCH  32  33
ATOM     33  O   UNL     1     109.299 129.330 136.460  0.00  0.00    +0.000 OA
BRANCH  33  35
ATOM     34  O   UNL     1     108.071 128.943 135.838  0.00  0.00    +0.000 OA
ATOM     35  C   UNL     1     108.855 128.778 136.036  0.00  0.00    +0.000 C 
BRANCH  35  36
ATOM     36  C   UNL     1     109.196 128.062 135.810  0.00  0.00    +0.000 C 
BRANCH  36  39
ATOM     37  O   UNL     1     108.387 126.904 135.599  0.00  0.00    +0.000 OA
ATOM     38  O   UNL     1     109.061 127.088 136.847  0.00  0.00    +0.000 OA
ATOM     39  C   UNL     1     108.882 127.351 136.086  0.00  0.00    +0.000 C 
ENDBRANCH  36  39
ENDBRANCH  35  36
ENDBRANCH  33  35
ENDBRANCH  32  33
ENDBRANCH  29  32
ENDBRANCH  22  31
ENDBRANCH   4  22
TORSDOF 9
ENDMDL
MODEL 3
REMARK VINA RESULT:      -8.9      1.820      5.443
REMARK  Name = 44258227
REMARK  9 active torsions:
REMARK  status: ('A' for Active; 'I' for Inactive)
REMARK    1  A    between atoms: O_3  and  C_19
REMARK    2  A    between atoms: O_3  and  C_21
REMARK    3  A    between atoms: O_6  and  C_20
REMARK    4  A    between atoms: O_6  and  C_24
REMARK    5  A    between atoms: O_13  and  C_38
REMARK    6  A    between atoms: C_17  and  C_20
REMARK    7  A    between atoms: C_24  and  C_28
REMARK    8  A    between atoms: C_28  and  C_33
REMARK    9  A    between atoms: C_30  and  C_32
REMARK                            x       y       z     vdW  Elec       q    Type
REMARK                         _______ _______ _______ _____ _____    ______ ____
ROOT
ATOM      1  O   UNL     1     112.498 129.637 137.251  0.00  0.00    +0.000 OA
ATOM      2  O   UNL     1     113.328 128.798 134.612  0.00  0.00    +0.000 OA
ATOM      3  O   UNL     1     114.253 128.799 135.720  0.00  0.00    +0.000 OA
ATOM      4  C   UNL     1     111.337 129.517 135.345  0.00  0.00    +0.000 A 
ATOM      5  C   UNL     1     111.526 129.656 136.172  0.00  0.00    +0.000 A 
ATOM      6  C   UNL     1     111.946 129.226 134.814  0.00  0.00    +0.000 A 
ATOM      7  C   UNL     1     112.322 129.502 136.456  0.00  0.00    +0.000 A 
ATOM      8  C   UNL     1     112.908 129.222 135.946  0.00  0.00    +0.000 A 
ATOM      9  C   UNL     1     112.736 129.078 135.116  0.00  0.00    +0.000 A 
ATOM     10  C   UNL     1     113.668 129.078 136.230  0.00  0.00    +0.000 A 
ATOM     11  C   UNL     1     113.259 129.492 137.535  0.00  0.00    +0.000 A 
ATOM     12  C   UNL     1     113.844 129.213 137.024  0.00  0.00    +0.000 A 
ENDROOT
BRANCH  11  14
ATOM     13  O   UNL     1     114.455 131.110 139.564  0.00  0.00    +0.000 OA
ATOM     14  C   UNL     1     113.435 129.627 138.330  0.00  0.00    +0.000 A 
ATOM     15  C   UNL     1     113.857 130.301 138.550  0.00  0.00    +0.000 A 
ATOM     16  C   UNL     1     113.189 129.088 138.904  0.00  0.00    +0.000 A 
ATOM     17  C   UNL     1     114.033 130.436 139.344  0.00  0.00    +0.000 A 
ATOM     18  C   UNL     1     113.365 129.223 139.699  0.00  0.00    +0.000 A 
ATOM     19  C   UNL     1     113.787 129.898 139.918  0.00  0.00    +0.000 A 
BRANCH  19  20
ATOM     20  O   UNL     1     113.963 130.033 140.713  0.00  0.00    +0.000 OA
ATOM     21  C   UNL     1     113.515 129.669 141.302  0.00  0.00    +0.000 C 
ENDBRANCH  19  20
ENDBRANCH  11  14
BRANCH   4  22
ATOM     22  O   UNL     1     110.575 129.662 135.063  0.00  0.00    +0.000 OA
BRANCH  22  31
ATOM     23  O   UNL     1     110.043 128.354 135.281  0.00  0.00    +0.000 OA
ATOM     24  O   UNL     1     108.078 127.708 135.977  0.00  0.00    +0.000 OA
ATOM     25  O   UNL     1     107.893 129.347 135.999  0.00  0.00    +0.000 OA
ATOM     26  O   UNL     1     109.142 130.324 135.542  0.00  0.00    +0.000 OA
ATOM     27  C   UNL     1     108.702 128.197 135.749  0.00  0.00    +0.000 C 
ATOM     28  C   UNL     1     108.610 129.016 135.760  0.00  0.00    +0.000 C 
ATOM     29  C   UNL     1     109.418 127.866 135.509  0.00  0.00    +0.000 C 
ATOM     30  C   UNL     1     109.234 129.505 135.531  0.00  0.00    +0.000 C 
ATOM     31  C   UNL     1     109.951 129.174 135.292  0.00  0.00    +0.000 C 
BRANCH  29  32
ATOM     32  C   UNL     1     109.511 127.045 135.498  0.00  0.00    +0.000 C 
BRANCH  32  33
ATOM     33  O   UNL     1     110.236 126.710 135.704  0.00  0.00    +0.000 OA
BRANCH  33  35
ATOM     34  O   UNL     1     110.066 125.489 134.980  0.00  0.00    +0.000 OA
ATOM     35  C   UNL     1     110.344 125.894 135.643  0.00  0.00    +0.000 C 
BRANCH  35  36
ATOM     36  C   UNL     1     110.731 125.484 136.245  0.00  0.00    +0.000 C 
BRANCH  36  39
ATOM     37  O   UNL     1     112.133 125.557 135.977  0.00  0.00    +0.000 OA
ATOM     38  O   UNL     1     111.485 124.285 136.052  0.00  0.00    +0.000 OA
ATOM     39  C   UNL     1     111.449 125.108 136.091  0.00  0.00    +0.000 C 
ENDBRANCH  36  39
ENDBRANCH  35  36
ENDBRANCH  33  35
ENDBRANCH  32  33
ENDBRANCH  29  32
ENDBRANCH  22  31
ENDBRANCH   4  22
TORSDOF 9
ENDMDL
MODEL 4
REMARK VINA RESULT:      -8.9      1.446      2.970
REMARK  Name = 44258227
REMARK  9 active torsions:
REMARK  status: ('A' for Active; 'I' for Inactive)
REMARK    1  A    between atoms: O_3  and  C_19
REMARK    2  A    between atoms: O_3  and  C_21
REMARK    3  A    between atoms: O_6  and  C_20
REMARK    4  A    between atoms: O_6  and  C_24
REMARK    5  A    between atoms: O_13  and  C_38
REMARK    6  A    between atoms: C_17  and  C_20
REMARK    7  A    between atoms: C_24  and  C_28
REMARK    8  A    between atoms: C_28  and  C_33
REMARK    9  A    between atoms: C_30  and  C_32
REMARK                            x       y       z     vdW  Elec       q    Type
REMARK                         _______ _______ _______ _____ _____    ______ ____
ROOT
ATOM      1  O   UNL     1     111.598 127.206 136.166  0.00  0.00    +0.000 OA
ATOM      2  O   UNL     1     113.458 129.362 135.672  0.00  0.00    +0.000 OA
ATOM      3  O   UNL     1     113.905 128.102 136.212  0.00  0.00    +0.000 OA
ATOM      4  C   UNL     1     111.244 129.256 135.349  0.00  0.00    +0.000 A 
ATOM      5  C   UNL     1     111.094 128.454 135.621  0.00  0.00    +0.000 A 
ATOM      6  C   UNL     1     112.044 129.566 135.365  0.00  0.00    +0.000 A 
ATOM      7  C   UNL     1     111.747 127.975 135.906  0.00  0.00    +0.000 A 
ATOM      8  C   UNL     1     112.517 128.273 135.921  0.00  0.00    +0.000 A 
ATOM      9  C   UNL     1     112.685 129.072 135.653  0.00  0.00    +0.000 A 
ATOM     10  C   UNL     1     113.136 127.803 136.197  0.00  0.00    +0.000 A 
ATOM     11  C   UNL     1     112.217 126.736 136.441  0.00  0.00    +0.000 A 
ATOM     12  C   UNL     1     112.986 127.035 136.456  0.00  0.00    +0.000 A 
ENDROOT
BRANCH  11  14
ATOM     13  O   UNL     1     111.216 124.949 138.434  0.00  0.00    +0.000 OA
ATOM     14  C   UNL     1     112.068 125.968 136.701  0.00  0.00    +0.000 A 
ATOM     15  C   UNL     1     111.717 125.842 137.437  0.00  0.00    +0.000 A 
ATOM     16  C   UNL     1     112.270 125.325 136.226  0.00  0.00    +0.000 A 
ATOM     17  C   UNL     1     111.567 125.074 137.698  0.00  0.00    +0.000 A 
ATOM     18  C   UNL     1     112.121 124.556 136.486  0.00  0.00    +0.000 A 
ATOM     19  C   UNL     1     111.769 124.431 137.222  0.00  0.00    +0.000 A 
BRANCH  19  20
ATOM     20  O   UNL     1     111.620 123.663 137.483  0.00  0.00    +0.000 OA
ATOM     21  C   UNL     1     111.969 123.022 137.098  0.00  0.00    +0.000 C 
ENDBRANCH  19  20
ENDBRANCH  11  14
BRANCH   4  22
ATOM     22  O   UNL     1     110.622 129.724 135.074  0.00  0.00    +0.000 OA
BRANCH  22  31
ATOM     23  O   UNL     1     110.285 130.284 136.344  0.00  0.00    +0.000 OA
ATOM     24  O   UNL     1     108.354 130.862 137.184  0.00  0.00    +0.000 OA
ATOM     25  O   UNL     1     107.896 130.310 135.698  0.00  0.00    +0.000 OA
ATOM     26  O   UNL     1     109.029 129.741 134.643  0.00  0.00    +0.000 OA
ATOM     27  C   UNL     1     108.921 130.577 136.656  0.00  0.00    +0.000 C 
ATOM     28  C   UNL     1     108.692 130.301 135.913  0.00  0.00    +0.000 C 
ATOM     29  C   UNL     1     109.717 130.569 136.871  0.00  0.00    +0.000 C 
ATOM     30  C   UNL     1     109.258 130.016 135.385  0.00  0.00    +0.000 C 
ATOM     31  C   UNL     1     110.055 130.008 135.601  0.00  0.00    +0.000 C 
BRANCH  29  32
ATOM     32  C   UNL     1     109.947 130.845 137.615  0.00  0.00    +0.000 C 
BRANCH  32  33
ATOM     33  O   UNL     1     110.747 130.867 137.816  0.00  0.00    +0.000 OA
BRANCH  33  35
ATOM     34  O   UNL     1     110.761 131.690 138.985  0.00  0.00    +0.000 OA
ATOM     35  C   UNL     1     110.970 130.990 138.602  0.00  0.00    +0.000 C 
BRANCH  35  36
ATOM     36  C   UNL     1     111.403 130.413 139.002  0.00  0.00    +0.000 C 
BRANCH  36  39
ATOM     37  O   UNL     1     112.795 130.691 138.839  0.00  0.00    +0.000 OA
ATOM     38  O   UNL     1     112.211 130.702 140.144  0.00  0.00    +0.000 OA
ATOM     39  C   UNL     1     112.136 130.602 139.329  0.00  0.00    +0.000 C 
ENDBRANCH  36  39
ENDBRANCH  35  36
ENDBRANCH  33  35
ENDBRANCH  32  33
ENDBRANCH  29  32
ENDBRANCH  22  31
ENDBRANCH   4  22
TORSDOF 9
ENDMDL
MODEL 5
REMARK VINA RESULT:      -8.8      1.931      2.837
REMARK  Name = 44258227
REMARK  9 active torsions:
REMARK  status: ('A' for Active; 'I' for Inactive)
REMARK    1  A    between atoms: O_3  and  C_19
REMARK    2  A    between atoms: O_3  and  C_21
REMARK    3  A    between atoms: O_6  and  C_20
REMARK    4  A    between atoms: O_6  and  C_24
REMARK    5  A    between atoms: O_13  and  C_38
REMARK    6  A    between atoms: C_17  and  C_20
REMARK    7  A    between atoms: C_24  and  C_28
REMARK    8  A    between atoms: C_28  and  C_33
REMARK    9  A    between atoms: C_30  and  C_32
REMARK                            x       y       z     vdW  Elec       q    Type
REMARK                         _______ _______ _______ _____ _____    ______ ____
ROOT
ATOM      1  O   UNL     1     110.513 127.524 136.366  0.00  0.00    +0.000 OA
ATOM      2  O   UNL     1     107.982 128.788 135.779  0.00  0.00    +0.000 OA
ATOM      3  O   UNL     1     108.060 127.376 136.066  0.00  0.00    +0.000 OA
ATOM      4  C   UNL     1     110.044 129.655 135.886  0.00  0.00    +0.000 A 
ATOM      5  C   UNL     1     110.491 128.948 136.085  0.00  0.00    +0.000 A 
ATOM      6  C   UNL     1     109.194 129.604 135.782  0.00  0.00    +0.000 A 
ATOM      7  C   UNL     1     110.079 128.199 136.176  0.00  0.00    +0.000 A 
ATOM      8  C   UNL     1     109.262 128.150 136.076  0.00  0.00    +0.000 A 
ATOM      9  C   UNL     1     108.800 128.847 135.877  0.00  0.00    +0.000 A 
ATOM     10  C   UNL     1     108.878 127.425 136.166  0.00  0.00    +0.000 A 
ATOM     11  C   UNL     1     110.129 126.799 136.457  0.00  0.00    +0.000 A 
ATOM     12  C   UNL     1     109.311 126.750 136.356  0.00  0.00    +0.000 A 
ENDROOT
BRANCH  11  14
ATOM     13  O   UNL     1     111.228 125.035 138.419  0.00  0.00    +0.000 OA
ATOM     14  C   UNL     1     110.562 126.123 136.647  0.00  0.00    +0.000 A 
ATOM     15  C   UNL     1     110.678 125.917 137.437  0.00  0.00    +0.000 A 
ATOM     16  C   UNL     1     110.879 125.654 136.047  0.00  0.00    +0.000 A 
ATOM     17  C   UNL     1     111.111 125.242 137.629  0.00  0.00    +0.000 A 
ATOM     18  C   UNL     1     111.312 124.978 136.238  0.00  0.00    +0.000 A 
ATOM     19  C   UNL     1     111.428 124.772 137.029  0.00  0.00    +0.000 A 
BRANCH  19  20
ATOM     20  O   UNL     1     111.862 124.096 137.219  0.00  0.00    +0.000 OA
ATOM     21  C   UNL     1     112.384 123.772 136.669  0.00  0.00    +0.000 C 
ENDBRANCH  19  20
ENDBRANCH  11  14
BRANCH   4  22
ATOM     22  O   UNL     1     110.431 130.378 135.797  0.00  0.00    +0.000 OA
BRANCH  22  31
ATOM     23  O   UNL     1     110.744 130.687 137.156  0.00  0.00    +0.000 OA
ATOM     24  O   UNL     1     110.501 132.534 138.295  0.00  0.00    +0.000 OA
ATOM     25  O   UNL     1     109.909 132.993 136.824  0.00  0.00    +0.000 OA
ATOM     26  O   UNL     1     109.874 131.916 135.575  0.00  0.00    +0.000 OA
ATOM     27  C   UNL     1     110.483 131.995 137.670  0.00  0.00    +0.000 C 
ATOM     28  C   UNL     1     110.187 132.225 136.935  0.00  0.00    +0.000 C 
ATOM     29  C   UNL     1     110.761 131.226 137.780  0.00  0.00    +0.000 C 
ATOM     30  C   UNL     1     110.170 131.686 136.310  0.00  0.00    +0.000 C 
ATOM     31  C   UNL     1     110.448 130.917 136.421  0.00  0.00    +0.000 C 
BRANCH  29  32
ATOM     32  C   UNL     1     111.057 130.996 138.516  0.00  0.00    +0.000 C 
BRANCH  32  33
ATOM     33  O   UNL     1     111.554 130.341 138.573  0.00  0.00    +0.000 OA
BRANCH  33  35
ATOM     34  O   UNL     1     112.235 130.580 139.807  0.00  0.00    +0.000 OA
ATOM     35  C   UNL     1     111.806 130.077 139.314  0.00  0.00    +0.000 C 
BRANCH  35  36
ATOM     36  C   UNL     1     111.627 129.310 139.560  0.00  0.00    +0.000 C 
BRANCH  36  39
ATOM     37  O   UNL     1     112.517 128.299 139.083  0.00  0.00    +0.000 OA
ATOM     38  O   UNL     1     112.561 128.702 140.454  0.00  0.00    +0.000 OA
ATOM     39  C   UNL     1     112.235 128.771 139.699  0.00  0.00    +0.000 C 
ENDBRANCH  36  39
ENDBRANCH  35  36
ENDBRANCH  33  35
ENDBRANCH  32  33
ENDBRANCH  29  32
ENDBRANCH  22  31
ENDBRANCH   4  22
TORSDOF 9
ENDMDL
MODEL 6
REMARK VINA RESULT:      -8.8      1.811      2.443
REMARK  Name = 44258227
REMARK  9 active torsions:
REMARK  status: ('A' for Active; 'I' for Inactive)
REMARK    1  A    between atoms: O_3  and  C_19
REMARK    2  A    between atoms: O_3  and  C_21
REMARK    3  A    between atoms: O_6  and  C_20
REMARK    4  A    between atoms: O_6  and  C_24
REMARK    5  A    between atoms: O_13  and  C_38
REMARK    6  A    between atoms: C_17  and  C_20
REMARK    7  A    between atoms: C_24  and  C_28
REMARK    8  A    between atoms: C_28  and  C_33
REMARK    9  A    between atoms: C_30  and  C_32
REMARK                            x       y       z     vdW  Elec       q    Type
REMARK                         _______ _______ _______ _____ _____    ______ ____
ROOT
ATOM      1  O   UNL     1     110.545 127.348 136.459  0.00  0.00    +0.000 OA
ATOM      2  O   UNL     1     108.038 128.592 135.738  0.00  0.00    +0.000 OA
ATOM      3  O   UNL     1     108.119 127.175 135.998  0.00  0.00    +0.000 OA
ATOM      4  C   UNL     1     110.076 129.484 135.997  0.00  0.00    +0.000 A 
ATOM      5  C   UNL     1     110.520 128.778 136.208  0.00  0.00    +0.000 A 
ATOM      6  C   UNL     1     109.235 129.424 135.837  0.00  0.00    +0.000 A 
ATOM      7  C   UNL     1     110.115 128.022 136.256  0.00  0.00    +0.000 A 
ATOM      8  C   UNL     1     109.306 127.964 136.102  0.00  0.00    +0.000 A 
ATOM      9  C   UNL     1     108.847 128.659 135.890  0.00  0.00    +0.000 A 
ATOM     10  C   UNL     1     108.927 127.233 136.152  0.00  0.00    +0.000 A 
ATOM     11  C   UNL     1     110.166 126.617 136.508  0.00  0.00    +0.000 A 
ATOM     12  C   UNL     1     109.358 126.559 136.354  0.00  0.00    +0.000 A 
ENDROOT
BRANCH  11  14
ATOM     13  O   UNL     1     111.259 124.886 138.502  0.00  0.00    +0.000 OA
ATOM     14  C   UNL     1     110.597 125.942 136.711  0.00  0.00    +0.000 A 
ATOM     15  C   UNL     1     110.713 125.751 137.505  0.00  0.00    +0.000 A 
ATOM     16  C   UNL     1     110.910 125.460 136.120  0.00  0.00    +0.000 A 
ATOM     17  C   UNL     1     111.143 125.077 137.709  0.00  0.00    +0.000 A 
ATOM     18  C   UNL     1     111.341 124.786 136.323  0.00  0.00    +0.000 A 
ATOM     19  C   UNL     1     111.457 124.595 137.117  0.00  0.00    +0.000 A 
BRANCH  19  20
ATOM     20  O   UNL     1     111.887 123.921 137.320  0.00  0.00    +0.000 OA
ATOM     21  C   UNL     1     112.291 123.498 136.738  0.00  0.00    +0.000 C 
ENDBRANCH  19  20
ENDBRANCH  11  14
BRANCH   4  22
ATOM     22  O   UNL     1     110.457 130.214 135.949  0.00  0.00    +0.000 OA
BRANCH  22  31
ATOM     23  O   UNL     1     110.117 130.767 137.221  0.00  0.00    +0.000 OA
ATOM     24  O   UNL     1     111.341 131.801 138.704  0.00  0.00    +0.000 OA
ATOM     25  O   UNL     1     112.464 131.488 137.536  0.00  0.00    +0.000 OA
ATOM     26  O   UNL     1     112.022 130.694 136.158  0.00  0.00    +0.000 OA
ATOM     27  C   UNL     1     111.121 131.404 138.015  0.00  0.00    +0.000 C 
ATOM     28  C   UNL     1     111.682 131.248 137.431  0.00  0.00    +0.000 C 
ATOM     29  C   UNL     1     110.339 131.164 137.910  0.00  0.00    +0.000 C 
ATOM     30  C   UNL     1     111.461 130.851 136.742  0.00  0.00    +0.000 C 
ATOM     31  C   UNL     1     110.679 130.611 136.637  0.00  0.00    +0.000 C 
BRANCH  29  32
ATOM     32  C   UNL     1     109.777 131.321 138.494  0.00  0.00    +0.000 C 
BRANCH  32  33
ATOM     33  O   UNL     1     109.359 130.699 138.841  0.00  0.00    +0.000 OA
BRANCH  33  35
ATOM     34  O   UNL     1     108.130 131.328 139.213  0.00  0.00    +0.000 OA
ATOM     35  C   UNL     1     108.780 130.858 139.408  0.00  0.00    +0.000 C 
BRANCH  35  36
ATOM     36  C   UNL     1     108.852 130.546 140.168  0.00  0.00    +0.000 C 
BRANCH  36  39
ATOM     37  O   UNL     1     108.010 131.097 141.183  0.00  0.00    +0.000 OA
ATOM     38  O   UNL     1     107.700 129.825 140.610  0.00  0.00    +0.000 OA
ATOM     39  C   UNL     1     108.187 130.489 140.653  0.00  0.00    +0.000 C 
ENDBRANCH  36  39
ENDBRANCH  35  36
ENDBRANCH  33  35
ENDBRANCH  32  33
ENDBRANCH  29  32
ENDBRANCH  22  31
ENDBRANCH   4  22
TORSDOF 9
ENDMDL
MODEL 7
REMARK VINA RESULT:      -8.8     10.427     12.697
REMARK  Name = 44258227
REMARK  9 active torsions:
REMARK  status: ('A' for Active; 'I' for Inactive)
REMARK    1  A    between atoms: O_3  and  C_19
REMARK    2  A    between atoms: O_3  and  C_21
REMARK    3  A    between atoms: O_6  and  C_20
REMARK    4  A    between atoms: O_6  and  C_24
REMARK    5  A    between atoms: O_13  and  C_38
REMARK    6  A    between atoms: C_17  and  C_20
REMARK    7  A    between atoms: C_24  and  C_28
REMARK    8  A    between atoms: C_28  and  C_33
REMARK    9  A    between atoms: C_30  and  C_32
REMARK                            x       y       z     vdW  Elec       q    Type
REMARK                         _______ _______ _______ _____ _____    ______ ____
ROOT
ATOM      1  O   UNL     1     105.384 126.514 144.156  0.00  0.00    +0.000 OA
ATOM      2  O   UNL     1     107.340 126.564 146.283  0.00  0.00    +0.000 OA
ATOM      3  O   UNL     1     107.302 127.602 145.281  0.00  0.00    +0.000 OA
ATOM      4  C   UNL     1     105.715 125.086 145.843  0.00  0.00    +0.000 A 
ATOM      5  C   UNL     1     105.378 125.444 145.138  0.00  0.00    +0.000 A 
ATOM      6  C   UNL     1     106.380 125.464 146.233  0.00  0.00    +0.000 A 
ATOM      7  C   UNL     1     105.711 126.175 144.833  0.00  0.00    +0.000 A 
ATOM      8  C   UNL     1     106.351 126.538 145.208  0.00  0.00    +0.000 A 
ATOM      9  C   UNL     1     106.700 126.194 145.914  0.00  0.00    +0.000 A 
ATOM     10  C   UNL     1     106.663 127.239 144.906  0.00  0.00    +0.000 A 
ATOM     11  C   UNL     1     105.696 127.215 143.854  0.00  0.00    +0.000 A 
ATOM     12  C   UNL     1     106.335 127.578 144.229  0.00  0.00    +0.000 A 
ENDROOT
BRANCH  11  14
ATOM     13  O   UNL     1     105.258 127.174 141.030  0.00  0.00    +0.000 OA
ATOM     14  C   UNL     1     105.368 127.554 143.177  0.00  0.00    +0.000 A 
ATOM     15  C   UNL     1     105.477 127.195 142.442  0.00  0.00    +0.000 A 
ATOM     16  C   UNL     1     104.933 128.252 143.234  0.00  0.00    +0.000 A 
ATOM     17  C   UNL     1     105.150 127.533 141.765  0.00  0.00    +0.000 A 
ATOM     18  C   UNL     1     104.605 128.591 142.557  0.00  0.00    +0.000 A 
ATOM     19  C   UNL     1     104.714 128.232 141.822  0.00  0.00    +0.000 A 
BRANCH  19  20
ATOM     20  O   UNL     1     104.387 128.571 141.145  0.00  0.00    +0.000 OA
ATOM     21  C   UNL     1     103.752 129.093 141.211  0.00  0.00    +0.000 C 
ENDBRANCH  19  20
ENDBRANCH  11  14
BRANCH   4  22
ATOM     22  O   UNL     1     105.401 124.385 146.143  0.00  0.00    +0.000 OA
BRANCH  22  31
ATOM     23  O   UNL     1     104.491 124.978 147.071  0.00  0.00    +0.000 OA
ATOM     24  O   UNL     1     102.468 124.402 147.655  0.00  0.00    +0.000 OA
ATOM     25  O   UNL     1     102.822 123.224 146.555  0.00  0.00    +0.000 OA
ATOM     26  O   UNL     1     104.289 123.216 145.799  0.00  0.00    +0.000 OA
ATOM     27  C   UNL     1     103.201 124.397 147.277  0.00  0.00    +0.000 C 
ATOM     28  C   UNL     1     103.379 123.809 146.727  0.00  0.00    +0.000 C 
ATOM     29  C   UNL     1     103.758 124.981 147.449  0.00  0.00    +0.000 C 
ATOM     30  C   UNL     1     104.112 123.804 146.348  0.00  0.00    +0.000 C 
ATOM     31  C   UNL     1     104.668 124.389 146.521  0.00  0.00    +0.000 C 
BRANCH  29  32
ATOM     32  C   UNL     1     103.581 125.571 147.999  0.00  0.00    +0.000 C 
BRANCH  32  33
ATOM     33  O   UNL     1     104.045 126.251 148.038  0.00  0.00    +0.000 OA
BRANCH  33  35
ATOM     34  O   UNL     1     103.688 126.691 149.350  0.00  0.00    +0.000 OA
ATOM     35  C   UNL     1     103.842 126.860 148.557  0.00  0.00    +0.000 C 
BRANCH  35  36
ATOM     36  C   UNL     1     103.793 127.637 148.283  0.00  0.00    +0.000 C 
BRANCH  36  39
ATOM     37  O   UNL     1     104.120 128.695 149.186  0.00  0.00    +0.000 OA
ATOM     38  O   UNL     1     105.068 128.278 148.200  0.00  0.00    +0.000 OA
ATOM     39  C   UNL     1     104.327 128.203 148.556  0.00  0.00    +0.000 C 
ENDBRANCH  36  39
ENDBRANCH  35  36
ENDBRANCH  33  35
ENDBRANCH  32  33
ENDBRANCH  29  32
ENDBRANCH  22  31
ENDBRANCH   4  22
TORSDOF 9
ENDMDL
MODEL 8
REMARK VINA RESULT:      -8.8      1.432      5.613
REMARK  Name = 44258227
REMARK  9 active torsions:
REMARK  status: ('A' for Active; 'I' for Inactive)
REMARK    1  A    between atoms: O_3  and  C_19
REMARK    2  A    between atoms: O_3  and  C_21
REMARK    3  A    between atoms: O_6  and  C_20
REMARK    4  A    between atoms: O_6  and  C_24
REMARK    5  A    between atoms: O_13  and  C_38
REMARK    6  A    between atoms: C_17  and  C_20
REMARK    7  A    between atoms: C_24  and  C_28
REMARK    8  A    between atoms: C_28  and  C_33
REMARK    9  A    between atoms: C_30  and  C_32
REMARK                            x       y       z     vdW  Elec       q    Type
REMARK                         _______ _______ _______ _____ _____    ______ ____
ROOT
ATOM      1  O   UNL     1     112.167 129.191 136.922  0.00  0.00    +0.000 OA
ATOM      2  O   UNL     1     114.451 128.187 135.464  0.00  0.00    +0.000 OA
ATOM      3  O   UNL     1     113.949 129.520 135.236  0.00  0.00    +0.000 OA
ATOM      4  C   UNL     1     113.186 127.205 137.031  0.00  0.00    +0.000 A 
ATOM      5  C   UNL     1     112.631 127.842 137.191  0.00  0.00    +0.000 A 
ATOM      6  C   UNL     1     113.804 127.319 136.446  0.00  0.00    +0.000 A 
ATOM      7  C   UNL     1     112.702 128.583 136.764  0.00  0.00    +0.000 A 
ATOM      8  C   UNL     1     113.296 128.694 136.202  0.00  0.00    +0.000 A 
ATOM      9  C   UNL     1     113.860 128.068 136.029  0.00  0.00    +0.000 A 
ATOM     10  C   UNL     1     113.355 129.411 135.798  0.00  0.00    +0.000 A 
ATOM     11  C   UNL     1     112.226 129.908 136.518  0.00  0.00    +0.000 A 
ATOM     12  C   UNL     1     112.820 130.017 135.956  0.00  0.00    +0.000 A 
ENDROOT
BRANCH  11  14
ATOM     13  O   UNL     1     109.660 131.107 136.134  0.00  0.00    +0.000 OA
ATOM     14  C   UNL     1     111.690 130.516 136.676  0.00  0.00    +0.000 A 
ATOM     15  C   UNL     1     110.943 130.508 136.326  0.00  0.00    +0.000 A 
ATOM     16  C   UNL     1     111.902 131.131 137.183  0.00  0.00    +0.000 A 
ATOM     17  C   UNL     1     110.407 131.115 136.483  0.00  0.00    +0.000 A 
ATOM     18  C   UNL     1     111.367 131.738 137.341  0.00  0.00    +0.000 A 
ATOM     19  C   UNL     1     110.619 131.730 136.991  0.00  0.00    +0.000 A 
BRANCH  19  20
ATOM     20  O   UNL     1     110.084 132.338 137.149  0.00  0.00    +0.000 OA
ATOM     21  C   UNL     1     110.326 133.000 137.577  0.00  0.00    +0.000 C 
ENDBRANCH  19  20
ENDBRANCH  11  14
BRANCH   4  22
ATOM     22  O   UNL     1     113.125 126.489 137.436  0.00  0.00    +0.000 OA
BRANCH  22  31
ATOM     23  O   UNL     1     112.057 125.965 136.644  0.00  0.00    +0.000 OA
ATOM     24  O   UNL     1     111.607 123.920 136.028  0.00  0.00    +0.000 OA
ATOM     25  O   UNL     1     112.982 123.684 136.908  0.00  0.00    +0.000 OA
ATOM     26  O   UNL     1     113.741 124.969 137.612  0.00  0.00    +0.000 OA
ATOM     27  C   UNL     1     111.987 124.562 136.380  0.00  0.00    +0.000 C 
ATOM     28  C   UNL     1     112.674 124.444 136.820  0.00  0.00    +0.000 C 
ATOM     29  C   UNL     1     111.678 125.322 136.292  0.00  0.00    +0.000 C 
ATOM     30  C   UNL     1     113.054 125.087 137.173  0.00  0.00    +0.000 C 
ATOM     31  C   UNL     1     112.746 125.847 137.084  0.00  0.00    +0.000 C 
BRANCH  29  32
ATOM     32  C   UNL     1     110.990 125.440 135.852  0.00  0.00    +0.000 C 
BRANCH  32  33
ATOM     33  O   UNL     1     110.415 125.967 136.120  0.00  0.00    +0.000 OA
BRANCH  33  35
ATOM     34  O   UNL     1     109.476 125.696 135.076  0.00  0.00    +0.000 OA
ATOM     35  C   UNL     1     109.821 126.225 135.607  0.00  0.00    +0.000 C 
BRANCH  35  36
ATOM     36  C   UNL     1     109.573 127.011 135.626  0.00  0.00    +0.000 C 
BRANCH  36  39
ATOM     37  O   UNL     1     109.026 127.605 136.805  0.00  0.00    +0.000 OA
ATOM     38  O   UNL     1     108.157 127.060 135.810  0.00  0.00    +0.000 OA
ATOM     39  C   UNL     1     108.919 127.225 136.080  0.00  0.00    +0.000 C 
ENDBRANCH  36  39
ENDBRANCH  35  36
ENDBRANCH  33  35
ENDBRANCH  32  33
ENDBRANCH  29  32
ENDBRANCH  22  31
ENDBRANCH   4  22
TORSDOF 9
ENDMDL
MODEL 9
REMARK VINA RESULT:      -8.7      3.121      4.348
REMARK  Name = 44258227
REMARK  9 active torsions:
REMARK  status: ('A' for Active; 'I' for Inactive)
REMARK    1  A    between atoms: O_3  and  C_19
REMARK    2  A    between atoms: O_3  and  C_21
REMARK    3  A    between atoms: O_6  and  C_20
REMARK    4  A    between atoms: O_6  and  C_24
REMARK    5  A    between atoms: O_13  and  C_38
REMARK    6  A    between atoms: C_17  and  C_20
REMARK    7  A    between atoms: C_24  and  C_28
REMARK    8  A    between atoms: C_28  and  C_33
REMARK    9  A    between atoms: C_30  and  C_32
REMARK                            x       y       z     vdW  Elec       q    Type
REMARK                         _______ _______ _______ _____ _____    ______ ____
ROOT
ATOM      1  O   UNL     1     112.969 127.220 138.077  0.00  0.00    +0.000 OA
ATOM      2  O   UNL     1     111.962 129.873 137.525  0.00  0.00    +0.000 OA
ATOM      3  O   UNL     1     111.533 128.736 136.746  0.00  0.00    +0.000 OA
ATOM      4  C   UNL     1     113.418 129.168 139.075  0.00  0.00    +0.000 A 
ATOM      5  C   UNL     1     113.433 128.329 138.891  0.00  0.00    +0.000 A 
ATOM      6  C   UNL     1     112.920 129.694 138.613  0.00  0.00    +0.000 A 
ATOM      7  C   UNL     1     112.950 128.027 138.249  0.00  0.00    +0.000 A 
ATOM      8  C   UNL     1     112.471 128.532 137.805  0.00  0.00    +0.000 A 
ATOM      9  C   UNL     1     112.444 129.374 137.974  0.00  0.00    +0.000 A 
ATOM     10  C   UNL     1     112.011 128.231 137.190  0.00  0.00    +0.000 A 
ATOM     11  C   UNL     1     112.509 126.919 137.461  0.00  0.00    +0.000 A 
ATOM     12  C   UNL     1     112.030 127.424 137.018  0.00  0.00    +0.000 A 
ENDROOT
BRANCH  11  14
ATOM     13  O   UNL     1     113.795 124.678 136.240  0.00  0.00    +0.000 OA
ATOM     14  C   UNL     1     112.527 126.112 137.290  0.00  0.00    +0.000 A 
ATOM     15  C   UNL     1     113.151 125.798 136.851  0.00  0.00    +0.000 A 
ATOM     16  C   UNL     1     111.921 125.620 137.556  0.00  0.00    +0.000 A 
ATOM     17  C   UNL     1     113.170 124.992 136.679  0.00  0.00    +0.000 A 
ATOM     18  C   UNL     1     111.940 124.813 137.384  0.00  0.00    +0.000 A 
ATOM     19  C   UNL     1     112.565 124.499 136.945  0.00  0.00    +0.000 A 
BRANCH  19  20
ATOM     20  O   UNL     1     112.583 123.693 136.773  0.00  0.00    +0.000 OA
ATOM     21  C   UNL     1     112.008 123.191 137.086  0.00  0.00    +0.000 C 
ENDBRANCH  19  20
ENDBRANCH  11  14
BRANCH   4  22
ATOM     22  O   UNL     1     113.879 129.467 139.690  0.00  0.00    +0.000 OA
BRANCH  22  31
ATOM     23  O   UNL     1     112.932 129.222 140.733  0.00  0.00    +0.000 OA
ATOM     24  O   UNL     1     112.458 130.368 142.529  0.00  0.00    +0.000 OA
ATOM     25  O   UNL     1     113.640 131.307 141.864  0.00  0.00    +0.000 OA
ATOM     26  O   UNL     1     114.351 130.857 140.445  0.00  0.00    +0.000 OA
ATOM     27  C   UNL     1     112.814 130.143 141.820  0.00  0.00    +0.000 C 
ATOM     28  C   UNL     1     113.404 130.612 141.487  0.00  0.00    +0.000 C 
ATOM     29  C   UNL     1     112.578 129.448 141.442  0.00  0.00    +0.000 C 
ATOM     30  C   UNL     1     113.760 130.387 140.777  0.00  0.00    +0.000 C 
ATOM     31  C   UNL     1     113.524 129.693 140.400  0.00  0.00    +0.000 C 
BRANCH  29  32
ATOM     32  C   UNL     1     111.986 128.978 141.775  0.00  0.00    +0.000 C 
BRANCH  32  33
ATOM     33  O   UNL     1     111.944 128.176 141.588  0.00  0.00    +0.000 OA
BRANCH  33  35
ATOM     34  O   UNL     1     111.036 127.737 142.602  0.00  0.00    +0.000 OA
ATOM     35  C   UNL     1     111.284 127.734 141.815  0.00  0.00    +0.000 C 
BRANCH  35  36
ATOM     36  C   UNL     1     110.874 127.290 141.254  0.00  0.00    +0.000 C 
BRANCH  36  39
ATOM     37  O   UNL     1     110.296 126.039 141.633  0.00  0.00    +0.000 OA
ATOM     38  O   UNL     1     111.549 126.069 140.946  0.00  0.00    +0.000 OA
ATOM     39  C   UNL     1     110.907 126.466 141.277  0.00  0.00    +0.000 C 
ENDBRANCH  36  39
ENDBRANCH  35  36
ENDBRANCH  33  35
ENDBRANCH  32  33
ENDBRANCH  29  32
ENDBRANCH  22  31
ENDBRANCH   4  22
TORSDOF 9
ENDMDL
MODEL 10
REMARK VINA RESULT:      -8.7      2.261      5.367
REMARK  Name = 44258227
REMARK  9 active torsions:
REMARK  status: ('A' for Active; 'I' for Inactive)
REMARK    1  A    between atoms: O_3  and  C_19
REMARK    2  A    between atoms: O_3  and  C_21
REMARK    3  A    between atoms: O_6  and  C_20
REMARK    4  A    between atoms: O_6  and  C_24
REMARK    5  A    between atoms: O_13  and  C_38
REMARK    6  A    between atoms: C_17  and  C_20
REMARK    7  A    between atoms: C_24  and  C_28
REMARK    8  A    between atoms: C_28  and  C_33
REMARK    9  A    between atoms: C_30  and  C_32
REMARK                            x       y       z     vdW  Elec       q    Type
REMARK                         _______ _______ _______ _____ _____    ______ ____
ROOT
ATOM      1  O   UNL     1     111.095 129.551 136.681  0.00  0.00    +0.000 OA
ATOM      2  O   UNL     1     113.508 128.634 135.380  0.00  0.00    +0.000 OA
ATOM      3  O   UNL     1     112.368 129.075 134.612  0.00  0.00    +0.000 OA
ATOM      4  C   UNL     1     113.013 128.811 137.557  0.00  0.00    +0.000 A 
ATOM      5  C   UNL     1     112.213 129.118 137.502  0.00  0.00    +0.000 A 
ATOM      6  C   UNL     1     113.455 128.646 136.840  0.00  0.00    +0.000 A 
ATOM      7  C   UNL     1     111.865 129.256 136.729  0.00  0.00    +0.000 A 
ATOM      8  C   UNL     1     112.289 129.097 136.039  0.00  0.00    +0.000 A 
ATOM      9  C   UNL     1     113.090 128.790 136.075  0.00  0.00    +0.000 A 
ATOM     10  C   UNL     1     111.944 129.234 135.302  0.00  0.00    +0.000 A 
ATOM     11  C   UNL     1     110.751 129.687 135.944  0.00  0.00    +0.000 A 
ATOM     12  C   UNL     1     111.175 129.529 135.255  0.00  0.00    +0.000 A 
ENDROOT
BRANCH  11  14
ATOM     13  O   UNL     1     107.930 129.238 135.837  0.00  0.00    +0.000 OA
ATOM     14  C   UNL     1     109.982 129.982 135.897  0.00  0.00    +0.000 A 
ATOM     15  C   UNL     1     109.340 129.463 135.891  0.00  0.00    +0.000 A 
ATOM     16  C   UNL     1     109.854 130.796 135.855  0.00  0.00    +0.000 A 
ATOM     17  C   UNL     1     108.571 129.757 135.843  0.00  0.00    +0.000 A 
ATOM     18  C   UNL     1     109.085 131.091 135.808  0.00  0.00    +0.000 A 
ATOM     19  C   UNL     1     108.444 130.571 135.802  0.00  0.00    +0.000 A 
BRANCH  19  20
ATOM     20  O   UNL     1     107.674 130.866 135.754  0.00  0.00    +0.000 OA
ATOM     21  C   UNL     1     107.546 131.680 135.731  0.00  0.00    +0.000 C 
ENDBRANCH  19  20
ENDBRANCH  11  14
BRANCH   4  22
ATOM     22  O   UNL     1     113.356 128.675 138.296  0.00  0.00    +0.000 OA
BRANCH  22  31
ATOM     23  O   UNL     1     112.882 127.332 138.404  0.00  0.00    +0.000 OA
ATOM     24  O   UNL     1     112.328 126.148 140.153  0.00  0.00    +0.000 OA
ATOM     25  O   UNL     1     112.761 127.573 140.864  0.00  0.00    +0.000 OA
ATOM     26  O   UNL     1     113.275 128.836 139.936  0.00  0.00    +0.000 OA
ATOM     27  C   UNL     1     112.585 126.781 139.689  0.00  0.00    +0.000 C 
ATOM     28  C   UNL     1     112.801 127.492 140.044  0.00  0.00    +0.000 C 
ATOM     29  C   UNL     1     112.625 126.700 138.869  0.00  0.00    +0.000 C 
ATOM     30  C   UNL     1     113.059 128.125 139.581  0.00  0.00    +0.000 C 
ATOM     31  C   UNL     1     113.099 128.044 138.760  0.00  0.00    +0.000 C 
BRANCH  29  32
ATOM     32  C   UNL     1     112.408 125.988 138.513  0.00  0.00    +0.000 C 
BRANCH  32  33
ATOM     33  O   UNL     1     111.901 125.990 137.862  0.00  0.00    +0.000 OA
BRANCH  33  35
ATOM     34  O   UNL     1     111.488 124.623 137.808  0.00  0.00    +0.000 OA
ATOM     35  C   UNL     1     111.780 125.296 137.432  0.00  0.00    +0.000 C 
BRANCH  35  36
ATOM     36  C   UNL     1     111.950 125.277 136.625  0.00  0.00    +0.000 C 
BRANCH  36  39
ATOM     37  O   UNL     1     110.940 125.872 135.808  0.00  0.00    +0.000 OA
ATOM     38  O   UNL     1     111.125 124.455 135.797  0.00  0.00    +0.000 OA
ATOM     39  C   UNL     1     111.339 125.201 136.077  0.00  0.00    +0.000 C 
ENDBRANCH  36  39
ENDBRANCH  35  36
ENDBRANCH  33  35
ENDBRANCH  32  33
ENDBRANCH  29  32
ENDBRANCH  22  31
ENDBRANCH   4  22
TORSDOF 9
ENDMDL
