MODEL 1
REMARK VINA RESULT:      -7.6      0.000      0.000
REMARK  Name = 13914993
REMARK  7 active torsions:
REMARK  status: ('A' for Active; 'I' for Inactive)
REMARK    1  A    between atoms: O_2  and  C_15
REMARK    2  A    between atoms: O_3  and  C_19
REMARK    3  A    between atoms: O_4  and  C_20
REMARK    4  A    between atoms: O_5  and  C_21
REMARK    5  A    between atoms: O_7  and  C_24
REMARK    6  A    between atoms: O_8  and  C_25
REMARK    7  A    between atoms: C_13  and  C_14
REMARK                            x       y       z     vdW  Elec       q    Type
REMARK                         _______ _______ _______ _____ _____    ______ ____
ROOT
ATOM      1  O   UNL     1     112.768 127.311 137.416  0.00  0.00    +0.000 OA
ATOM      2  O   UNL     1     113.963 129.703 136.307  0.00  0.00    +0.000 OA
ATOM      3  O   UNL     1     113.979 128.487 135.529  0.00  0.00    +0.000 OA
ATOM      4  C   UNL     1     113.373 128.523 136.856  0.00  0.00    +0.000 A 
ATOM      5  C   UNL     1     112.977 128.142 137.473  0.00  0.00    +0.000 A 
ATOM      6  C   UNL     1     112.972 126.870 136.706  0.00  0.00    +0.000 A 
ATOM      7  C   UNL     1     112.779 128.560 138.156  0.00  0.00    +0.000 A 
ATOM      8  C   UNL     1     113.568 129.322 136.924  0.00  0.00    +0.000 A 
ATOM      9  C   UNL     1     113.584 128.099 136.141  0.00  0.00    +0.000 A 
ATOM     10  C   UNL     1     113.383 127.267 136.064  0.00  0.00    +0.000 A 
ATOM     11  C   UNL     1     112.975 129.358 138.223  0.00  0.00    +0.000 A 
ATOM     12  C   UNL     1     113.370 129.740 137.606  0.00  0.00    +0.000 A 
ENDROOT
BRANCH   6  14
ATOM     13  O   UNL     1     113.643 124.118 137.081  0.00  0.00    +0.000 OA
ATOM     14  C   UNL     1     112.775 126.072 136.642  0.00  0.00    +0.000 A 
ATOM     15  C   UNL     1     113.307 125.494 136.893  0.00  0.00    +0.000 A 
ATOM     16  C   UNL     1     112.045 125.851 136.327  0.00  0.00    +0.000 A 
ATOM     17  C   UNL     1     113.110 124.696 136.829  0.00  0.00    +0.000 A 
ATOM     18  C   UNL     1     111.848 125.052 136.263  0.00  0.00    +0.000 A 
ATOM     19  C   UNL     1     112.380 124.475 136.514  0.00  0.00    +0.000 A 
BRANCH  15  20
ATOM     20  O   UNL     1     114.037 125.714 137.209  0.00  0.00    +0.000 OA
ATOM     21  C   UNL     1     114.564 125.138 137.474  0.00  0.00    +0.000 C 
ENDBRANCH  15  20
BRANCH  18  22
ATOM     22  O   UNL     1     111.118 124.831 135.948  0.00  0.00    +0.000 OA
ATOM     23  C   UNL     1     110.680 125.371 135.503  0.00  0.00    +0.000 C 
ENDBRANCH  18  22
BRANCH  19  24
ATOM     24  O   UNL     1     112.184 123.676 136.450  0.00  0.00    +0.000 OA
ATOM     25  C   UNL     1     111.901 123.268 137.109  0.00  0.00    +0.000 C 
ENDBRANCH  19  24
ENDBRANCH   6  14
BRANCH   7  26
ATOM     26  O   UNL     1     112.384 128.179 138.772  0.00  0.00    +0.000 OA
ATOM     27  C   UNL     1     111.572 128.283 138.868  0.00  0.00    +0.000 C 
ENDBRANCH   7  26
BRANCH  11  28
ATOM     28  O   UNL     1     112.777 129.777 138.906  0.00  0.00    +0.000 OA
ATOM     29  C   UNL     1     113.319 129.839 139.524  0.00  0.00    +0.000 C 
ENDBRANCH  11  28
BRANCH  12  30
ATOM     30  O   UNL     1     113.566 130.538 137.674  0.00  0.00    +0.000 OA
ATOM     31  C   UNL     1     113.159 131.102 137.231  0.00  0.00    +0.000 C 
ENDBRANCH  12  30
TORSDOF 7
ENDMDL
MODEL 2
REMARK VINA RESULT:      -7.5      0.489      1.522
REMARK  Name = 13914993
REMARK  7 active torsions:
REMARK  status: ('A' for Active; 'I' for Inactive)
REMARK    1  A    between atoms: O_2  and  C_15
REMARK    2  A    between atoms: O_3  and  C_19
REMARK    3  A    between atoms: O_4  and  C_20
REMARK    4  A    between atoms: O_5  and  C_21
REMARK    5  A    between atoms: O_7  and  C_24
REMARK    6  A    between atoms: O_8  and  C_25
REMARK    7  A    between atoms: C_13  and  C_14
REMARK                            x       y       z     vdW  Elec       q    Type
REMARK                         _______ _______ _______ _____ _____    ______ ____
ROOT
ATOM      1  O   UNL     1     112.919 127.549 137.363  0.00  0.00    +0.000 OA
ATOM      2  O   UNL     1     113.986 129.958 136.165  0.00  0.00    +0.000 OA
ATOM      3  O   UNL     1     114.067 128.718 135.432  0.00  0.00    +0.000 OA
ATOM      4  C   UNL     1     113.458 128.770 136.758  0.00  0.00    +0.000 A 
ATOM      5  C   UNL     1     113.084 128.391 137.389  0.00  0.00    +0.000 A 
ATOM      6  C   UNL     1     113.146 127.094 136.670  0.00  0.00    +0.000 A 
ATOM      7  C   UNL     1     112.863 128.823 138.057  0.00  0.00    +0.000 A 
ATOM      8  C   UNL     1     113.612 129.580 136.796  0.00  0.00    +0.000 A 
ATOM      9  C   UNL     1     113.693 128.332 136.058  0.00  0.00    +0.000 A 
ATOM     10  C   UNL     1     113.536 127.488 136.012  0.00  0.00    +0.000 A 
ATOM     11  C   UNL     1     113.016 129.632 138.094  0.00  0.00    +0.000 A 
ATOM     12  C   UNL     1     113.391 130.011 137.463  0.00  0.00    +0.000 A 
ENDROOT
BRANCH   6  14
ATOM     13  O   UNL     1     111.433 124.932 135.926  0.00  0.00    +0.000 OA
ATOM     14  C   UNL     1     112.992 126.284 136.635  0.00  0.00    +0.000 A 
ATOM     15  C   UNL     1     112.290 126.012 136.298  0.00  0.00    +0.000 A 
ATOM     16  C   UNL     1     113.539 125.746 136.938  0.00  0.00    +0.000 A 
ATOM     17  C   UNL     1     112.135 125.203 136.263  0.00  0.00    +0.000 A 
ATOM     18  C   UNL     1     113.384 124.936 136.903  0.00  0.00    +0.000 A 
ATOM     19  C   UNL     1     112.683 124.665 136.566  0.00  0.00    +0.000 A 
BRANCH  15  20
ATOM     20  O   UNL     1     111.742 126.550 135.995  0.00  0.00    +0.000 OA
ATOM     21  C   UNL     1     111.094 126.280 135.561  0.00  0.00    +0.000 C 
ENDBRANCH  15  20
BRANCH  18  22
ATOM     22  O   UNL     1     113.932 124.398 137.205  0.00  0.00    +0.000 OA
ATOM     23  C   UNL     1     114.703 124.642 137.367  0.00  0.00    +0.000 C 
ENDBRANCH  18  22
BRANCH  19  24
ATOM     24  O   UNL     1     112.527 123.856 136.531  0.00  0.00    +0.000 OA
ATOM     25  C   UNL     1     112.033 123.507 137.092  0.00  0.00    +0.000 C 
ENDBRANCH  19  24
ENDBRANCH   6  14
BRANCH   7  26
ATOM     26  O   UNL     1     112.489 128.445 138.687  0.00  0.00    +0.000 OA
ATOM     27  C   UNL     1     111.676 128.531 138.796  0.00  0.00    +0.000 C 
ENDBRANCH   7  26
BRANCH  11  28
ATOM     28  O   UNL     1     112.796 130.064 138.762  0.00  0.00    +0.000 OA
ATOM     29  C   UNL     1     113.332 130.174 139.379  0.00  0.00    +0.000 C 
ENDBRANCH  11  28
BRANCH  12  30
ATOM     30  O   UNL     1     113.544 130.821 137.501  0.00  0.00    +0.000 OA
ATOM     31  C   UNL     1     113.113 131.345 137.032  0.00  0.00    +0.000 C 
ENDBRANCH  12  30
TORSDOF 7
ENDMDL
MODEL 3
REMARK VINA RESULT:      -7.4      0.902      2.436
REMARK  Name = 13914993
REMARK  7 active torsions:
REMARK  status: ('A' for Active; 'I' for Inactive)
REMARK    1  A    between atoms: O_2  and  C_15
REMARK    2  A    between atoms: O_3  and  C_19
REMARK    3  A    between atoms: O_4  and  C_20
REMARK    4  A    between atoms: O_5  and  C_21
REMARK    5  A    between atoms: O_7  and  C_24
REMARK    6  A    between atoms: O_8  and  C_25
REMARK    7  A    between atoms: C_13  and  C_14
REMARK                            x       y       z     vdW  Elec       q    Type
REMARK                         _______ _______ _______ _____ _____    ______ ____
ROOT
ATOM      1  O   UNL     1     113.429 127.806 136.412  0.00  0.00    +0.000 OA
ATOM      2  O   UNL     1     113.012 130.101 138.126  0.00  0.00    +0.000 OA
ATOM      3  O   UNL     1     112.501 128.816 138.540  0.00  0.00    +0.000 OA
ATOM      4  C   UNL     1     113.219 128.969 137.278  0.00  0.00    +0.000 A 
ATOM      5  C   UNL     1     113.522 128.642 136.583  0.00  0.00    +0.000 A 
ATOM      6  C   UNL     1     113.013 127.302 136.971  0.00  0.00    +0.000 A 
ATOM      7  C   UNL     1     113.922 129.121 136.043  0.00  0.00    +0.000 A 
ATOM      8  C   UNL     1     113.315 129.774 137.431  0.00  0.00    +0.000 A 
ATOM      9  C   UNL     1     112.801 128.482 137.848  0.00  0.00    +0.000 A 
ATOM     10  C   UNL     1     112.697 127.642 137.695  0.00  0.00    +0.000 A 
ATOM     11  C   UNL     1     114.018 129.925 136.196  0.00  0.00    +0.000 A 
ATOM     12  C   UNL     1     113.714 130.252 136.891  0.00  0.00    +0.000 A 
ENDROOT
BRANCH   6  14
ATOM     13  O   UNL     1     111.475 125.160 135.872  0.00  0.00    +0.000 OA
ATOM     14  C   UNL     1     112.918 126.497 136.815  0.00  0.00    +0.000 A 
ATOM     15  C   UNL     1     112.244 126.230 136.422  0.00  0.00    +0.000 A 
ATOM     16  C   UNL     1     113.498 125.960 137.053  0.00  0.00    +0.000 A 
ATOM     17  C   UNL     1     112.149 125.427 136.266  0.00  0.00    +0.000 A 
ATOM     18  C   UNL     1     113.402 125.155 136.896  0.00  0.00    +0.000 A 
ATOM     19  C   UNL     1     112.729 124.888 136.503  0.00  0.00    +0.000 A 
BRANCH  15  20
ATOM     20  O   UNL     1     111.665 126.768 136.184  0.00  0.00    +0.000 OA
ATOM     21  C   UNL     1     111.132 126.564 135.589  0.00  0.00    +0.000 C 
ENDBRANCH  15  20
BRANCH  18  22
ATOM     22  O   UNL     1     113.981 124.618 137.134  0.00  0.00    +0.000 OA
ATOM     23  C   UNL     1     114.751 124.878 137.277  0.00  0.00    +0.000 C 
ENDBRANCH  18  22
BRANCH  19  24
ATOM     24  O   UNL     1     112.633 124.085 136.347  0.00  0.00    +0.000 OA
ATOM     25  C   UNL     1     112.167 123.621 136.846  0.00  0.00    +0.000 C 
ENDBRANCH  19  24
ENDBRANCH   6  14
BRANCH   7  26
ATOM     26  O   UNL     1     114.225 128.794 135.348  0.00  0.00    +0.000 OA
ATOM     27  C   UNL     1     113.865 128.958 134.625  0.00  0.00    +0.000 C 
ENDBRANCH   7  26
BRANCH  11  28
ATOM     28  O   UNL     1     114.417 130.404 135.656  0.00  0.00    +0.000 OA
ATOM     29  C   UNL     1     115.226 130.539 135.742  0.00  0.00    +0.000 C 
ENDBRANCH  11  28
BRANCH  12  30
ATOM     30  O   UNL     1     113.811 131.057 137.044  0.00  0.00    +0.000 OA
ATOM     31  C   UNL     1     113.170 131.571 136.975  0.00  0.00    +0.000 C 
ENDBRANCH  12  30
TORSDOF 7
ENDMDL
MODEL 4
REMARK VINA RESULT:      -7.3      1.602      2.704
REMARK  Name = 13914993
REMARK  7 active torsions:
REMARK  status: ('A' for Active; 'I' for Inactive)
REMARK    1  A    between atoms: O_2  and  C_15
REMARK    2  A    between atoms: O_3  and  C_19
REMARK    3  A    between atoms: O_4  and  C_20
REMARK    4  A    between atoms: O_5  and  C_21
REMARK    5  A    between atoms: O_7  and  C_24
REMARK    6  A    between atoms: O_8  and  C_25
REMARK    7  A    between atoms: C_13  and  C_14
REMARK                            x       y       z     vdW  Elec       q    Type
REMARK                         _______ _______ _______ _____ _____    ______ ____
ROOT
ATOM      1  O   UNL     1     113.069 127.461 138.489  0.00  0.00    +0.000 OA
ATOM      2  O   UNL     1     113.989 128.370 141.078  0.00  0.00    +0.000 OA
ATOM      3  O   UNL     1     113.817 126.955 140.855  0.00  0.00    +0.000 OA
ATOM      4  C   UNL     1     113.535 127.923 139.799  0.00  0.00    +0.000 A 
ATOM      5  C   UNL     1     113.291 128.091 139.028  0.00  0.00    +0.000 A 
ATOM      6  C   UNL     1     113.100 126.644 138.755  0.00  0.00    +0.000 A 
ATOM      7  C   UNL     1     113.259 128.873 138.767  0.00  0.00    +0.000 A 
ATOM      8  C   UNL     1     113.746 128.538 140.308  0.00  0.00    +0.000 A 
ATOM      9  C   UNL     1     113.572 127.114 140.083  0.00  0.00    +0.000 A 
ATOM     10  C   UNL     1     113.354 126.469 139.558  0.00  0.00    +0.000 A 
ATOM     11  C   UNL     1     113.470 129.487 139.275  0.00  0.00    +0.000 A 
ATOM     12  C   UNL     1     113.714 129.319 140.047  0.00  0.00    +0.000 A 
ENDROOT
BRANCH   6  14
ATOM     13  O   UNL     1     111.127 124.853 137.723  0.00  0.00    +0.000 OA
ATOM     14  C   UNL     1     112.889 126.031 138.244  0.00  0.00    +0.000 A 
ATOM     15  C   UNL     1     112.114 125.748 138.239  0.00  0.00    +0.000 A 
ATOM     16  C   UNL     1     113.452 125.703 137.739  0.00  0.00    +0.000 A 
ATOM     17  C   UNL     1     111.902 125.137 137.729  0.00  0.00    +0.000 A 
ATOM     18  C   UNL     1     113.240 125.090 137.228  0.00  0.00    +0.000 A 
ATOM     19  C   UNL     1     112.466 124.807 137.223  0.00  0.00    +0.000 A 
BRANCH  15  20
ATOM     20  O   UNL     1     111.551 126.077 138.744  0.00  0.00    +0.000 OA
ATOM     21  C   UNL     1     110.747 125.981 138.586  0.00  0.00    +0.000 C 
ENDBRANCH  15  20
BRANCH  18  22
ATOM     22  O   UNL     1     113.803 124.761 136.723  0.00  0.00    +0.000 OA
ATOM     23  C   UNL     1     114.485 125.185 136.534  0.00  0.00    +0.000 C 
ENDBRANCH  18  22
BRANCH  19  24
ATOM     24  O   UNL     1     112.253 124.195 136.712  0.00  0.00    +0.000 OA
ATOM     25  C   UNL     1     112.189 123.424 136.999  0.00  0.00    +0.000 C 
ENDBRANCH  19  24
ENDBRANCH   6  14
BRANCH   7  26
ATOM     26  O   UNL     1     113.016 129.041 137.997  0.00  0.00    +0.000 OA
ATOM     27  C   UNL     1     112.260 129.339 137.859  0.00  0.00    +0.000 C 
ENDBRANCH   7  26
BRANCH  11  28
ATOM     28  O   UNL     1     113.438 130.269 139.015  0.00  0.00    +0.000 OA
ATOM     29  C   UNL     1     114.106 130.621 138.682  0.00  0.00    +0.000 C 
ENDBRANCH  11  28
BRANCH  12  30
ATOM     30  O   UNL     1     113.925 129.934 140.555  0.00  0.00    +0.000 OA
ATOM     31  C   UNL     1     113.432 130.137 141.184  0.00  0.00    +0.000 C 
ENDBRANCH  12  30
TORSDOF 7
ENDMDL
MODEL 5
REMARK VINA RESULT:      -7.3      2.968      3.708
REMARK  Name = 13914993
REMARK  7 active torsions:
REMARK  status: ('A' for Active; 'I' for Inactive)
REMARK    1  A    between atoms: O_2  and  C_15
REMARK    2  A    between atoms: O_3  and  C_19
REMARK    3  A    between atoms: O_4  and  C_20
REMARK    4  A    between atoms: O_5  and  C_21
REMARK    5  A    between atoms: O_7  and  C_24
REMARK    6  A    between atoms: O_8  and  C_25
REMARK    7  A    between atoms: C_13  and  C_14
REMARK                            x       y       z     vdW  Elec       q    Type
REMARK                         _______ _______ _______ _____ _____    ______ ____
ROOT
ATOM      1  O   UNL     1     110.435 128.218 136.434  0.00  0.00    +0.000 OA
ATOM      2  O   UNL     1     108.195 129.863 135.627  0.00  0.00    +0.000 OA
ATOM      3  O   UNL     1     107.998 128.442 135.785  0.00  0.00    +0.000 OA
ATOM      4  C   UNL     1     109.302 129.053 136.025  0.00  0.00    +0.000 A 
ATOM      5  C   UNL     1     110.097 128.982 136.237  0.00  0.00    +0.000 A 
ATOM      6  C   UNL     1     109.939 127.516 136.411  0.00  0.00    +0.000 A 
ATOM      7  C   UNL     1     110.578 129.652 136.260  0.00  0.00    +0.000 A 
ATOM      8  C   UNL     1     108.989 129.793 135.838  0.00  0.00    +0.000 A 
ATOM      9  C   UNL     1     108.791 128.363 135.997  0.00  0.00    +0.000 A 
ATOM     10  C   UNL     1     109.110 127.589 136.191  0.00  0.00    +0.000 A 
ATOM     11  C   UNL     1     110.265 130.392 136.073  0.00  0.00    +0.000 A 
ATOM     12  C   UNL     1     109.470 130.462 135.861  0.00  0.00    +0.000 A 
ENDROOT
BRANCH   6  14
ATOM     13  O   UNL     1     111.042 125.014 135.583  0.00  0.00    +0.000 OA
ATOM     14  C   UNL     1     110.254 126.777 136.599  0.00  0.00    +0.000 A 
ATOM     15  C   UNL     1     110.490 126.264 135.998  0.00  0.00    +0.000 A 
ATOM     16  C   UNL     1     110.334 126.551 137.389  0.00  0.00    +0.000 A 
ATOM     17  C   UNL     1     110.806 125.527 136.185  0.00  0.00    +0.000 A 
ATOM     18  C   UNL     1     110.650 125.812 137.576  0.00  0.00    +0.000 A 
ATOM     19  C   UNL     1     110.886 125.300 136.975  0.00  0.00    +0.000 A 
BRANCH  15  20
ATOM     20  O   UNL     1     110.411 126.490 135.208  0.00  0.00    +0.000 OA
ATOM     21  C   UNL     1     110.414 125.919 134.612  0.00  0.00    +0.000 C 
ENDBRANCH  15  20
BRANCH  18  22
ATOM     22  O   UNL     1     110.730 125.586 138.366  0.00  0.00    +0.000 OA
ATOM     23  C   UNL     1     110.323 125.996 138.955  0.00  0.00    +0.000 C 
ENDBRANCH  18  22
BRANCH  19  24
ATOM     24  O   UNL     1     111.201 124.561 137.162  0.00  0.00    +0.000 OA
ATOM     25  C   UNL     1     112.019 124.453 137.166  0.00  0.00    +0.000 C 
ENDBRANCH  19  24
ENDBRANCH   6  14
BRANCH   7  26
ATOM     26  O   UNL     1     111.372 129.582 136.471  0.00  0.00    +0.000 OA
ATOM     27  C   UNL     1     111.954 129.562 135.887  0.00  0.00    +0.000 C 
ENDBRANCH   7  26
BRANCH  11  28
ATOM     28  O   UNL     1     110.746 131.062 136.096  0.00  0.00    +0.000 OA
ATOM     29  C   UNL     1     110.802 131.506 136.788  0.00  0.00    +0.000 C 
ENDBRANCH  11  28
BRANCH  12  30
ATOM     30  O   UNL     1     109.157 131.203 135.674  0.00  0.00    +0.000 OA
ATOM     31  C   UNL     1     108.981 131.390 134.891  0.00  0.00    +0.000 C 
ENDBRANCH  12  30
TORSDOF 7
ENDMDL
MODEL 6
REMARK VINA RESULT:      -7.3     12.044     14.050
REMARK  Name = 13914993
REMARK  7 active torsions:
REMARK  status: ('A' for Active; 'I' for Inactive)
REMARK    1  A    between atoms: O_2  and  C_15
REMARK    2  A    between atoms: O_3  and  C_19
REMARK    3  A    between atoms: O_4  and  C_20
REMARK    4  A    between atoms: O_5  and  C_21
REMARK    5  A    between atoms: O_7  and  C_24
REMARK    6  A    between atoms: O_8  and  C_25
REMARK    7  A    between atoms: C_13  and  C_14
REMARK                            x       y       z     vdW  Elec       q    Type
REMARK                         _______ _______ _______ _____ _____    ______ ____
ROOT
ATOM      1  O   UNL     1     103.959 124.536 147.227  0.00  0.00    +0.000 OA
ATOM      2  O   UNL     1     102.539 122.740 145.457  0.00  0.00    +0.000 OA
ATOM      3  O   UNL     1     103.967 122.889 145.304  0.00  0.00    +0.000 OA
ATOM      4  C   UNL     1     103.239 123.627 146.332  0.00  0.00    +0.000 A 
ATOM      5  C   UNL     1     103.233 124.164 146.959  0.00  0.00    +0.000 A 
ATOM      6  C   UNL     1     104.702 124.348 146.837  0.00  0.00    +0.000 A 
ATOM      7  C   UNL     1     102.524 124.349 147.337  0.00  0.00    +0.000 A 
ATOM      8  C   UNL     1     102.534 123.276 146.084  0.00  0.00    +0.000 A 
ATOM      9  C   UNL     1     103.970 123.427 145.930  0.00  0.00    +0.000 A 
ATOM     10  C   UNL     1     104.707 123.789 146.183  0.00  0.00    +0.000 A 
ATOM     11  C   UNL     1     101.820 123.998 147.090  0.00  0.00    +0.000 A 
ATOM     12  C   UNL     1     101.825 123.461 146.462  0.00  0.00    +0.000 A 
ENDROOT
BRANCH   6  14
ATOM     13  O   UNL     1     106.713 126.352 146.521  0.00  0.00    +0.000 OA
ATOM     14  C   UNL     1     105.404 124.700 147.087  0.00  0.00    +0.000 A 
ATOM     15  C   UNL     1     105.708 125.350 146.679  0.00  0.00    +0.000 A 
ATOM     16  C   UNL     1     105.804 124.403 147.745  0.00  0.00    +0.000 A 
ATOM     17  C   UNL     1     106.410 125.703 146.929  0.00  0.00    +0.000 A 
ATOM     18  C   UNL     1     106.506 124.757 147.995  0.00  0.00    +0.000 A 
ATOM     19  C   UNL     1     106.810 125.406 147.588  0.00  0.00    +0.000 A 
BRANCH  15  20
ATOM     20  O   UNL     1     105.309 125.647 146.021  0.00  0.00    +0.000 OA
ATOM     21  C   UNL     1     105.375 126.445 145.823  0.00  0.00    +0.000 C 
ENDBRANCH  15  20
BRANCH  18  22
ATOM     22  O   UNL     1     106.906 124.460 148.653  0.00  0.00    +0.000 OA
ATOM     23  C   UNL     1     106.480 124.151 149.289  0.00  0.00    +0.000 C 
ENDBRANCH  18  22
BRANCH  19  24
ATOM     24  O   UNL     1     107.512 125.759 147.837  0.00  0.00    +0.000 OA
ATOM     25  C   UNL     1     108.235 125.479 147.557  0.00  0.00    +0.000 C 
ENDBRANCH  19  24
ENDBRANCH   6  14
BRANCH   7  26
ATOM     26  O   UNL     1     102.518 124.885 147.964  0.00  0.00    +0.000 OA
ATOM     27  C   UNL     1     102.249 125.655 147.845  0.00  0.00    +0.000 C 
ENDBRANCH   7  26
BRANCH  11  28
ATOM     28  O   UNL     1     101.110 124.182 147.468  0.00  0.00    +0.000 OA
ATOM     29  C   UNL     1     100.845 123.720 148.097  0.00  0.00    +0.000 C 
ENDBRANCH  11  28
BRANCH  12  30
ATOM     30  O   UNL     1     101.121 123.110 146.214  0.00  0.00    +0.000 OA
ATOM     31  C   UNL     1     100.828 123.260 145.458  0.00  0.00    +0.000 C 
ENDBRANCH  12  30
TORSDOF 7
ENDMDL
MODEL 7
REMARK VINA RESULT:      -7.2      1.959      4.803
REMARK  Name = 13914993
REMARK  7 active torsions:
REMARK  status: ('A' for Active; 'I' for Inactive)
REMARK    1  A    between atoms: O_2  and  C_15
REMARK    2  A    between atoms: O_3  and  C_19
REMARK    3  A    between atoms: O_4  and  C_20
REMARK    4  A    between atoms: O_5  and  C_21
REMARK    5  A    between atoms: O_7  and  C_24
REMARK    6  A    between atoms: O_8  and  C_25
REMARK    7  A    between atoms: C_13  and  C_14
REMARK                            x       y       z     vdW  Elec       q    Type
REMARK                         _______ _______ _______ _____ _____    ______ ____
ROOT
ATOM      1  O   UNL     1     112.136 126.788 136.591  0.00  0.00    +0.000 OA
ATOM      2  O   UNL     1     111.494 124.030 135.993  0.00  0.00    +0.000 OA
ATOM      3  O   UNL     1     110.663 125.076 135.447  0.00  0.00    +0.000 OA
ATOM      4  C   UNL     1     111.812 125.391 136.289  0.00  0.00    +0.000 A 
ATOM      5  C   UNL     1     112.294 125.947 136.664  0.00  0.00    +0.000 A 
ATOM      6  C   UNL     1     111.466 127.055 136.123  0.00  0.00    +0.000 A 
ATOM      7  C   UNL     1     112.938 125.697 137.115  0.00  0.00    +0.000 A 
ATOM      8  C   UNL     1     111.975 124.586 136.367  0.00  0.00    +0.000 A 
ATOM      9  C   UNL     1     111.139 125.638 135.818  0.00  0.00    +0.000 A 
ATOM     10  C   UNL     1     110.964 126.475 135.733  0.00  0.00    +0.000 A 
ATOM     11  C   UNL     1     113.101 124.893 137.192  0.00  0.00    +0.000 A 
ATOM     12  C   UNL     1     112.619 124.336 136.818  0.00  0.00    +0.000 A 
ENDROOT
BRANCH   6  14
ATOM     13  O   UNL     1     110.020 129.377 136.947  0.00  0.00    +0.000 OA
ATOM     14  C   UNL     1     111.305 127.860 136.047  0.00  0.00    +0.000 A 
ATOM     15  C   UNL     1     110.743 128.216 136.535  0.00  0.00    +0.000 A 
ATOM     16  C   UNL     1     111.707 128.310 135.484  0.00  0.00    +0.000 A 
ATOM     17  C   UNL     1     110.583 129.021 136.460  0.00  0.00    +0.000 A 
ATOM     18  C   UNL     1     111.546 129.116 135.409  0.00  0.00    +0.000 A 
ATOM     19  C   UNL     1     110.985 129.472 135.896  0.00  0.00    +0.000 A 
BRANCH  15  20
ATOM     20  O   UNL     1     110.341 127.767 137.098  0.00  0.00    +0.000 OA
ATOM     21  C   UNL     1     110.043 128.126 137.778  0.00  0.00    +0.000 C 
ENDBRANCH  15  20
BRANCH  18  22
ATOM     22  O   UNL     1     111.948 129.566 134.846  0.00  0.00    +0.000 OA
ATOM     23  C   UNL     1     112.709 129.350 134.612  0.00  0.00    +0.000 C 
ENDBRANCH  18  22
BRANCH  19  24
ATOM     24  O   UNL     1     110.823 130.277 135.822  0.00  0.00    +0.000 OA
ATOM     25  C   UNL     1     110.153 130.526 135.410  0.00  0.00    +0.000 C 
ENDBRANCH  19  24
ENDBRANCH   6  14
BRANCH   7  26
ATOM     26  O   UNL     1     113.420 126.253 137.489  0.00  0.00    +0.000 OA
ATOM     27  C   UNL     1     113.350 126.379 138.301  0.00  0.00    +0.000 C 
ENDBRANCH   7  26
BRANCH  11  28
ATOM     28  O   UNL     1     113.745 124.643 137.643  0.00  0.00    +0.000 OA
ATOM     29  C   UNL     1     114.489 124.569 137.296  0.00  0.00    +0.000 C 
ENDBRANCH  11  28
BRANCH  12  30
ATOM     30  O   UNL     1     112.782 123.531 136.895  0.00  0.00    +0.000 OA
ATOM     31  C   UNL     1     112.267 123.044 137.315  0.00  0.00    +0.000 C 
ENDBRANCH  12  30
TORSDOF 7
ENDMDL
MODEL 8
REMARK VINA RESULT:      -7.2      1.018      4.780
REMARK  Name = 13914993
REMARK  7 active torsions:
REMARK  status: ('A' for Active; 'I' for Inactive)
REMARK    1  A    between atoms: O_2  and  C_15
REMARK    2  A    between atoms: O_3  and  C_19
REMARK    3  A    between atoms: O_4  and  C_20
REMARK    4  A    between atoms: O_5  and  C_21
REMARK    5  A    between atoms: O_7  and  C_24
REMARK    6  A    between atoms: O_8  and  C_25
REMARK    7  A    between atoms: C_13  and  C_14
REMARK                            x       y       z     vdW  Elec       q    Type
REMARK                         _______ _______ _______ _____ _____    ______ ____
ROOT
ATOM      1  O   UNL     1     112.458 127.493 136.370  0.00  0.00    +0.000 OA
ATOM      2  O   UNL     1     113.220 124.704 136.523  0.00  0.00    +0.000 OA
ATOM      3  O   UNL     1     114.220 125.717 136.762  0.00  0.00    +0.000 OA
ATOM      4  C   UNL     1     112.842 126.080 136.447  0.00  0.00    +0.000 A 
ATOM      5  C   UNL     1     112.265 126.657 136.318  0.00  0.00    +0.000 A 
ATOM      6  C   UNL     1     113.262 127.731 136.558  0.00  0.00    +0.000 A 
ATOM      7  C   UNL     1     111.492 126.434 136.137  0.00  0.00    +0.000 A 
ATOM      8  C   UNL     1     112.644 125.281 136.394  0.00  0.00    +0.000 A 
ATOM      9  C   UNL     1     113.650 126.300 136.635  0.00  0.00    +0.000 A 
ATOM     10  C   UNL     1     113.863 127.130 136.691  0.00  0.00    +0.000 A 
ATOM     11  C   UNL     1     111.294 125.635 136.085  0.00  0.00    +0.000 A 
ATOM     12  C   UNL     1     111.871 125.058 136.214  0.00  0.00    +0.000 A 
ENDROOT
BRANCH   6  14
ATOM     13  O   UNL     1     113.520 130.120 138.104  0.00  0.00    +0.000 OA
ATOM     14  C   UNL     1     113.457 128.531 136.609  0.00  0.00    +0.000 A 
ATOM     15  C   UNL     1     113.392 128.926 137.331  0.00  0.00    +0.000 A 
ATOM     16  C   UNL     1     113.718 128.937 135.939  0.00  0.00    +0.000 A 
ATOM     17  C   UNL     1     113.586 129.725 137.383  0.00  0.00    +0.000 A 
ATOM     18  C   UNL     1     113.912 129.737 135.992  0.00  0.00    +0.000 A 
ATOM     19  C   UNL     1     113.847 130.131 136.712  0.00  0.00    +0.000 A 
BRANCH  15  20
ATOM     20  O   UNL     1     113.131 128.521 138.000  0.00  0.00    +0.000 OA
ATOM     21  C   UNL     1     113.177 128.877 138.743  0.00  0.00    +0.000 C 
ENDBRANCH  15  20
BRANCH  18  22
ATOM     22  O   UNL     1     114.173 130.143 135.322  0.00  0.00    +0.000 OA
ATOM     23  C   UNL     1     114.490 129.726 134.685  0.00  0.00    +0.000 C 
ENDBRANCH  18  22
BRANCH  19  24
ATOM     24  O   UNL     1     114.041 130.931 136.765  0.00  0.00    +0.000 OA
ATOM     25  C   UNL     1     113.444 131.500 136.765  0.00  0.00    +0.000 C 
ENDBRANCH  19  24
ENDBRANCH   6  14
BRANCH   7  26
ATOM     26  O   UNL     1     110.916 127.010 136.009  0.00  0.00    +0.000 OA
ATOM     27  C   UNL     1     110.359 127.174 136.594  0.00  0.00    +0.000 C 
ENDBRANCH   7  26
BRANCH  11  28
ATOM     28  O   UNL     1     110.521 125.411 135.904  0.00  0.00    +0.000 OA
ATOM     29  C   UNL     1     110.277 125.368 135.118  0.00  0.00    +0.000 C 
ENDBRANCH  11  28
BRANCH  12  30
ATOM     30  O   UNL     1     111.673 124.258 136.161  0.00  0.00    +0.000 OA
ATOM     31  C   UNL     1     111.719 123.777 136.829  0.00  0.00    +0.000 C 
ENDBRANCH  12  30
TORSDOF 7
ENDMDL
MODEL 9
REMARK VINA RESULT:      -7.2      1.458      4.888
REMARK  Name = 13914993
REMARK  7 active torsions:
REMARK  status: ('A' for Active; 'I' for Inactive)
REMARK    1  A    between atoms: O_2  and  C_15
REMARK    2  A    between atoms: O_3  and  C_19
REMARK    3  A    between atoms: O_4  and  C_20
REMARK    4  A    between atoms: O_5  and  C_21
REMARK    5  A    between atoms: O_7  and  C_24
REMARK    6  A    between atoms: O_8  and  C_25
REMARK    7  A    between atoms: C_13  and  C_14
REMARK                            x       y       z     vdW  Elec       q    Type
REMARK                         _______ _______ _______ _____ _____    ______ ____
ROOT
ATOM      1  O   UNL     1     112.306 126.776 138.306  0.00  0.00    +0.000 OA
ATOM      2  O   UNL     1     113.611 124.439 137.206  0.00  0.00    +0.000 OA
ATOM      3  O   UNL     1     114.355 125.304 138.089  0.00  0.00    +0.000 OA
ATOM      4  C   UNL     1     112.965 125.592 137.748  0.00  0.00    +0.000 A 
ATOM      5  C   UNL     1     112.295 126.070 137.817  0.00  0.00    +0.000 A 
ATOM      6  C   UNL     1     113.023 126.988 138.730  0.00  0.00    +0.000 A 
ATOM      7  C   UNL     1     111.604 125.872 137.413  0.00  0.00    +0.000 A 
ATOM      8  C   UNL     1     112.942 124.916 137.275  0.00  0.00    +0.000 A 
ATOM      9  C   UNL     1     113.690 125.788 138.164  0.00  0.00    +0.000 A 
ATOM     10  C   UNL     1     113.721 126.490 138.658  0.00  0.00    +0.000 A 
ATOM     11  C   UNL     1     111.581 125.197 136.940  0.00  0.00    +0.000 A 
ATOM     12  C   UNL     1     112.251 124.719 136.871  0.00  0.00    +0.000 A 
ENDROOT
BRANCH   6  14
ATOM     13  O   UNL     1     112.781 128.221 141.296  0.00  0.00    +0.000 OA
ATOM     14  C   UNL     1     113.043 127.664 139.202  0.00  0.00    +0.000 A 
ATOM     15  C   UNL     1     112.902 127.605 140.013  0.00  0.00    +0.000 A 
ATOM     16  C   UNL     1     113.204 128.399 138.864  0.00  0.00    +0.000 A 
ATOM     17  C   UNL     1     112.922 128.280 140.485  0.00  0.00    +0.000 A 
ATOM     18  C   UNL     1     113.224 129.075 139.337  0.00  0.00    +0.000 A 
ATOM     19  C   UNL     1     113.083 129.016 140.147  0.00  0.00    +0.000 A 
BRANCH  15  20
ATOM     20  O   UNL     1     112.741 126.870 140.351  0.00  0.00    +0.000 OA
ATOM     21  C   UNL     1     112.304 126.823 141.050  0.00  0.00    +0.000 C 
ENDBRANCH  15  20
BRANCH  18  22
ATOM     22  O   UNL     1     113.385 129.810 138.999  0.00  0.00    +0.000 OA
ATOM     23  C   UNL     1     113.218 129.943 138.202  0.00  0.00    +0.000 C 
ENDBRANCH  18  22
BRANCH  19  24
ATOM     24  O   UNL     1     113.102 129.691 140.620  0.00  0.00    +0.000 OA
ATOM     25  C   UNL     1     113.788 129.880 141.039  0.00  0.00    +0.000 C 
ENDBRANCH  19  24
ENDBRANCH   6  14
BRANCH   7  26
ATOM     26  O   UNL     1     110.935 126.350 137.482  0.00  0.00    +0.000 OA
ATOM     27  C   UNL     1     110.307 126.113 137.960  0.00  0.00    +0.000 C 
ENDBRANCH   7  26
BRANCH  11  28
ATOM     28  O   UNL     1     110.890 124.999 136.536  0.00  0.00    +0.000 OA
ATOM     29  C   UNL     1     110.776 125.255 135.760  0.00  0.00    +0.000 C 
ENDBRANCH  11  28
BRANCH  12  30
ATOM     30  O   UNL     1     112.228 124.043 136.398  0.00  0.00    +0.000 OA
ATOM     31  C   UNL     1     112.179 123.297 136.745  0.00  0.00    +0.000 C 
ENDBRANCH  12  30
TORSDOF 7
ENDMDL
MODEL 10
REMARK VINA RESULT:      -7.0      1.095      4.733
REMARK  Name = 13914993
REMARK  7 active torsions:
REMARK  status: ('A' for Active; 'I' for Inactive)
REMARK    1  A    between atoms: O_2  and  C_15
REMARK    2  A    between atoms: O_3  and  C_19
REMARK    3  A    between atoms: O_4  and  C_20
REMARK    4  A    between atoms: O_5  and  C_21
REMARK    5  A    between atoms: O_7  and  C_24
REMARK    6  A    between atoms: O_8  and  C_25
REMARK    7  A    between atoms: C_13  and  C_14
REMARK                            x       y       z     vdW  Elec       q    Type
REMARK                         _______ _______ _______ _____ _____    ______ ____
ROOT
ATOM      1  O   UNL     1     112.756 127.241 137.162  0.00  0.00    +0.000 OA
ATOM      2  O   UNL     1     111.608 124.947 135.820  0.00  0.00    +0.000 OA
ATOM      3  O   UNL     1     111.037 126.252 135.587  0.00  0.00    +0.000 OA
ATOM      4  C   UNL     1     112.176 126.078 136.483  0.00  0.00    +0.000 A 
ATOM      5  C   UNL     1     112.738 126.398 136.997  0.00  0.00    +0.000 A 
ATOM      6  C   UNL     1     112.181 127.758 136.786  0.00  0.00    +0.000 A 
ATOM      7  C   UNL     1     113.291 125.906 137.360  0.00  0.00    +0.000 A 
ATOM      8  C   UNL     1     112.169 125.266 136.334  0.00  0.00    +0.000 A 
ATOM      9  C   UNL     1     111.595 126.579 136.099  0.00  0.00    +0.000 A 
ATOM     10  C   UNL     1     111.596 127.425 136.251  0.00  0.00    +0.000 A 
ATOM     11  C   UNL     1     113.284 125.095 137.211  0.00  0.00    +0.000 A 
ATOM     12  C   UNL     1     112.723 124.775 136.697  0.00  0.00    +0.000 A 
ENDROOT
BRANCH   6  14
ATOM     13  O   UNL     1     113.084 130.388 136.128  0.00  0.00    +0.000 OA
ATOM     14  C   UNL     1     112.190 128.569 136.938  0.00  0.00    +0.000 A 
ATOM     15  C   UNL     1     112.632 129.074 136.457  0.00  0.00    +0.000 A 
ATOM     16  C   UNL     1     111.758 128.876 137.570  0.00  0.00    +0.000 A 
ATOM     17  C   UNL     1     112.642 129.884 136.609  0.00  0.00    +0.000 A 
ATOM     18  C   UNL     1     111.768 129.687 137.721  0.00  0.00    +0.000 A 
ATOM     19  C   UNL     1     112.209 130.191 137.241  0.00  0.00    +0.000 A 
BRANCH  15  20
ATOM     20  O   UNL     1     113.065 128.767 135.825  0.00  0.00    +0.000 OA
ATOM     21  C   UNL     1     113.725 129.172 135.541  0.00  0.00    +0.000 C 
ENDBRANCH  15  20
BRANCH  18  22
ATOM     22  O   UNL     1     111.335 129.994 138.354  0.00  0.00    +0.000 OA
ATOM     23  C   UNL     1     111.201 129.532 139.024  0.00  0.00    +0.000 C 
ENDBRANCH  18  22
BRANCH  19  24
ATOM     24  O   UNL     1     112.219 131.002 137.392  0.00  0.00    +0.000 OA
ATOM     25  C   UNL     1     111.700 131.501 136.990  0.00  0.00    +0.000 C 
ENDBRANCH  19  24
ENDBRANCH   6  14
BRANCH   7  26
ATOM     26  O   UNL     1     113.853 126.225 137.874  0.00  0.00    +0.000 OA
ATOM     27  C   UNL     1     113.754 126.153 138.689  0.00  0.00    +0.000 C 
ENDBRANCH   7  26
BRANCH  11  28
ATOM     28  O   UNL     1     113.838 124.603 137.574  0.00  0.00    +0.000 OA
ATOM     29  C   UNL     1     114.584 124.501 137.237  0.00  0.00    +0.000 C 
ENDBRANCH  11  28
BRANCH  12  30
ATOM     30  O   UNL     1     112.716 123.964 136.547  0.00  0.00    +0.000 OA
ATOM     31  C   UNL     1     112.119 123.490 136.862  0.00  0.00    +0.000 C 
ENDBRANCH  12  30
TORSDOF 7
ENDMDL
