MODEL 1
REMARK VINA RESULT:     -10.5      0.000      0.000
REMARK  Name = 14427340
REMARK  6 active torsions:
REMARK  status: ('A' for Active; 'I' for Inactive)
REMARK    1  A    between atoms: O_1  and  C_15
REMARK    2  A    between atoms: O_1  and  C_20
REMARK    3  A    between atoms: O_11  and  C_28
REMARK    4  A    between atoms: C_17  and  C_25
REMARK    5  A    between atoms: C_19  and  C_26
REMARK    6  A    between atoms: C_34  and  C_37
REMARK                            x       y       z     vdW  Elec       q    Type
REMARK                         _______ _______ _______ _____ _____    ______ ____
ROOT
ATOM      1  O   UNL     1     113.339 127.333 136.613  0.00  0.00    +0.000 OA
ATOM      2  O   UNL     1     112.501 128.216 138.768  0.00  0.00    +0.000 OA
ATOM      3  O   UNL     1     113.215 129.232 137.681  0.00  0.00    +0.000 OA
ATOM      4  C   UNL     1     112.703 127.119 137.874  0.00  0.00    +0.000 C 
ATOM      5  C   UNL     1     112.780 127.922 138.050  0.00  0.00    +0.000 C 
ATOM      6  C   UNL     1     112.982 126.825 137.157  0.00  0.00    +0.000 C 
ATOM      7  C   UNL     1     113.137 128.430 137.507  0.00  0.00    +0.000 C 
ATOM      8  C   UNL     1     113.417 128.136 136.788  0.00  0.00    +0.000 C 
ENDROOT
BRANCH   6  12
ATOM      9  O   UNL     1     111.563 126.287 136.494  0.00  0.00    +0.000 OA
ATOM     10  O   UNL     1     112.675 123.615 136.455  0.00  0.00    +0.000 OA
ATOM     11  O   UNL     1     111.336 123.822 135.958  0.00  0.00    +0.000 OA
ATOM     12  C   UNL     1     112.904 126.023 136.981  0.00  0.00    +0.000 A 
ATOM     13  C   UNL     1     112.205 125.738 136.651  0.00  0.00    +0.000 A 
ATOM     14  C   UNL     1     113.528 125.505 137.136  0.00  0.00    +0.000 A 
ATOM     15  C   UNL     1     112.127 124.935 136.475  0.00  0.00    +0.000 A 
ATOM     16  C   UNL     1     113.452 124.703 136.961  0.00  0.00    +0.000 A 
ATOM     17  C   UNL     1     112.751 124.418 136.630  0.00  0.00    +0.000 A 
ATOM     18  C   UNL     1     111.404 124.627 136.131  0.00  0.00    +0.000 A 
ATOM     19  C   UNL     1     110.830 125.996 136.149  0.00  0.00    +0.000 A 
ATOM     20  C   UNL     1     110.751 125.160 135.967  0.00  0.00    +0.000 A 
BRANCH  19  22
ATOM     21  O   UNL     1     108.343 128.076 135.534  0.00  0.00    +0.000 OA
ATOM     22  C   UNL     1     110.209 126.516 135.995  0.00  0.00    +0.000 A 
ATOM     23  C   UNL     1     110.203 126.957 135.298  0.00  0.00    +0.000 A 
ATOM     24  C   UNL     1     109.593 126.594 136.538  0.00  0.00    +0.000 A 
ATOM     25  C   UNL     1     109.581 127.477 135.145  0.00  0.00    +0.000 A 
ATOM     26  C   UNL     1     108.970 127.114 136.385  0.00  0.00    +0.000 A 
ATOM     27  C   UNL     1     108.965 127.556 135.688  0.00  0.00    +0.000 A 
ENDBRANCH  19  22
BRANCH  14  28
ATOM     28  O   UNL     1     114.229 125.790 137.467  0.00  0.00    +0.000 OA
ATOM     29  C   UNL     1     114.908 125.323 137.459  0.00  0.00    +0.000 C 
ENDBRANCH  14  28
ENDBRANCH   6  12
BRANCH   8  31
ATOM     30  O   UNL     1     113.680 128.513 135.435  0.00  0.00    +0.000 OA
ATOM     31  C   UNL     1     113.774 128.644 136.245  0.00  0.00    +0.000 C 
ENDBRANCH   8  31
BRANCH   4  32
ATOM     32  O   UNL     1     112.346 126.611 138.418  0.00  0.00    +0.000 OA
BRANCH  32  37
ATOM     33  O   UNL     1     113.296 126.870 139.453  0.00  0.00    +0.000 OA
ATOM     34  O   UNL     1     111.185 126.326 139.554  0.00  0.00    +0.000 OA
ATOM     35  O   UNL     1     111.554 126.441 141.158  0.00  0.00    +0.000 OA
ATOM     36  O   UNL     1     113.085 126.842 141.625  0.00  0.00    +0.000 OA
ATOM     37  C   UNL     1     112.531 126.669 139.220  0.00  0.00    +0.000 C 
ATOM     38  C   UNL     1     111.950 126.526 139.789  0.00  0.00    +0.000 C 
ATOM     39  C   UNL     1     112.135 126.584 140.590  0.00  0.00    +0.000 C 
ATOM     40  C   UNL     1     112.900 126.784 140.823  0.00  0.00    +0.000 C 
ATOM     41  C   UNL     1     113.480 126.927 140.255  0.00  0.00    +0.000 C 
ATOM     42  C   UNL     1     114.247 127.128 140.488  0.00  0.00    +0.000 C 
ENDBRANCH  32  37
ENDBRANCH   4  32
TORSDOF 6
ENDMDL
MODEL 2
REMARK VINA RESULT:     -10.2      1.269      3.166
REMARK  Name = 14427340
REMARK  6 active torsions:
REMARK  status: ('A' for Active; 'I' for Inactive)
REMARK    1  A    between atoms: O_1  and  C_15
REMARK    2  A    between atoms: O_1  and  C_20
REMARK    3  A    between atoms: O_11  and  C_28
REMARK    4  A    between atoms: C_17  and  C_25
REMARK    5  A    between atoms: C_19  and  C_26
REMARK    6  A    between atoms: C_34  and  C_37
REMARK                            x       y       z     vdW  Elec       q    Type
REMARK                         _______ _______ _______ _____ _____    ______ ____
ROOT
ATOM      1  O   UNL     1     113.629 125.782 136.337  0.00  0.00    +0.000 OA
ATOM      2  O   UNL     1     113.537 125.673 138.807  0.00  0.00    +0.000 OA
ATOM      3  O   UNL     1     114.958 125.383 138.021  0.00  0.00    +0.000 OA
ATOM      4  C   UNL     1     112.888 125.891 137.553  0.00  0.00    +0.000 C 
ATOM      5  C   UNL     1     113.567 125.709 137.984  0.00  0.00    +0.000 C 
ATOM      6  C   UNL     1     112.918 125.927 136.730  0.00  0.00    +0.000 C 
ATOM      7  C   UNL     1     114.278 125.564 137.591  0.00  0.00    +0.000 C 
ATOM      8  C   UNL     1     114.309 125.600 136.767  0.00  0.00    +0.000 C 
ENDROOT
BRANCH   6  12
ATOM      9  O   UNL     1     112.752 127.452 136.106  0.00  0.00    +0.000 OA
ATOM     10  O   UNL     1     110.199 126.650 135.005  0.00  0.00    +0.000 OA
ATOM     11  O   UNL     1     110.663 127.998 134.784  0.00  0.00    +0.000 OA
ATOM     12  C   UNL     1     112.238 126.108 136.298  0.00  0.00    +0.000 A 
ATOM     13  C   UNL     1     112.140 126.863 135.981  0.00  0.00    +0.000 A 
ATOM     14  C   UNL     1     111.657 125.534 136.185  0.00  0.00    +0.000 A 
ATOM     15  C   UNL     1     111.460 127.044 135.550  0.00  0.00    +0.000 A 
ATOM     16  C   UNL     1     110.977 125.714 135.754  0.00  0.00    +0.000 A 
ATOM     17  C   UNL     1     110.879 126.470 135.436  0.00  0.00    +0.000 A 
ATOM     18  C   UNL     1     111.346 127.826 135.214  0.00  0.00    +0.000 A 
ATOM     19  C   UNL     1     112.656 128.241 135.778  0.00  0.00    +0.000 A 
ATOM     20  C   UNL     1     111.948 128.429 135.329  0.00  0.00    +0.000 A 
BRANCH  19  22
ATOM     21  O   UNL     1     114.988 130.530 136.237  0.00  0.00    +0.000 OA
ATOM     22  C   UNL     1     113.239 128.813 135.893  0.00  0.00    +0.000 A 
ATOM     23  C   UNL     1     113.125 129.411 136.449  0.00  0.00    +0.000 A 
ATOM     24  C   UNL     1     113.935 128.786 135.451  0.00  0.00    +0.000 A 
ATOM     25  C   UNL     1     113.709 129.983 136.563  0.00  0.00    +0.000 A 
ATOM     26  C   UNL     1     114.519 129.359 135.565  0.00  0.00    +0.000 A 
ATOM     27  C   UNL     1     114.405 129.957 136.122  0.00  0.00    +0.000 A 
ENDBRANCH  19  22
BRANCH  14  28
ATOM     28  O   UNL     1     111.755 124.778 136.503  0.00  0.00    +0.000 OA
ATOM     29  C   UNL     1     111.357 124.136 136.172  0.00  0.00    +0.000 C 
ENDBRANCH  14  28
ENDBRANCH   6  12
BRANCH   8  31
ATOM     30  O   UNL     1     115.016 125.063 135.647  0.00  0.00    +0.000 OA
ATOM     31  C   UNL     1     115.020 125.455 136.374  0.00  0.00    +0.000 C 
ENDBRANCH   8  31
BRANCH   4  32
ATOM     32  O   UNL     1     112.177 126.036 137.946  0.00  0.00    +0.000 OA
BRANCH  32  37
ATOM     33  O   UNL     1     112.645 127.137 138.727  0.00  0.00    +0.000 OA
ATOM     34  O   UNL     1     111.237 125.539 139.208  0.00  0.00    +0.000 OA
ATOM     35  O   UNL     1     111.235 126.392 140.620  0.00  0.00    +0.000 OA
ATOM     36  O   UNL     1     112.172 127.741 140.771  0.00  0.00    +0.000 OA
ATOM     37  C   UNL     1     112.176 126.463 138.653  0.00  0.00    +0.000 C 
ATOM     38  C   UNL     1     111.706 126.214 139.284  0.00  0.00    +0.000 C 
ATOM     39  C   UNL     1     111.705 126.640 139.989  0.00  0.00    +0.000 C 
ATOM     40  C   UNL     1     112.173 127.315 140.065  0.00  0.00    +0.000 C 
ATOM     41  C   UNL     1     112.643 127.563 139.434  0.00  0.00    +0.000 C 
ATOM     42  C   UNL     1     113.112 128.238 139.509  0.00  0.00    +0.000 C 
ENDBRANCH  32  37
ENDBRANCH   4  32
TORSDOF 6
ENDMDL
MODEL 3
REMARK VINA RESULT:     -10.1      1.604      3.473
REMARK  Name = 14427340
REMARK  6 active torsions:
REMARK  status: ('A' for Active; 'I' for Inactive)
REMARK    1  A    between atoms: O_1  and  C_15
REMARK    2  A    between atoms: O_1  and  C_20
REMARK    3  A    between atoms: O_11  and  C_28
REMARK    4  A    between atoms: C_17  and  C_25
REMARK    5  A    between atoms: C_19  and  C_26
REMARK    6  A    between atoms: C_34  and  C_37
REMARK                            x       y       z     vdW  Elec       q    Type
REMARK                         _______ _______ _______ _____ _____    ______ ____
ROOT
ATOM      1  O   UNL     1     112.413 128.479 135.610  0.00  0.00    +0.000 OA
ATOM      2  O   UNL     1     111.774 129.725 137.651  0.00  0.00    +0.000 OA
ATOM      3  O   UNL     1     113.201 130.059 136.893  0.00  0.00    +0.000 OA
ATOM      4  C   UNL     1     111.486 128.727 136.669  0.00  0.00    +0.000 C 
ATOM      5  C   UNL     1     111.987 129.310 136.971  0.00  0.00    +0.000 C 
ATOM      6  C   UNL     1     111.699 128.312 135.989  0.00  0.00    +0.000 C 
ATOM      7  C   UNL     1     112.700 129.477 136.592  0.00  0.00    +0.000 C 
ATOM      8  C   UNL     1     112.914 129.062 135.911  0.00  0.00    +0.000 C 
ENDROOT
BRANCH   6  12
ATOM      9  O   UNL     1     112.106 126.721 136.203  0.00  0.00    +0.000 OA
ATOM     10  O   UNL     1     109.697 125.985 134.780  0.00  0.00    +0.000 OA
ATOM     11  O   UNL     1     110.564 124.942 135.272  0.00  0.00    +0.000 OA
ATOM     12  C   UNL     1     111.199 127.730 135.687  0.00  0.00    +0.000 A 
ATOM     13  C   UNL     1     111.386 126.933 135.785  0.00  0.00    +0.000 A 
ATOM     14  C   UNL     1     110.510 127.945 135.286  0.00  0.00    +0.000 A 
ATOM     15  C   UNL     1     110.886 126.351 135.482  0.00  0.00    +0.000 A 
ATOM     16  C   UNL     1     110.009 127.364 134.984  0.00  0.00    +0.000 A 
ATOM     17  C   UNL     1     110.197 126.566 135.082  0.00  0.00    +0.000 A 
ATOM     18  C   UNL     1     111.070 125.517 135.578  0.00  0.00    +0.000 A 
ATOM     19  C   UNL     1     112.307 125.892 136.309  0.00  0.00    +0.000 A 
ATOM     20  C   UNL     1     111.786 125.286 135.994  0.00  0.00    +0.000 A 
BRANCH  19  22
ATOM     21  O   UNL     1     115.064 125.042 137.912  0.00  0.00    +0.000 OA
ATOM     22  C   UNL     1     112.996 125.680 136.710  0.00  0.00    +0.000 A 
ATOM     23  C   UNL     1     112.956 125.432 137.496  0.00  0.00    +0.000 A 
ATOM     24  C   UNL     1     113.724 125.715 136.325  0.00  0.00    +0.000 A 
ATOM     25  C   UNL     1     113.646 125.220 137.896  0.00  0.00    +0.000 A 
ATOM     26  C   UNL     1     114.415 125.503 136.725  0.00  0.00    +0.000 A 
ATOM     27  C   UNL     1     114.375 125.255 137.511  0.00  0.00    +0.000 A 
ENDBRANCH  19  22
BRANCH  14  28
ATOM     28  O   UNL     1     110.322 128.743 135.188  0.00  0.00    +0.000 OA
ATOM     29  C   UNL     1     109.777 128.971 134.612  0.00  0.00    +0.000 C 
ENDBRANCH  14  28
ENDBRANCH   6  12
BRANCH   8  31
ATOM     30  O   UNL     1     113.671 129.208 134.708  0.00  0.00    +0.000 OA
ATOM     31  C   UNL     1     113.627 129.229 135.532  0.00  0.00    +0.000 C 
ENDBRANCH   8  31
BRANCH   4  32
ATOM     32  O   UNL     1     110.773 128.560 137.047  0.00  0.00    +0.000 OA
BRANCH  32  37
ATOM     33  O   UNL     1     111.390 128.204 138.286  0.00  0.00    +0.000 OA
ATOM     34  O   UNL     1     109.427 129.060 137.862  0.00  0.00    +0.000 OA
ATOM     35  O   UNL     1     109.372 128.953 139.507  0.00  0.00    +0.000 OA
ATOM     36  O   UNL     1     110.662 128.347 140.339  0.00  0.00    +0.000 OA
ATOM     37  C   UNL     1     110.745 128.507 137.871  0.00  0.00    +0.000 C 
ATOM     38  C   UNL     1     110.072 128.757 138.278  0.00  0.00    +0.000 C 
ATOM     39  C   UNL     1     110.045 128.704 139.100  0.00  0.00    +0.000 C 
ATOM     40  C   UNL     1     110.689 128.401 139.516  0.00  0.00    +0.000 C 
ATOM     41  C   UNL     1     111.362 128.151 139.109  0.00  0.00    +0.000 C 
ATOM     42  C   UNL     1     112.007 127.848 139.525  0.00  0.00    +0.000 C 
ENDBRANCH  32  37
ENDBRANCH   4  32
TORSDOF 6
ENDMDL
MODEL 4
REMARK VINA RESULT:     -10.0      1.315      3.121
REMARK  Name = 14427340
REMARK  6 active torsions:
REMARK  status: ('A' for Active; 'I' for Inactive)
REMARK    1  A    between atoms: O_1  and  C_15
REMARK    2  A    between atoms: O_1  and  C_20
REMARK    3  A    between atoms: O_11  and  C_28
REMARK    4  A    between atoms: C_17  and  C_25
REMARK    5  A    between atoms: C_19  and  C_26
REMARK    6  A    between atoms: C_34  and  C_37
REMARK                            x       y       z     vdW  Elec       q    Type
REMARK                         _______ _______ _______ _____ _____    ______ ____
ROOT
ATOM      1  O   UNL     1     111.701 126.745 139.231  0.00  0.00    +0.000 OA
ATOM      2  O   UNL     1     111.488 129.042 138.336  0.00  0.00    +0.000 OA
ATOM      3  O   UNL     1     110.345 128.450 139.368  0.00  0.00    +0.000 OA
ATOM      4  C   UNL     1     112.201 127.806 138.417  0.00  0.00    +0.000 C 
ATOM      5  C   UNL     1     111.559 128.277 138.634  0.00  0.00    +0.000 C 
ATOM      6  C   UNL     1     112.272 127.041 138.715  0.00  0.00    +0.000 C 
ATOM      7  C   UNL     1     110.988 127.980 139.150  0.00  0.00    +0.000 C 
ATOM      8  C   UNL     1     111.059 127.214 139.449  0.00  0.00    +0.000 C 
ENDROOT
BRANCH   6  12
ATOM      9  O   UNL     1     112.196 126.193 137.294  0.00  0.00    +0.000 OA
ATOM     10  O   UNL     1     114.842 125.161 137.847  0.00  0.00    +0.000 OA
ATOM     11  O   UNL     1     114.172 124.753 136.637  0.00  0.00    +0.000 OA
ATOM     12  C   UNL     1     112.915 126.571 138.497  0.00  0.00    +0.000 A 
ATOM     13  C   UNL     1     112.893 126.142 137.794  0.00  0.00    +0.000 A 
ATOM     14  C   UNL     1     113.579 126.530 138.985  0.00  0.00    +0.000 A 
ATOM     15  C   UNL     1     113.535 125.672 137.576  0.00  0.00    +0.000 A 
ATOM     16  C   UNL     1     114.221 126.060 138.769  0.00  0.00    +0.000 A 
ATOM     17  C   UNL     1     114.200 125.631 138.064  0.00  0.00    +0.000 A 
ATOM     18  C   UNL     1     113.525 125.221 136.846  0.00  0.00    +0.000 A 
ATOM     19  C   UNL     1     112.167 125.749 136.559  0.00  0.00    +0.000 A 
ATOM     20  C   UNL     1     112.836 125.259 136.333  0.00  0.00    +0.000 A 
BRANCH  19  22
ATOM     21  O   UNL     1     109.505 125.922 134.615  0.00  0.00    +0.000 OA
ATOM     22  C   UNL     1     111.501 125.792 136.073  0.00  0.00    +0.000 A 
ATOM     23  C   UNL     1     110.848 125.312 136.226  0.00  0.00    +0.000 A 
ATOM     24  C   UNL     1     111.490 126.314 135.435  0.00  0.00    +0.000 A 
ATOM     25  C   UNL     1     110.182 125.356 135.739  0.00  0.00    +0.000 A 
ATOM     26  C   UNL     1     110.824 126.358 134.949  0.00  0.00    +0.000 A 
ATOM     27  C   UNL     1     110.171 125.878 135.101  0.00  0.00    +0.000 A 
ENDBRANCH  19  22
BRANCH  14  28
ATOM     28  O   UNL     1     113.601 126.959 139.690  0.00  0.00    +0.000 OA
ATOM     29  C   UNL     1     114.151 126.766 140.274  0.00  0.00    +0.000 C 
ENDBRANCH  14  28
ENDBRANCH   6  12
BRANCH   8  31
ATOM     30  O   UNL     1     110.200 126.151 139.866  0.00  0.00    +0.000 OA
ATOM     31  C   UNL     1     110.487 126.918 139.966  0.00  0.00    +0.000 C 
ENDBRANCH   8  31
BRANCH   4  32
ATOM     32  O   UNL     1     112.772 128.102 137.900  0.00  0.00    +0.000 OA
BRANCH  32  37
ATOM     33  O   UNL     1     113.206 129.154 138.766  0.00  0.00    +0.000 OA
ATOM     34  O   UNL     1     113.085 129.053 136.588  0.00  0.00    +0.000 OA
ATOM     35  O   UNL     1     113.675 130.580 136.798  0.00  0.00    +0.000 OA
ATOM     36  O   UNL     1     113.952 131.156 138.319  0.00  0.00    +0.000 OA
ATOM     37  C   UNL     1     113.067 128.866 138.005  0.00  0.00    +0.000 C 
ATOM     38  C   UNL     1     113.224 129.342 137.349  0.00  0.00    +0.000 C 
ATOM     39  C   UNL     1     113.518 130.105 137.454  0.00  0.00    +0.000 C 
ATOM     40  C   UNL     1     113.657 130.392 138.214  0.00  0.00    +0.000 C 
ATOM     41  C   UNL     1     113.500 129.917 138.870  0.00  0.00    +0.000 C 
ATOM     42  C   UNL     1     113.639 130.205 139.631  0.00  0.00    +0.000 C 
ENDBRANCH  32  37
ENDBRANCH   4  32
TORSDOF 6
ENDMDL
MODEL 5
REMARK VINA RESULT:     -10.0      1.409      4.476
REMARK  Name = 14427340
REMARK  6 active torsions:
REMARK  status: ('A' for Active; 'I' for Inactive)
REMARK    1  A    between atoms: O_1  and  C_15
REMARK    2  A    between atoms: O_1  and  C_20
REMARK    3  A    between atoms: O_11  and  C_28
REMARK    4  A    between atoms: C_17  and  C_25
REMARK    5  A    between atoms: C_19  and  C_26
REMARK    6  A    between atoms: C_34  and  C_37
REMARK                            x       y       z     vdW  Elec       q    Type
REMARK                         _______ _______ _______ _____ _____    ______ ____
ROOT
ATOM      1  O   UNL     1     112.999 129.035 136.739  0.00  0.00    +0.000 OA
ATOM      2  O   UNL     1     111.165 128.293 135.253  0.00  0.00    +0.000 OA
ATOM      3  O   UNL     1     112.507 129.008 134.612  0.00  0.00    +0.000 OA
ATOM      4  C   UNL     1     111.717 128.430 136.564  0.00  0.00    +0.000 C 
ATOM      5  C   UNL     1     111.776 128.540 135.748  0.00  0.00    +0.000 C 
ATOM      6  C   UNL     1     112.328 128.677 137.059  0.00  0.00    +0.000 C 
ATOM      7  C   UNL     1     112.447 128.897 135.428  0.00  0.00    +0.000 C 
ATOM      8  C   UNL     1     113.059 129.145 135.923  0.00  0.00    +0.000 C 
ENDROOT
BRANCH   6  12
ATOM      9  O   UNL     1     112.766 127.215 137.701  0.00  0.00    +0.000 OA
ATOM     10  O   UNL     1     112.091 128.241 140.321  0.00  0.00    +0.000 OA
ATOM     11  O   UNL     1     112.581 126.889 140.205  0.00  0.00    +0.000 OA
ATOM     12  C   UNL     1     112.269 128.568 137.874  0.00  0.00    +0.000 A 
ATOM     13  C   UNL     1     112.483 127.846 138.211  0.00  0.00    +0.000 A 
ATOM     14  C   UNL     1     111.995 129.181 138.354  0.00  0.00    +0.000 A 
ATOM     15  C   UNL     1     112.424 127.736 139.026  0.00  0.00    +0.000 A 
ATOM     16  C   UNL     1     111.936 129.073 139.169  0.00  0.00    +0.000 A 
ATOM     17  C   UNL     1     112.150 128.350 139.506  0.00  0.00    +0.000 A 
ATOM     18  C   UNL     1     112.643 126.989 139.388  0.00  0.00    +0.000 A 
ATOM     19  C   UNL     1     112.990 126.460 138.045  0.00  0.00    +0.000 A 
ATOM     20  C   UNL     1     112.929 126.347 138.894  0.00  0.00    +0.000 A 
BRANCH  19  22
ATOM     21  O   UNL     1     114.081 124.013 136.118  0.00  0.00    +0.000 OA
ATOM     22  C   UNL     1     113.263 125.848 137.563  0.00  0.00    +0.000 A 
ATOM     23  C   UNL     1     114.055 125.828 137.331  0.00  0.00    +0.000 A 
ATOM     24  C   UNL     1     112.744 125.258 137.314  0.00  0.00    +0.000 A 
ATOM     25  C   UNL     1     114.327 125.216 136.849  0.00  0.00    +0.000 A 
ATOM     26  C   UNL     1     113.017 124.645 136.831  0.00  0.00    +0.000 A 
ATOM     27  C   UNL     1     113.808 124.625 136.599  0.00  0.00    +0.000 A 
ENDBRANCH  19  22
BRANCH  14  28
ATOM     28  O   UNL     1     111.781 129.904 138.018  0.00  0.00    +0.000 OA
ATOM     29  C   UNL     1     111.728 130.579 138.489  0.00  0.00    +0.000 C 
ENDBRANCH  14  28
ENDBRANCH   6  12
BRANCH   8  31
ATOM     30  O   UNL     1     114.439 129.501 136.026  0.00  0.00    +0.000 OA
ATOM     31  C   UNL     1     113.730 129.502 135.603  0.00  0.00    +0.000 C 
ENDBRANCH   8  31
BRANCH   4  32
ATOM     32  O   UNL     1     111.045 128.073 136.884  0.00  0.00    +0.000 OA
BRANCH  32  37
ATOM     33  O   UNL     1     110.122 129.066 136.433  0.00  0.00    +0.000 OA
ATOM     34  O   UNL     1     109.897 126.908 136.672  0.00  0.00    +0.000 OA
ATOM     35  O   UNL     1     108.398 127.318 136.115  0.00  0.00    +0.000 OA
ATOM     36  O   UNL     1     108.049 128.894 135.771  0.00  0.00    +0.000 OA
ATOM     37  C   UNL     1     110.296 128.278 136.605  0.00  0.00    +0.000 C 
ATOM     38  C   UNL     1     109.721 127.696 136.499  0.00  0.00    +0.000 C 
ATOM     39  C   UNL     1     108.973 127.901 136.221  0.00  0.00    +0.000 C 
ATOM     40  C   UNL     1     108.798 128.688 136.049  0.00  0.00    +0.000 C 
ATOM     41  C   UNL     1     109.373 129.270 136.155  0.00  0.00    +0.000 C 
ATOM     42  C   UNL     1     109.198 130.059 135.982  0.00  0.00    +0.000 C 
ENDBRANCH  32  37
ENDBRANCH   4  32
TORSDOF 6
ENDMDL
MODEL 6
REMARK VINA RESULT:      -9.9      1.483      4.392
REMARK  Name = 14427340
REMARK  6 active torsions:
REMARK  status: ('A' for Active; 'I' for Inactive)
REMARK    1  A    between atoms: O_1  and  C_15
REMARK    2  A    between atoms: O_1  and  C_20
REMARK    3  A    between atoms: O_11  and  C_28
REMARK    4  A    between atoms: C_17  and  C_25
REMARK    5  A    between atoms: C_19  and  C_26
REMARK    6  A    between atoms: C_34  and  C_37
REMARK                            x       y       z     vdW  Elec       q    Type
REMARK                         _______ _______ _______ _____ _____    ______ ____
ROOT
ATOM      1  O   UNL     1     110.998 125.612 138.466  0.00  0.00    +0.000 OA
ATOM      2  O   UNL     1     110.001 127.337 136.999  0.00  0.00    +0.000 OA
ATOM      3  O   UNL     1     109.221 126.875 138.378  0.00  0.00    +0.000 OA
ATOM      4  C   UNL     1     111.056 126.417 137.288  0.00  0.00    +0.000 C 
ATOM      5  C   UNL     1     110.333 126.762 137.487  0.00  0.00    +0.000 C 
ATOM      6  C   UNL     1     111.388 125.843 137.776  0.00  0.00    +0.000 C 
ATOM      7  C   UNL     1     109.943 126.531 138.177  0.00  0.00    +0.000 C 
ATOM      8  C   UNL     1     110.276 125.955 138.666  0.00  0.00    +0.000 C 
ENDROOT
BRANCH   6  12
ATOM      9  O   UNL     1     112.746 126.298 138.608  0.00  0.00    +0.000 OA
ATOM     10  O   UNL     1     114.277 124.463 136.976  0.00  0.00    +0.000 OA
ATOM     11  O   UNL     1     114.958 125.234 137.987  0.00  0.00    +0.000 OA
ATOM     12  C   UNL     1     112.111 125.498 137.577  0.00  0.00    +0.000 A 
ATOM     13  C   UNL     1     112.797 125.713 137.980  0.00  0.00    +0.000 A 
ATOM     14  C   UNL     1     112.147 124.938 136.972  0.00  0.00    +0.000 A 
ATOM     15  C   UNL     1     113.519 125.369 137.781  0.00  0.00    +0.000 A 
ATOM     16  C   UNL     1     112.869 124.592 136.772  0.00  0.00    +0.000 A 
ATOM     17  C   UNL     1     113.555 124.808 137.176  0.00  0.00    +0.000 A 
ATOM     18  C   UNL     1     114.240 125.584 138.194  0.00  0.00    +0.000 A 
ATOM     19  C   UNL     1     113.458 126.527 139.033  0.00  0.00    +0.000 A 
ATOM     20  C   UNL     1     114.210 126.167 138.824  0.00  0.00    +0.000 A 
BRANCH  19  22
ATOM     21  O   UNL     1     113.301 128.769 141.450  0.00  0.00    +0.000 OA
ATOM     22  C   UNL     1     113.419 127.087 139.637  0.00  0.00    +0.000 A 
ATOM     23  C   UNL     1     113.640 127.868 139.490  0.00  0.00    +0.000 A 
ATOM     24  C   UNL     1     113.158 126.866 140.388  0.00  0.00    +0.000 A 
ATOM     25  C   UNL     1     113.601 128.428 140.094  0.00  0.00    +0.000 A 
ATOM     26  C   UNL     1     113.119 127.427 140.993  0.00  0.00    +0.000 A 
ATOM     27  C   UNL     1     113.340 128.208 140.846  0.00  0.00    +0.000 A 
ENDBRANCH  19  22
BRANCH  14  28
ATOM     28  O   UNL     1     111.460 124.722 136.568  0.00  0.00    +0.000 OA
ATOM     29  C   UNL     1     111.447 124.032 136.116  0.00  0.00    +0.000 C 
ENDBRANCH  14  28
ENDBRANCH   6  12
BRANCH   8  31
ATOM     30  O   UNL     1     110.101 125.024 139.736  0.00  0.00    +0.000 OA
ATOM     31  C   UNL     1     109.886 125.724 139.356  0.00  0.00    +0.000 C 
ENDBRANCH   8  31
BRANCH   4  32
ATOM     32  O   UNL     1     111.446 126.648 136.598  0.00  0.00    +0.000 OA
BRANCH  32  37
ATOM     33  O   UNL     1     111.605 128.017 136.978  0.00  0.00    +0.000 OA
ATOM     34  O   UNL     1     111.281 127.105 135.021  0.00  0.00    +0.000 OA
ATOM     35  O   UNL     1     111.358 128.702 134.613  0.00  0.00    +0.000 OA
ATOM     36  O   UNL     1     111.600 129.842 135.781  0.00  0.00    +0.000 OA
ATOM     37  C   UNL     1     111.484 127.447 136.394  0.00  0.00    +0.000 C 
ATOM     38  C   UNL     1     111.402 127.676 135.605  0.00  0.00    +0.000 C 
ATOM     39  C   UNL     1     111.441 128.474 135.401  0.00  0.00    +0.000 C 
ATOM     40  C   UNL     1     111.561 129.043 135.985  0.00  0.00    +0.000 C 
ATOM     41  C   UNL     1     111.644 128.815 136.773  0.00  0.00    +0.000 C 
ATOM     42  C   UNL     1     111.764 129.385 137.358  0.00  0.00    +0.000 C 
ENDBRANCH  32  37
ENDBRANCH   4  32
TORSDOF 6
ENDMDL
MODEL 7
REMARK VINA RESULT:      -9.8      1.575      4.681
REMARK  Name = 14427340
REMARK  6 active torsions:
REMARK  status: ('A' for Active; 'I' for Inactive)
REMARK    1  A    between atoms: O_1  and  C_15
REMARK    2  A    between atoms: O_1  and  C_20
REMARK    3  A    between atoms: O_11  and  C_28
REMARK    4  A    between atoms: C_17  and  C_25
REMARK    5  A    between atoms: C_19  and  C_26
REMARK    6  A    between atoms: C_34  and  C_37
REMARK                            x       y       z     vdW  Elec       q    Type
REMARK                         _______ _______ _______ _____ _____    ______ ____
ROOT
ATOM      1  O   UNL     1     111.265 128.111 138.094  0.00  0.00    +0.000 OA
ATOM      2  O   UNL     1     112.030 129.629 136.295  0.00  0.00    +0.000 OA
ATOM      3  O   UNL     1     110.632 128.772 136.113  0.00  0.00    +0.000 OA
ATOM      4  C   UNL     1     112.219 129.045 137.586  0.00  0.00    +0.000 C 
ATOM      5  C   UNL     1     111.776 129.123 136.895  0.00  0.00    +0.000 C 
ATOM      6  C   UNL     1     111.965 128.540 138.185  0.00  0.00    +0.000 C 
ATOM      7  C   UNL     1     111.076 128.695 136.803  0.00  0.00    +0.000 C 
ATOM      8  C   UNL     1     110.821 128.188 137.403  0.00  0.00    +0.000 C 
ENDROOT
BRANCH   6  12
ATOM      9  O   UNL     1     112.888 127.180 138.392  0.00  0.00    +0.000 OA
ATOM     10  O   UNL     1     113.738 128.230 140.951  0.00  0.00    +0.000 OA
ATOM     11  O   UNL     1     114.245 126.951 140.516  0.00  0.00    +0.000 OA
ATOM     12  C   UNL     1     112.408 128.462 138.877  0.00  0.00    +0.000 A 
ATOM     13  C   UNL     1     112.873 127.791 138.995  0.00  0.00    +0.000 A 
ATOM     14  C   UNL     1     112.386 129.055 139.449  0.00  0.00    +0.000 A 
ATOM     15  C   UNL     1     113.317 127.713 139.687  0.00  0.00    +0.000 A 
ATOM     16  C   UNL     1     112.829 128.978 140.141  0.00  0.00    +0.000 A 
ATOM     17  C   UNL     1     113.295 128.307 140.259  0.00  0.00    +0.000 A 
ATOM     18  C   UNL     1     113.805 127.020 139.822  0.00  0.00    +0.000 A 
ATOM     19  C   UNL     1     113.371 126.479 138.509  0.00  0.00    +0.000 A 
ATOM     20  C   UNL     1     113.832 126.398 139.229  0.00  0.00    +0.000 A 
BRANCH  19  22
ATOM     21  O   UNL     1     113.452 124.112 136.211  0.00  0.00    +0.000 OA
ATOM     22  C   UNL     1     113.391 125.887 137.934  0.00  0.00    +0.000 A 
ATOM     23  C   UNL     1     112.727 125.415 137.805  0.00  0.00    +0.000 A 
ATOM     24  C   UNL     1     114.075 125.768 137.490  0.00  0.00    +0.000 A 
ATOM     25  C   UNL     1     112.748 124.824 137.230  0.00  0.00    +0.000 A 
ATOM     26  C   UNL     1     114.096 125.175 136.915  0.00  0.00    +0.000 A 
ATOM     27  C   UNL     1     113.432 124.704 136.785  0.00  0.00    +0.000 A 
ENDBRANCH  19  22
BRANCH  14  28
ATOM     28  O   UNL     1     111.921 129.726 139.331  0.00  0.00    +0.000 OA
ATOM     29  C   UNL     1     111.705 130.198 139.972  0.00  0.00    +0.000 C 
ENDBRANCH  14  28
ENDBRANCH   6  12
BRANCH   8  31
ATOM     30  O   UNL     1     109.597 127.689 137.944  0.00  0.00    +0.000 OA
ATOM     31  C   UNL     1     110.122 127.760 137.312  0.00  0.00    +0.000 C 
ENDBRANCH   8  31
BRANCH   4  32
ATOM     32  O   UNL     1     112.918 129.474 137.677  0.00  0.00    +0.000 OA
BRANCH  32  37
ATOM     33  O   UNL     1     113.582 128.914 136.542  0.00  0.00    +0.000 OA
ATOM     34  O   UNL     1     113.672 130.916 137.407  0.00  0.00    +0.000 OA
ATOM     35  O   UNL     1     114.712 131.079 136.136  0.00  0.00    +0.000 OA
ATOM     36  O   UNL     1     114.999 129.798 135.136  0.00  0.00    +0.000 OA
ATOM     37  C   UNL     1     113.439 129.555 137.041  0.00  0.00    +0.000 C 
ATOM     38  C   UNL     1     113.816 130.276 136.906  0.00  0.00    +0.000 C 
ATOM     39  C   UNL     1     114.335 130.357 136.271  0.00  0.00    +0.000 C 
ATOM     40  C   UNL     1     114.478 129.718 135.772  0.00  0.00    +0.000 C 
ATOM     41  C   UNL     1     114.102 128.996 135.907  0.00  0.00    +0.000 C 
ATOM     42  C   UNL     1     114.245 128.355 135.406  0.00  0.00    +0.000 C 
ENDBRANCH  32  37
ENDBRANCH   4  32
TORSDOF 6
ENDMDL
MODEL 8
REMARK VINA RESULT:      -9.8      1.393      4.659
REMARK  Name = 14427340
REMARK  6 active torsions:
REMARK  status: ('A' for Active; 'I' for Inactive)
REMARK    1  A    between atoms: O_1  and  C_15
REMARK    2  A    between atoms: O_1  and  C_20
REMARK    3  A    between atoms: O_11  and  C_28
REMARK    4  A    between atoms: C_17  and  C_25
REMARK    5  A    between atoms: C_19  and  C_26
REMARK    6  A    between atoms: C_34  and  C_37
REMARK                            x       y       z     vdW  Elec       q    Type
REMARK                         _______ _______ _______ _____ _____    ______ ____
ROOT
ATOM      1  O   UNL     1     112.078 128.338 138.763  0.00  0.00    +0.000 OA
ATOM      2  O   UNL     1     109.661 128.065 138.309  0.00  0.00    +0.000 OA
ATOM      3  O   UNL     1     110.297 127.533 139.735  0.00  0.00    +0.000 OA
ATOM      4  C   UNL     1     110.954 128.512 137.898  0.00  0.00    +0.000 C 
ATOM      5  C   UNL     1     110.466 128.156 138.460  0.00  0.00    +0.000 C 
ATOM      6  C   UNL     1     111.759 128.603 138.049  0.00  0.00    +0.000 C 
ATOM      7  C   UNL     1     110.784 127.890 139.173  0.00  0.00    +0.000 C 
ATOM      8  C   UNL     1     111.591 127.981 139.325  0.00  0.00    +0.000 C 
ENDROOT
BRANCH   6  12
ATOM      9  O   UNL     1     112.785 127.651 137.164  0.00  0.00    +0.000 OA
ATOM     10  O   UNL     1     113.711 130.032 135.804  0.00  0.00    +0.000 OA
ATOM     11  O   UNL     1     114.279 128.756 135.444  0.00  0.00    +0.000 OA
ATOM     12  C   UNL     1     112.248 128.960 137.488  0.00  0.00    +0.000 A 
ATOM     13  C   UNL     1     112.764 128.501 137.039  0.00  0.00    +0.000 A 
ATOM     14  C   UNL     1     112.219 129.777 137.376  0.00  0.00    +0.000 A 
ATOM     15  C   UNL     1     113.252 128.858 136.477  0.00  0.00    +0.000 A 
ATOM     16  C   UNL     1     112.706 130.135 136.815  0.00  0.00    +0.000 A 
ATOM     17  C   UNL     1     113.223 129.674 136.365  0.00  0.00    +0.000 A 
ATOM     18  C   UNL     1     113.795 128.390 136.003  0.00  0.00    +0.000 A 
ATOM     19  C   UNL     1     113.322 127.166 136.699  0.00  0.00    +0.000 A 
ATOM     20  C   UNL     1     113.830 127.539 136.114  0.00  0.00    +0.000 A 
BRANCH  19  22
ATOM     21  O   UNL     1     113.429 123.900 137.153  0.00  0.00    +0.000 OA
ATOM     22  C   UNL     1     113.349 126.350 136.813  0.00  0.00    +0.000 A 
ATOM     23  C   UNL     1     113.795 126.034 137.430  0.00  0.00    +0.000 A 
ATOM     24  C   UNL     1     112.929 125.850 136.309  0.00  0.00    +0.000 A 
ATOM     25  C   UNL     1     113.822 125.217 137.543  0.00  0.00    +0.000 A 
ATOM     26  C   UNL     1     112.955 125.032 136.422  0.00  0.00    +0.000 A 
ATOM     27  C   UNL     1     113.402 124.716 137.040  0.00  0.00    +0.000 A 
ENDBRANCH  19  22
BRANCH  14  28
ATOM     28  O   UNL     1     111.701 130.237 137.826  0.00  0.00    +0.000 OA
ATOM     29  C   UNL     1     111.834 131.047 137.907  0.00  0.00    +0.000 C 
ENDBRANCH  14  28
ENDBRANCH   6  12
BRANCH   8  31
ATOM     30  O   UNL     1     112.543 128.117 140.381  0.00  0.00    +0.000 OA
ATOM     31  C   UNL     1     111.909 127.716 140.038  0.00  0.00    +0.000 C 
ENDBRANCH   8  31
BRANCH   4  32
ATOM     32  O   UNL     1     110.636 128.778 137.185  0.00  0.00    +0.000 OA
BRANCH  32  37
ATOM     33  O   UNL     1     110.184 127.508 136.711  0.00  0.00    +0.000 OA
ATOM     34  O   UNL     1     109.293 129.493 136.547  0.00  0.00    +0.000 OA
ATOM     35  O   UNL     1     108.170 128.581 135.755  0.00  0.00    +0.000 OA
ATOM     36  O   UNL     1     108.389 126.953 135.599  0.00  0.00    +0.000 OA
ATOM     37  C   UNL     1     110.074 128.321 136.788  0.00  0.00    +0.000 C 
ATOM     38  C   UNL     1     109.402 128.679 136.469  0.00  0.00    +0.000 C 
ATOM     39  C   UNL     1     108.841 128.223 136.073  0.00  0.00    +0.000 C 
ATOM     40  C   UNL     1     108.951 127.410 135.996  0.00  0.00    +0.000 C 
ATOM     41  C   UNL     1     109.622 127.052 136.315  0.00  0.00    +0.000 C 
ATOM     42  C   UNL     1     109.733 126.238 136.237  0.00  0.00    +0.000 C 
ENDBRANCH  32  37
ENDBRANCH   4  32
TORSDOF 6
ENDMDL
