MODEL 1
REMARK VINA RESULT:     -11.2      0.000      0.000
REMARK  Name = 14375140
REMARK  9 active torsions:
REMARK  status: ('A' for Active; 'I' for Inactive)
REMARK    1  A    between atoms: O_2  and  C_25
REMARK    2  A    between atoms: O_2  and  C_29
REMARK    3  A    between atoms: O_5  and  C_28
REMARK    4  A    between atoms: O_5  and  C_38
REMARK    5  A    between atoms: O_12  and  C_35
REMARK    6  A    between atoms: O_12  and  C_42
REMARK    7  A    between atoms: C_20  and  C_29
REMARK    8  A    between atoms: C_34  and  C_37
REMARK    9  A    between atoms: C_39  and  C_46
REMARK                            x       y       z     vdW  Elec       q    Type
REMARK                         _______ _______ _______ _____ _____    ______ ____
ROOT
ATOM      1  O   UNL     1     110.296 128.281 136.002  0.00  0.00    +0.000 OA
ATOM      2  O   UNL     1     107.877 129.845 135.773  0.00  0.00    +0.000 OA
ATOM      3  O   UNL     1     107.844 128.404 135.696  0.00  0.00    +0.000 OA
ATOM      4  C   UNL     1     109.999 130.494 136.076  0.00  0.00    +0.000 A 
ATOM      5  C   UNL     1     109.857 127.589 135.911  0.00  0.00    +0.000 C 
ATOM      6  C   UNL     1     110.387 129.728 136.086  0.00  0.00    +0.000 A 
ATOM      7  C   UNL     1     109.918 129.014 135.991  0.00  0.00    +0.000 A 
ATOM      8  C   UNL     1     109.101 129.056 135.889  0.00  0.00    +0.000 A 
ATOM      9  C   UNL     1     109.147 130.537 135.969  0.00  0.00    +0.000 A 
ATOM     10  C   UNL     1     109.039 127.630 135.809  0.00  0.00    +0.000 C 
ATOM     11  C   UNL     1     108.695 129.813 135.875  0.00  0.00    +0.000 A 
ATOM     12  C   UNL     1     108.661 128.364 135.798  0.00  0.00    +0.000 C 
ENDROOT
BRANCH   5  14
ATOM     13  C   UNL     1     110.991 125.389 135.944  0.00  0.00    +0.000 A 
ATOM     14  C   UNL     1     110.235 126.856 135.922  0.00  0.00    +0.000 A 
ATOM     15  C   UNL     1     110.659 125.693 136.635  0.00  0.00    +0.000 A 
ATOM     16  C   UNL     1     110.945 125.819 135.241  0.00  0.00    +0.000 A 
ATOM     17  C   UNL     1     110.281 126.426 136.624  0.00  0.00    +0.000 A 
ATOM     18  C   UNL     1     110.566 126.552 135.231  0.00  0.00    +0.000 A 
BRANCH  13  19
ATOM     19  O   UNL     1     111.369 124.656 135.955  0.00  0.00    +0.000 OA
BRANCH  19  28
ATOM     20  O   UNL     1     112.680 125.178 136.177  0.00  0.00    +0.000 OA
ATOM     21  O   UNL     1     113.247 123.180 137.524  0.00  0.00    +0.000 OA
ATOM     22  O   UNL     1     114.370 124.368 137.297  0.00  0.00    +0.000 OA
ATOM     23  O   UNL     1     111.747 123.325 136.852  0.00  0.00    +0.000 OA
ATOM     24  C   UNL     1     113.058 123.846 137.075  0.00  0.00    +0.000 C 
ATOM     25  C   UNL     1     113.620 124.440 136.962  0.00  0.00    +0.000 C 
ATOM     26  C   UNL     1     112.308 123.919 136.739  0.00  0.00    +0.000 C 
ATOM     27  C   UNL     1     113.431 125.106 136.513  0.00  0.00    +0.000 C 
ATOM     28  C   UNL     1     112.119 124.584 136.290  0.00  0.00    +0.000 C 
BRANCH  27  30
ATOM     29  O   UNL     1     113.875 126.446 136.733  0.00  0.00    +0.000 OA
ATOM     30  C   UNL     1     113.992 125.700 136.400  0.00  0.00    +0.000 C 
ENDBRANCH  27  30
ENDBRANCH  19  28
ENDBRANCH  13  19
ENDBRANCH   5  14
BRANCH   4  31
ATOM     31  O   UNL     1     110.441 131.185 136.167  0.00  0.00    +0.000 OA
BRANCH  31  40
ATOM     32  O   UNL     1     110.538 131.200 137.592  0.00  0.00    +0.000 OA
ATOM     33  O   UNL     1     110.347 132.841 139.020  0.00  0.00    +0.000 OA
ATOM     34  O   UNL     1     110.108 133.638 137.595  0.00  0.00    +0.000 OA
ATOM     35  O   UNL     1     110.155 132.810 136.168  0.00  0.00    +0.000 OA
ATOM     36  C   UNL     1     110.514 131.615 138.306  0.00  0.00    +0.000 C 
ATOM     37  C   UNL     1     110.371 132.427 138.306  0.00  0.00    +0.000 C 
ATOM     38  C   UNL     1     110.251 132.826 137.595  0.00  0.00    +0.000 C 
ATOM     39  C   UNL     1     110.275 132.411 136.881  0.00  0.00    +0.000 C 
ATOM     40  C   UNL     1     110.418 131.599 136.880  0.00  0.00    +0.000 C 
BRANCH  36  41
ATOM     41  C   UNL     1     110.634 131.216 139.018  0.00  0.00    +0.000 C 
BRANCH  41  42
ATOM     42  O   UNL     1     111.338 130.806 139.147  0.00  0.00    +0.000 OA
BRANCH  42  48
ATOM     43  O   UNL     1     110.742 129.870 140.048  0.00  0.00    +0.000 OA
ATOM     44  O   UNL     1     112.789 130.615 139.909  0.00  0.00    +0.000 OA
ATOM     45  O   UNL     1     112.918 129.583 141.191  0.00  0.00    +0.000 OA
ATOM     46  O   UNL     1     111.597 128.743 141.711  0.00  0.00    +0.000 OA
ATOM     47  C   UNL     1     112.128 130.194 140.170  0.00  0.00    +0.000 C 
ATOM     48  C   UNL     1     111.402 130.290 139.788  0.00  0.00    +0.000 C 
ATOM     49  C   UNL     1     112.193 129.679 140.810  0.00  0.00    +0.000 C 
ATOM     50  C   UNL     1     111.532 129.259 141.070  0.00  0.00    +0.000 C 
ATOM     51  C   UNL     1     110.806 129.354 140.689  0.00  0.00    +0.000 C 
ATOM     52  C   UNL     1     110.146 128.935 140.949  0.00  0.00    +0.000 C 
ENDBRANCH  42  48
ENDBRANCH  41  42
ENDBRANCH  36  41
ENDBRANCH  31  40
ENDBRANCH   4  31
TORSDOF 9
ENDMDL
MODEL 2
REMARK VINA RESULT:     -10.9      1.954      6.061
REMARK  Name = 14375140
REMARK  9 active torsions:
REMARK  status: ('A' for Active; 'I' for Inactive)
REMARK    1  A    between atoms: O_2  and  C_25
REMARK    2  A    between atoms: O_2  and  C_29
REMARK    3  A    between atoms: O_5  and  C_28
REMARK    4  A    between atoms: O_5  and  C_38
REMARK    5  A    between atoms: O_12  and  C_35
REMARK    6  A    between atoms: O_12  and  C_42
REMARK    7  A    between atoms: C_20  and  C_29
REMARK    8  A    between atoms: C_34  and  C_37
REMARK    9  A    between atoms: C_39  and  C_46
REMARK                            x       y       z     vdW  Elec       q    Type
REMARK                         _______ _______ _______ _____ _____    ______ ____
ROOT
ATOM      1  O   UNL     1     112.590 129.665 137.340  0.00  0.00    +0.000 OA
ATOM      2  O   UNL     1     113.362 129.041 134.626  0.00  0.00    +0.000 OA
ATOM      3  O   UNL     1     114.345 129.126 135.680  0.00  0.00    +0.000 OA
ATOM      4  C   UNL     1     111.342 129.458 135.498  0.00  0.00    +0.000 A 
ATOM      5  C   UNL     1     113.379 129.614 137.575  0.00  0.00    +0.000 C 
ATOM      6  C   UNL     1     111.561 129.592 136.318  0.00  0.00    +0.000 A 
ATOM      7  C   UNL     1     112.386 129.536 136.551  0.00  0.00    +0.000 A 
ATOM      8  C   UNL     1     112.971 129.356 135.997  0.00  0.00    +0.000 A 
ATOM      9  C   UNL     1     111.952 129.271 134.921  0.00  0.00    +0.000 A 
ATOM     10  C   UNL     1     113.964 129.434 137.022  0.00  0.00    +0.000 C 
ATOM     11  C   UNL     1     112.772 129.220 135.173  0.00  0.00    +0.000 A 
ATOM     12  C   UNL     1     113.760 129.305 136.233  0.00  0.00    +0.000 C 
ENDROOT
BRANCH   5  14
ATOM     13  C   UNL     1     113.991 130.000 139.942  0.00  0.00    +0.000 A 
ATOM     14  C   UNL     1     113.583 129.743 138.364  0.00  0.00    +0.000 A 
ATOM     15  C   UNL     1     113.960 130.634 139.415  0.00  0.00    +0.000 A 
ATOM     16  C   UNL     1     113.818 129.237 139.680  0.00  0.00    +0.000 A 
ATOM     17  C   UNL     1     113.756 130.505 138.626  0.00  0.00    +0.000 A 
ATOM     18  C   UNL     1     113.614 129.109 138.891  0.00  0.00    +0.000 A 
BRANCH  13  19
ATOM     19  O   UNL     1     114.195 130.128 140.731  0.00  0.00    +0.000 OA
BRANCH  19  28
ATOM     20  O   UNL     1     112.942 129.888 141.375  0.00  0.00    +0.000 OA
ATOM     21  O   UNL     1     113.231 131.953 142.709  0.00  0.00    +0.000 OA
ATOM     22  O   UNL     1     111.882 131.024 142.908  0.00  0.00    +0.000 OA
ATOM     23  O   UNL     1     114.387 131.504 141.621  0.00  0.00    +0.000 OA
ATOM     24  C   UNL     1     113.134 131.264 142.264  0.00  0.00    +0.000 C 
ATOM     25  C   UNL     1     112.460 130.800 142.364  0.00  0.00    +0.000 C 
ATOM     26  C   UNL     1     113.713 131.040 141.720  0.00  0.00    +0.000 C 
ATOM     27  C   UNL     1     112.363 130.112 141.919  0.00  0.00    +0.000 C 
ATOM     28  C   UNL     1     113.617 130.353 141.275  0.00  0.00    +0.000 C 
BRANCH  27  30
ATOM     29  O   UNL     1     111.764 128.841 142.175  0.00  0.00    +0.000 OA
ATOM     30  C   UNL     1     111.688 129.648 142.019  0.00  0.00    +0.000 C 
ENDBRANCH  27  30
ENDBRANCH  19  28
ENDBRANCH  13  19
ENDBRANCH   5  14
BRANCH   4  31
ATOM     31  O   UNL     1     110.552 129.510 135.265  0.00  0.00    +0.000 OA
BRANCH  31  40
ATOM     32  O   UNL     1     110.273 128.215 135.799  0.00  0.00    +0.000 OA
ATOM     33  O   UNL     1     108.377 127.253 136.296  0.00  0.00    +0.000 OA
ATOM     34  O   UNL     1     107.849 128.714 135.742  0.00  0.00    +0.000 OA
ATOM     35  O   UNL     1     108.936 129.843 135.226  0.00  0.00    +0.000 OA
ATOM     36  C   UNL     1     109.728 127.650 136.058  0.00  0.00    +0.000 C 
ATOM     37  C   UNL     1     108.920 127.817 136.038  0.00  0.00    +0.000 C 
ATOM     38  C   UNL     1     108.656 128.547 135.761  0.00  0.00    +0.000 C 
ATOM     39  C   UNL     1     109.201 129.112 135.503  0.00  0.00    +0.000 C 
ATOM     40  C   UNL     1     110.008 128.946 135.522  0.00  0.00    +0.000 C 
BRANCH  36  41
ATOM     41  C   UNL     1     109.992 126.919 136.334  0.00  0.00    +0.000 C 
BRANCH  41  42
ATOM     42  O   UNL     1     110.526 126.478 135.887  0.00  0.00    +0.000 OA
BRANCH  42  48
ATOM     43  O   UNL     1     111.444 126.131 136.926  0.00  0.00    +0.000 OA
ATOM     44  O   UNL     1     110.631 124.946 135.284  0.00  0.00    +0.000 OA
ATOM     45  O   UNL     1     111.600 123.833 136.021  0.00  0.00    +0.000 OA
ATOM     46  O   UNL     1     112.466 124.252 137.362  0.00  0.00    +0.000 OA
ATOM     47  C   UNL     1     111.064 125.155 135.954  0.00  0.00    +0.000 C 
ATOM     48  C   UNL     1     111.012 125.921 136.256  0.00  0.00    +0.000 C 
ATOM     49  C   UNL     1     111.548 124.599 136.323  0.00  0.00    +0.000 C 
ATOM     50  C   UNL     1     111.981 124.808 136.993  0.00  0.00    +0.000 C 
ATOM     51  C   UNL     1     111.929 125.574 137.295  0.00  0.00    +0.000 C 
ATOM     52  C   UNL     1     112.362 125.784 137.965  0.00  0.00    +0.000 C 
ENDBRANCH  42  48
ENDBRANCH  41  42
ENDBRANCH  36  41
ENDBRANCH  31  40
ENDBRANCH   4  31
TORSDOF 9
ENDMDL
MODEL 3
REMARK VINA RESULT:     -10.7      3.092      6.210
REMARK  Name = 14375140
REMARK  9 active torsions:
REMARK  status: ('A' for Active; 'I' for Inactive)
REMARK    1  A    between atoms: O_2  and  C_25
REMARK    2  A    between atoms: O_2  and  C_29
REMARK    3  A    between atoms: O_5  and  C_28
REMARK    4  A    between atoms: O_5  and  C_38
REMARK    5  A    between atoms: O_12  and  C_35
REMARK    6  A    between atoms: O_12  and  C_42
REMARK    7  A    between atoms: C_20  and  C_29
REMARK    8  A    between atoms: C_34  and  C_37
REMARK    9  A    between atoms: C_39  and  C_46
REMARK                            x       y       z     vdW  Elec       q    Type
REMARK                         _______ _______ _______ _____ _____    ______ ____
ROOT
ATOM      1  O   UNL     1     112.434 129.772 138.812  0.00  0.00    +0.000 OA
ATOM      2  O   UNL     1     114.925 130.070 140.245  0.00  0.00    +0.000 OA
ATOM      3  O   UNL     1     114.603 130.922 139.125  0.00  0.00    +0.000 OA
ATOM      4  C   UNL     1     113.233 128.638 140.564  0.00  0.00    +0.000 A 
ATOM      5  C   UNL     1     112.648 130.391 138.312  0.00  0.00    +0.000 C 
ATOM      6  C   UNL     1     112.708 128.889 139.932  0.00  0.00    +0.000 A 
ATOM      7  C   UNL     1     112.942 129.535 139.417  0.00  0.00    +0.000 A 
ATOM      8  C   UNL     1     113.666 129.918 139.522  0.00  0.00    +0.000 A 
ATOM      9  C   UNL     1     113.987 129.037 140.672  0.00  0.00    +0.000 A 
ATOM     10  C   UNL     1     113.371 130.775 138.416  0.00  0.00    +0.000 C 
ATOM     11  C   UNL     1     114.204 129.682 140.148  0.00  0.00    +0.000 A 
ATOM     12  C   UNL     1     113.880 130.538 139.021  0.00  0.00    +0.000 C 
ENDROOT
BRANCH   5  14
ATOM     13  C   UNL     1     111.123 131.100 136.497  0.00  0.00    +0.000 A 
ATOM     14  C   UNL     1     112.139 130.628 137.707  0.00  0.00    +0.000 A 
ATOM     15  C   UNL     1     111.083 131.465 137.236  0.00  0.00    +0.000 A 
ATOM     16  C   UNL     1     111.671 130.499 136.363  0.00  0.00    +0.000 A 
ATOM     17  C   UNL     1     111.591 131.229 137.840  0.00  0.00    +0.000 A 
ATOM     18  C   UNL     1     112.179 130.263 136.968  0.00  0.00    +0.000 A 
BRANCH  13  19
ATOM     19  O   UNL     1     110.614 131.337 135.892  0.00  0.00    +0.000 OA
BRANCH  19  28
ATOM     20  O   UNL     1     109.641 130.294 135.978  0.00  0.00    +0.000 OA
ATOM     21  O   UNL     1     107.829 131.963 135.752  0.00  0.00    +0.000 OA
ATOM     22  O   UNL     1     107.460 130.363 135.913  0.00  0.00    +0.000 OA
ATOM     23  O   UNL     1     109.405 132.450 135.741  0.00  0.00    +0.000 OA
ATOM     24  C   UNL     1     108.433 131.407 135.827  0.00  0.00    +0.000 C 
ATOM     25  C   UNL     1     108.249 130.606 135.908  0.00  0.00    +0.000 C 
ATOM     26  C   UNL     1     109.221 131.650 135.822  0.00  0.00    +0.000 C 
ATOM     27  C   UNL     1     108.853 130.049 135.983  0.00  0.00    +0.000 C 
ATOM     28  C   UNL     1     109.826 131.094 135.897  0.00  0.00    +0.000 C 
BRANCH  27  30
ATOM     29  O   UNL     1     109.023 128.693 135.567  0.00  0.00    +0.000 OA
ATOM     30  C   UNL     1     108.669 129.249 136.064  0.00  0.00    +0.000 C 
ENDBRANCH  27  30
ENDBRANCH  19  28
ENDBRANCH  13  19
ENDBRANCH   5  14
BRANCH   4  31
ATOM     31  O   UNL     1     113.016 128.017 141.063  0.00  0.00    +0.000 OA
BRANCH  31  40
ATOM     32  O   UNL     1     112.354 128.778 142.075  0.00  0.00    +0.000 OA
ATOM     33  O   UNL     1     110.502 128.395 143.168  0.00  0.00    +0.000 OA
ATOM     34  O   UNL     1     110.572 127.063 142.196  0.00  0.00    +0.000 OA
ATOM     35  O   UNL     1     111.829 126.874 141.143  0.00  0.00    +0.000 OA
ATOM     36  C   UNL     1     111.724 128.872 142.602  0.00  0.00    +0.000 C 
ATOM     37  C   UNL     1     111.131 128.300 142.642  0.00  0.00    +0.000 C 
ATOM     38  C   UNL     1     111.166 127.635 142.156  0.00  0.00    +0.000 C 
ATOM     39  C   UNL     1     111.795 127.541 141.629  0.00  0.00    +0.000 C 
ATOM     40  C   UNL     1     112.388 128.112 141.589  0.00  0.00    +0.000 C 
BRANCH  36  41
ATOM     41  C   UNL     1     111.690 129.538 143.087  0.00  0.00    +0.000 C 
BRANCH  41  42
ATOM     42  O   UNL     1     111.978 130.261 142.816  0.00  0.00    +0.000 OA
BRANCH  42  48
ATOM     43  O   UNL     1     111.898 130.847 144.118  0.00  0.00    +0.000 OA
ATOM     44  O   UNL     1     111.955 131.765 142.138  0.00  0.00    +0.000 OA
ATOM     45  O   UNL     1     111.863 133.103 143.101  0.00  0.00    +0.000 OA
ATOM     46  O   UNL     1     111.795 132.936 144.741  0.00  0.00    +0.000 OA
ATOM     47  C   UNL     1     111.921 131.683 142.959  0.00  0.00    +0.000 C 
ATOM     48  C   UNL     1     111.933 130.930 143.298  0.00  0.00    +0.000 C 
ATOM     49  C   UNL     1     111.875 132.351 143.440  0.00  0.00    +0.000 C 
ATOM     50  C   UNL     1     111.841 132.268 144.260  0.00  0.00    +0.000 C 
ATOM     51  C   UNL     1     111.852 131.515 144.599  0.00  0.00    +0.000 C 
ATOM     52  C   UNL     1     111.818 131.432 145.419  0.00  0.00    +0.000 C 
ENDBRANCH  42  48
ENDBRANCH  41  42
ENDBRANCH  36  41
ENDBRANCH  31  40
ENDBRANCH   4  31
TORSDOF 9
ENDMDL
MODEL 4
REMARK VINA RESULT:     -10.7      1.752      6.743
REMARK  Name = 14375140
REMARK  9 active torsions:
REMARK  status: ('A' for Active; 'I' for Inactive)
REMARK    1  A    between atoms: O_2  and  C_25
REMARK    2  A    between atoms: O_2  and  C_29
REMARK    3  A    between atoms: O_5  and  C_28
REMARK    4  A    between atoms: O_5  and  C_38
REMARK    5  A    between atoms: O_12  and  C_35
REMARK    6  A    between atoms: O_12  and  C_42
REMARK    7  A    between atoms: C_20  and  C_29
REMARK    8  A    between atoms: C_34  and  C_37
REMARK    9  A    between atoms: C_39  and  C_46
REMARK                            x       y       z     vdW  Elec       q    Type
REMARK                         _______ _______ _______ _____ _____    ______ ____
ROOT
ATOM      1  O   UNL     1     112.879 128.590 138.322  0.00  0.00    +0.000 OA
ATOM      2  O   UNL     1     114.012 128.836 135.675  0.00  0.00    +0.000 OA
ATOM      3  O   UNL     1     113.866 129.988 136.534  0.00  0.00    +0.000 OA
ATOM      4  C   UNL     1     113.243 127.035 136.760  0.00  0.00    +0.000 A 
ATOM      5  C   UNL     1     112.976 129.401 138.438  0.00  0.00    +0.000 C 
ATOM      6  C   UNL     1     113.003 127.400 137.500  0.00  0.00    +0.000 A 
ATOM      7  C   UNL     1     113.110 128.245 137.609  0.00  0.00    +0.000 A 
ATOM      8  C   UNL     1     113.439 128.711 137.013  0.00  0.00    +0.000 A 
ATOM      9  C   UNL     1     113.585 127.520 136.139  0.00  0.00    +0.000 A 
ATOM     10  C   UNL     1     113.305 129.867 137.842  0.00  0.00    +0.000 C 
ATOM     11  C   UNL     1     113.684 128.364 136.266  0.00  0.00    +0.000 A 
ATOM     12  C   UNL     1     113.537 129.522 137.129  0.00  0.00    +0.000 C 
ENDROOT
BRANCH   5  14
ATOM     13  C   UNL     1     112.281 130.437 140.576  0.00  0.00    +0.000 A 
ATOM     14  C   UNL     1     112.745 129.746 139.151  0.00  0.00    +0.000 A 
ATOM     15  C   UNL     1     112.994 130.024 140.530  0.00  0.00    +0.000 A 
ATOM     16  C   UNL     1     111.800 130.505 139.909  0.00  0.00    +0.000 A 
ATOM     17  C   UNL     1     113.225 129.678 139.817  0.00  0.00    +0.000 A 
ATOM     18  C   UNL     1     112.032 130.160 139.197  0.00  0.00    +0.000 A 
BRANCH  13  19
ATOM     19  O   UNL     1     112.050 130.782 141.289  0.00  0.00    +0.000 OA
BRANCH  19  28
ATOM     20  O   UNL     1     111.358 129.667 141.854  0.00  0.00    +0.000 OA
ATOM     21  O   UNL     1     109.572 131.180 142.657  0.00  0.00    +0.000 OA
ATOM     22  O   UNL     1     109.476 129.560 142.954  0.00  0.00    +0.000 OA
ATOM     23  O   UNL     1     110.859 131.791 141.824  0.00  0.00    +0.000 OA
ATOM     24  C   UNL     1     110.168 130.675 142.389  0.00  0.00    +0.000 C 
ATOM     25  C   UNL     1     110.119 129.865 142.538  0.00  0.00    +0.000 C 
ATOM     26  C   UNL     1     110.811 130.981 141.973  0.00  0.00    +0.000 C 
ATOM     27  C   UNL     1     110.715 129.360 142.270  0.00  0.00    +0.000 C 
ATOM     28  C   UNL     1     111.406 130.477 141.705  0.00  0.00    +0.000 C 
BRANCH  27  30
ATOM     29  O   UNL     1     111.299 128.159 142.776  0.00  0.00    +0.000 OA
ATOM     30  C   UNL     1     110.666 128.550 142.419  0.00  0.00    +0.000 C 
ENDBRANCH  27  30
ENDBRANCH  19  28
ENDBRANCH  13  19
ENDBRANCH   5  14
BRANCH   4  31
ATOM     31  O   UNL     1     113.144 126.223 136.646  0.00  0.00    +0.000 OA
BRANCH  31  40
ATOM     32  O   UNL     1     111.857 126.454 136.069  0.00  0.00    +0.000 OA
ATOM     33  O   UNL     1     110.296 125.058 135.454  0.00  0.00    +0.000 OA
ATOM     34  O   UNL     1     111.445 124.014 136.013  0.00  0.00    +0.000 OA
ATOM     35  O   UNL     1     112.869 124.596 136.609  0.00  0.00    +0.000 OA
ATOM     36  C   UNL     1     111.145 126.163 135.770  0.00  0.00    +0.000 C 
ATOM     37  C   UNL     1     111.008 125.349 135.752  0.00  0.00    +0.000 C 
ATOM     38  C   UNL     1     111.582 124.827 136.031  0.00  0.00    +0.000 C 
ATOM     39  C   UNL     1     112.294 125.119 136.329  0.00  0.00    +0.000 C 
ATOM     40  C   UNL     1     112.432 125.932 136.348  0.00  0.00    +0.000 C 
BRANCH  36  41
ATOM     41  C   UNL     1     110.571 126.684 135.491  0.00  0.00    +0.000 C 
BRANCH  41  42
ATOM     42  O   UNL     1     110.129 127.135 136.023  0.00  0.00    +0.000 OA
BRANCH  42  48
ATOM     43  O   UNL     1     110.297 128.400 135.380  0.00  0.00    +0.000 OA
ATOM     44  O   UNL     1     108.564 127.521 136.376  0.00  0.00    +0.000 OA
ATOM     45  O   UNL     1     107.950 128.980 135.910  0.00  0.00    +0.000 OA
ATOM     46  O   UNL     1     108.900 130.052 135.091  0.00  0.00    +0.000 OA
ATOM     47  C   UNL     1     109.039 128.058 135.966  0.00  0.00    +0.000 C 
ATOM     48  C   UNL     1     109.822 127.864 135.790  0.00  0.00    +0.000 C 
ATOM     49  C   UNL     1     108.732 128.787 135.733  0.00  0.00    +0.000 C 
ATOM     50  C   UNL     1     109.206 129.323 135.324  0.00  0.00    +0.000 C 
ATOM     51  C   UNL     1     109.990 129.130 135.147  0.00  0.00    +0.000 C 
ATOM     52  C   UNL     1     110.464 129.665 134.738  0.00  0.00    +0.000 C 
ENDBRANCH  42  48
ENDBRANCH  41  42
ENDBRANCH  36  41
ENDBRANCH  31  40
ENDBRANCH   4  31
TORSDOF 9
ENDMDL
MODEL 5
REMARK VINA RESULT:     -10.6      6.263     10.024
REMARK  Name = 14375140
REMARK  9 active torsions:
REMARK  status: ('A' for Active; 'I' for Inactive)
REMARK    1  A    between atoms: O_2  and  C_25
REMARK    2  A    between atoms: O_2  and  C_29
REMARK    3  A    between atoms: O_5  and  C_28
REMARK    4  A    between atoms: O_5  and  C_38
REMARK    5  A    between atoms: O_12  and  C_35
REMARK    6  A    between atoms: O_12  and  C_42
REMARK    7  A    between atoms: C_20  and  C_29
REMARK    8  A    between atoms: C_34  and  C_37
REMARK    9  A    between atoms: C_39  and  C_46
REMARK                            x       y       z     vdW  Elec       q    Type
REMARK                         _______ _______ _______ _____ _____    ______ ____
ROOT
ATOM      1  O   UNL     1     105.467 128.693 142.182  0.00  0.00    +0.000 OA
ATOM      2  O   UNL     1     106.850 127.193 144.227  0.00  0.00    +0.000 OA
ATOM      3  O   UNL     1     105.554 127.777 144.479  0.00  0.00    +0.000 OA
ATOM      4  C   UNL     1     107.454 127.673 142.124  0.00  0.00    +0.000 A 
ATOM      5  C   UNL     1     104.840 128.824 142.702  0.00  0.00    +0.000 C 
ATOM      6  C   UNL     1     106.768 128.127 141.875  0.00  0.00    +0.000 A 
ATOM      7  C   UNL     1     106.122 128.257 142.427  0.00  0.00    +0.000 A 
ATOM      8  C   UNL     1     106.152 127.951 143.192  0.00  0.00    +0.000 A 
ATOM      9  C   UNL     1     107.484 127.355 142.922  0.00  0.00    +0.000 A 
ATOM     10  C   UNL     1     104.870 128.519 143.468  0.00  0.00    +0.000 C 
ATOM     11  C   UNL     1     106.829 127.495 143.460  0.00  0.00    +0.000 A 
ATOM     12  C   UNL     1     105.526 128.082 143.713  0.00  0.00    +0.000 C 
ENDROOT
BRANCH   5  14
ATOM     13  C   UNL     1     102.873 130.135 141.969  0.00  0.00    +0.000 A 
ATOM     14  C   UNL     1     104.185 129.261 142.458  0.00  0.00    +0.000 A 
ATOM     15  C   UNL     1     103.207 129.574 141.464  0.00  0.00    +0.000 A 
ATOM     16  C   UNL     1     103.195 130.259 142.718  0.00  0.00    +0.000 A 
ATOM     17  C   UNL     1     103.863 129.137 141.709  0.00  0.00    +0.000 A 
ATOM     18  C   UNL     1     103.851 129.822 142.962  0.00  0.00    +0.000 A 
BRANCH  13  19
ATOM     19  O   UNL     1     102.218 130.572 141.724  0.00  0.00    +0.000 OA
BRANCH  19  28
ATOM     20  O   UNL     1     102.949 131.645 141.129  0.00  0.00    +0.000 OA
ATOM     21  O   UNL     1     101.230 133.248 141.905  0.00  0.00    +0.000 OA
ATOM     22  O   UNL     1     102.535 133.787 141.051  0.00  0.00    +0.000 OA
ATOM     23  O   UNL     1     101.072 131.640 142.241  0.00  0.00    +0.000 OA
ATOM     24  C   UNL     1     101.804 132.714 141.646  0.00  0.00    +0.000 C 
ATOM     25  C   UNL     1     102.456 132.983 141.219  0.00  0.00    +0.000 C 
ATOM     26  C   UNL     1     101.724 131.910 141.814  0.00  0.00    +0.000 C 
ATOM     27  C   UNL     1     103.029 132.449 140.960  0.00  0.00    +0.000 C 
ATOM     28  C   UNL     1     102.297 131.375 141.556  0.00  0.00    +0.000 C 
BRANCH  27  30
ATOM     29  O   UNL     1     103.878 132.365 139.814  0.00  0.00    +0.000 OA
ATOM     30  C   UNL     1     103.681 132.719 140.533  0.00  0.00    +0.000 C 
ENDBRANCH  27  30
ENDBRANCH  19  28
ENDBRANCH  13  19
ENDBRANCH   5  14
BRANCH   4  31
ATOM     31  O   UNL     1     108.079 127.544 141.601  0.00  0.00    +0.000 OA
BRANCH  31  40
ATOM     32  O   UNL     1     107.683 126.238 141.176  0.00  0.00    +0.000 OA
ATOM     33  O   UNL     1     108.871 124.468 140.705  0.00  0.00    +0.000 OA
ATOM     34  O   UNL     1     110.058 125.541 141.107  0.00  0.00    +0.000 OA
ATOM     35  O   UNL     1     109.662 127.079 141.555  0.00  0.00    +0.000 OA
ATOM     36  C   UNL     1     107.881 125.468 140.952  0.00  0.00    +0.000 C 
ATOM     37  C   UNL     1     108.673 125.237 140.929  0.00  0.00    +0.000 C 
ATOM     38  C   UNL     1     109.266 125.773 141.130  0.00  0.00    +0.000 C 
ATOM     39  C   UNL     1     109.068 126.543 141.354  0.00  0.00    +0.000 C 
ATOM     40  C   UNL     1     108.277 126.775 141.377  0.00  0.00    +0.000 C 
BRANCH  36  41
ATOM     41  C   UNL     1     107.288 124.932 140.751  0.00  0.00    +0.000 C 
BRANCH  41  42
ATOM     42  O   UNL     1     106.652 125.176 140.286  0.00  0.00    +0.000 OA
BRANCH  42  48
ATOM     43  O   UNL     1     105.785 124.141 140.754  0.00  0.00    +0.000 OA
ATOM     44  O   UNL     1     105.829 125.219 138.857  0.00  0.00    +0.000 OA
ATOM     45  O   UNL     1     104.551 124.205 138.610  0.00  0.00    +0.000 OA
ATOM     46  O   UNL     1     104.096 123.147 139.792  0.00  0.00    +0.000 OA
ATOM     47  C   UNL     1     105.601 124.690 139.448  0.00  0.00    +0.000 C 
ATOM     48  C   UNL     1     106.013 124.669 140.163  0.00  0.00    +0.000 C 
ATOM     49  C   UNL     1     104.963 124.183 139.324  0.00  0.00    +0.000 C 
ATOM     50  C   UNL     1     104.735 123.654 139.915  0.00  0.00    +0.000 C 
ATOM     51  C   UNL     1     105.146 123.633 140.631  0.00  0.00    +0.000 C 
ATOM     52  C   UNL     1     104.919 123.105 141.221  0.00  0.00    +0.000 C 
ENDBRANCH  42  48
ENDBRANCH  41  42
ENDBRANCH  36  41
ENDBRANCH  31  40
ENDBRANCH   4  31
TORSDOF 9
ENDMDL
MODEL 6
REMARK VINA RESULT:     -10.5      1.816      5.906
REMARK  Name = 14375140
REMARK  9 active torsions:
REMARK  status: ('A' for Active; 'I' for Inactive)
REMARK    1  A    between atoms: O_2  and  C_25
REMARK    2  A    between atoms: O_2  and  C_29
REMARK    3  A    between atoms: O_5  and  C_28
REMARK    4  A    between atoms: O_5  and  C_38
REMARK    5  A    between atoms: O_12  and  C_35
REMARK    6  A    between atoms: O_12  and  C_42
REMARK    7  A    between atoms: C_20  and  C_29
REMARK    8  A    between atoms: C_34  and  C_37
REMARK    9  A    between atoms: C_39  and  C_46
REMARK                            x       y       z     vdW  Elec       q    Type
REMARK                         _______ _______ _______ _____ _____    ______ ____
ROOT
ATOM      1  O   UNL     1     110.881 127.478 135.776  0.00  0.00    +0.000 OA
ATOM      2  O   UNL     1     110.832 124.606 135.455  0.00  0.00    +0.000 OA
ATOM      3  O   UNL     1     109.673 125.411 135.148  0.00  0.00    +0.000 OA
ATOM      4  C   UNL     1     112.475 125.958 136.155  0.00  0.00    +0.000 A 
ATOM      5  C   UNL     1     110.099 127.519 135.516  0.00  0.00    +0.000 C 
ATOM      6  C   UNL     1     112.074 126.717 136.100  0.00  0.00    +0.000 A 
ATOM      7  C   UNL     1     111.260 126.747 135.827  0.00  0.00    +0.000 A 
ATOM      8  C   UNL     1     110.858 126.058 135.618  0.00  0.00    +0.000 A 
ATOM      9  C   UNL     1     112.055 125.240 135.937  0.00  0.00    +0.000 A 
ATOM     10  C   UNL     1     109.697 126.830 135.307  0.00  0.00    +0.000 C 
ATOM     11  C   UNL     1     111.242 125.290 135.666  0.00  0.00    +0.000 A 
ATOM     12  C   UNL     1     110.076 126.099 135.358  0.00  0.00    +0.000 C 
ENDROOT
BRANCH   5  14
ATOM     13  C   UNL     1     108.961 129.712 135.362  0.00  0.00    +0.000 A 
ATOM     14  C   UNL     1     109.720 128.250 135.465  0.00  0.00    +0.000 A 
ATOM     15  C   UNL     1     108.664 129.127 135.862  0.00  0.00    +0.000 A 
ATOM     16  C   UNL     1     109.638 129.567 134.914  0.00  0.00    +0.000 A 
ATOM     17  C   UNL     1     109.043 128.396 135.913  0.00  0.00    +0.000 A 
ATOM     18  C   UNL     1     110.017 128.835 134.965  0.00  0.00    +0.000 A 
BRANCH  13  19
ATOM     19  O   UNL     1     108.582 130.443 135.311  0.00  0.00    +0.000 OA
BRANCH  19  28
ATOM     20  O   UNL     1     109.334 131.201 136.261  0.00  0.00    +0.000 OA
ATOM     21  O   UNL     1     107.232 132.067 137.237  0.00  0.00    +0.000 OA
ATOM     22  O   UNL     1     108.685 132.536 137.861  0.00  0.00    +0.000 OA
ATOM     23  O   UNL     1     107.180 131.020 135.962  0.00  0.00    +0.000 OA
ATOM     24  C   UNL     1     107.933 131.778 136.912  0.00  0.00    +0.000 C 
ATOM     25  C   UNL     1     108.660 132.013 137.223  0.00  0.00    +0.000 C 
ATOM     26  C   UNL     1     107.907 131.255 136.274  0.00  0.00    +0.000 C 
ATOM     27  C   UNL     1     109.361 131.724 136.898  0.00  0.00    +0.000 C 
ATOM     28  C   UNL     1     108.607 130.966 135.949  0.00  0.00    +0.000 C 
BRANCH  27  30
ATOM     29  O   UNL     1     110.676 132.250 136.709  0.00  0.00    +0.000 OA
ATOM     30  C   UNL     1     110.088 131.959 137.210  0.00  0.00    +0.000 C 
ENDBRANCH  27  30
ENDBRANCH  19  28
ENDBRANCH  13  19
ENDBRANCH   5  14
BRANCH   4  31
ATOM     31  O   UNL     1     113.257 125.920 136.416  0.00  0.00    +0.000 OA
BRANCH  31  40
ATOM     32  O   UNL     1     112.874 126.331 137.729  0.00  0.00    +0.000 OA
ATOM     33  O   UNL     1     113.942 126.215 139.630  0.00  0.00    +0.000 OA
ATOM     34  O   UNL     1     115.049 125.540 138.610  0.00  0.00    +0.000 OA
ATOM     35  O   UNL     1     114.706 125.393 137.002  0.00  0.00    +0.000 OA
ATOM     36  C   UNL     1     113.045 126.405 138.534  0.00  0.00    +0.000 C 
ATOM     37  C   UNL     1     113.771 126.141 138.827  0.00  0.00    +0.000 C 
ATOM     38  C   UNL     1     114.324 125.804 138.317  0.00  0.00    +0.000 C 
ATOM     39  C   UNL     1     114.152 125.730 137.512  0.00  0.00    +0.000 C 
ATOM     40  C   UNL     1     113.428 125.993 137.219  0.00  0.00    +0.000 C 
BRANCH  36  41
ATOM     41  C   UNL     1     112.492 126.742 139.044  0.00  0.00    +0.000 C 
BRANCH  41  42
ATOM     42  O   UNL     1     111.780 126.354 139.194  0.00  0.00    +0.000 OA
BRANCH  42  48
ATOM     43  O   UNL     1     111.112 127.614 139.280  0.00  0.00    +0.000 OA
ATOM     44  O   UNL     1     110.349 125.577 139.461  0.00  0.00    +0.000 OA
ATOM     45  O   UNL     1     108.965 126.449 139.681  0.00  0.00    +0.000 OA
ATOM     46  O   UNL     1     109.012 128.098 139.633  0.00  0.00    +0.000 OA
ATOM     47  C   UNL     1     110.372 126.402 139.437  0.00  0.00    +0.000 C 
ATOM     48  C   UNL     1     111.088 126.791 139.304  0.00  0.00    +0.000 C 
ATOM     49  C   UNL     1     109.681 126.837 139.547  0.00  0.00    +0.000 C 
ATOM     50  C   UNL     1     109.704 127.662 139.523  0.00  0.00    +0.000 C 
ATOM     51  C   UNL     1     110.420 128.051 139.390  0.00  0.00    +0.000 C 
ATOM     52  C   UNL     1     110.443 128.875 139.366  0.00  0.00    +0.000 C 
ENDBRANCH  42  48
ENDBRANCH  41  42
ENDBRANCH  36  41
ENDBRANCH  31  40
ENDBRANCH   4  31
TORSDOF 9
ENDMDL
MODEL 7
REMARK VINA RESULT:     -10.4      1.692      2.745
REMARK  Name = 14375140
REMARK  9 active torsions:
REMARK  status: ('A' for Active; 'I' for Inactive)
REMARK    1  A    between atoms: O_2  and  C_25
REMARK    2  A    between atoms: O_2  and  C_29
REMARK    3  A    between atoms: O_5  and  C_28
REMARK    4  A    between atoms: O_5  and  C_38
REMARK    5  A    between atoms: O_12  and  C_35
REMARK    6  A    between atoms: O_12  and  C_42
REMARK    7  A    between atoms: C_20  and  C_29
REMARK    8  A    between atoms: C_34  and  C_37
REMARK    9  A    between atoms: C_39  and  C_46
REMARK                            x       y       z     vdW  Elec       q    Type
REMARK                         _______ _______ _______ _____ _____    ______ ____
ROOT
ATOM      1  O   UNL     1     112.250 129.310 136.799  0.00  0.00    +0.000 OA
ATOM      2  O   UNL     1     113.030 132.044 137.317  0.00  0.00    +0.000 OA
ATOM      3  O   UNL     1     114.005 130.979 137.312  0.00  0.00    +0.000 OA
ATOM      4  C   UNL     1     111.015 131.170 136.881  0.00  0.00    +0.000 A 
ATOM      5  C   UNL     1     113.035 129.071 136.885  0.00  0.00    +0.000 C 
ATOM      6  C   UNL     1     111.229 130.343 136.793  0.00  0.00    +0.000 A 
ATOM      7  C   UNL     1     112.050 130.106 136.885  0.00  0.00    +0.000 A 
ATOM      8  C   UNL     1     112.635 130.663 137.055  0.00  0.00    +0.000 A 
ATOM      9  C   UNL     1     111.624 131.750 137.058  0.00  0.00    +0.000 A 
ATOM     10  C   UNL     1     113.620 129.628 137.056  0.00  0.00    +0.000 C 
ATOM     11  C   UNL     1     112.440 131.494 137.146  0.00  0.00    +0.000 A 
ATOM     12  C   UNL     1     113.420 130.423 137.141  0.00  0.00    +0.000 C 
ENDROOT
BRANCH   5  14
ATOM     13  C   UNL     1     113.636 126.683 136.631  0.00  0.00    +0.000 A 
ATOM     14  C   UNL     1     113.235 128.275 136.800  0.00  0.00    +0.000 A 
ATOM     15  C   UNL     1     113.658 127.187 135.977  0.00  0.00    +0.000 A 
ATOM     16  C   UNL     1     113.413 126.976 137.369  0.00  0.00    +0.000 A 
ATOM     17  C   UNL     1     113.458 127.982 136.063  0.00  0.00    +0.000 A 
ATOM     18  C   UNL     1     113.213 127.772 137.453  0.00  0.00    +0.000 A 
BRANCH  13  19
ATOM     19  O   UNL     1     113.836 125.888 136.546  0.00  0.00    +0.000 OA
BRANCH  19  28
ATOM     20  O   UNL     1     112.496 125.470 136.277  0.00  0.00    +0.000 OA
ATOM     21  O   UNL     1     112.990 123.252 137.257  0.00  0.00    +0.000 OA
ATOM     22  O   UNL     1     111.485 123.574 136.662  0.00  0.00    +0.000 OA
ATOM     23  O   UNL     1     114.165 124.409 137.199  0.00  0.00    +0.000 OA
ATOM     24  C   UNL     1     112.825 123.991 136.930  0.00  0.00    +0.000 C 
ATOM     25  C   UNL     1     112.072 124.152 136.633  0.00  0.00    +0.000 C 
ATOM     26  C   UNL     1     113.412 124.570 136.901  0.00  0.00    +0.000 C 
ATOM     27  C   UNL     1     111.907 124.892 136.306  0.00  0.00    +0.000 C 
ATOM     28  C   UNL     1     113.248 125.309 136.575  0.00  0.00    +0.000 C 
BRANCH  27  30
ATOM     29  O   UNL     1     111.068 125.325 135.234  0.00  0.00    +0.000 OA
ATOM     30  C   UNL     1     111.155 125.053 136.009  0.00  0.00    +0.000 C 
ENDBRANCH  27  30
ENDBRANCH  19  28
ENDBRANCH  13  19
ENDBRANCH   5  14
BRANCH   4  31
ATOM     31  O   UNL     1     110.229 131.407 136.794  0.00  0.00    +0.000 OA
BRANCH  31  40
ATOM     32  O   UNL     1     109.974 131.074 138.160  0.00  0.00    +0.000 OA
ATOM     33  O   UNL     1     108.201 131.377 139.398  0.00  0.00    +0.000 OA
ATOM     34  O   UNL     1     107.698 132.028 137.967  0.00  0.00    +0.000 OA
ATOM     35  O   UNL     1     108.712 132.043 136.666  0.00  0.00    +0.000 OA
ATOM     36  C   UNL     1     109.467 131.066 138.812  0.00  0.00    +0.000 C 
ATOM     37  C   UNL     1     108.708 131.385 138.747  0.00  0.00    +0.000 C 
ATOM     38  C   UNL     1     108.457 131.710 138.032  0.00  0.00    +0.000 C 
ATOM     39  C   UNL     1     108.964 131.718 137.381  0.00  0.00    +0.000 C 
ATOM     40  C   UNL     1     109.722 131.400 137.445  0.00  0.00    +0.000 C 
BRANCH  36  41
ATOM     41  C   UNL     1     109.718 130.741 139.526  0.00  0.00    +0.000 C 
BRANCH  41  42
ATOM     42  O   UNL     1     110.319 131.107 139.957  0.00  0.00    +0.000 OA
BRANCH  42  48
ATOM     43  O   UNL     1     110.999 129.893 140.283  0.00  0.00    +0.000 OA
ATOM     44  O   UNL     1     110.808 131.765 141.389  0.00  0.00    +0.000 OA
ATOM     45  O   UNL     1     111.731 130.880 142.431  0.00  0.00    +0.000 OA
ATOM     46  O   UNL     1     112.166 129.337 142.042  0.00  0.00    +0.000 OA
ATOM     47  C   UNL     1     111.026 130.993 141.195  0.00  0.00    +0.000 C 
ATOM     48  C   UNL     1     110.781 130.664 140.478  0.00  0.00    +0.000 C 
ATOM     49  C   UNL     1     111.487 130.551 141.715  0.00  0.00    +0.000 C 
ATOM     50  C   UNL     1     111.705 129.779 141.521  0.00  0.00    +0.000 C 
ATOM     51  C   UNL     1     111.461 129.450 140.804  0.00  0.00    +0.000 C 
ATOM     52  C   UNL     1     111.678 128.679 140.610  0.00  0.00    +0.000 C 
ENDBRANCH  42  48
ENDBRANCH  41  42
ENDBRANCH  36  41
ENDBRANCH  31  40
ENDBRANCH   4  31
TORSDOF 9
ENDMDL
MODEL 8
REMARK VINA RESULT:     -10.4      1.712      6.859
REMARK  Name = 14375140
REMARK  9 active torsions:
REMARK  status: ('A' for Active; 'I' for Inactive)
REMARK    1  A    between atoms: O_2  and  C_25
REMARK    2  A    between atoms: O_2  and  C_29
REMARK    3  A    between atoms: O_5  and  C_28
REMARK    4  A    between atoms: O_5  and  C_38
REMARK    5  A    between atoms: O_12  and  C_35
REMARK    6  A    between atoms: O_12  and  C_42
REMARK    7  A    between atoms: C_20  and  C_29
REMARK    8  A    between atoms: C_34  and  C_37
REMARK    9  A    between atoms: C_39  and  C_46
REMARK                            x       y       z     vdW  Elec       q    Type
REMARK                         _______ _______ _______ _____ _____    ______ ____
ROOT
ATOM      1  O   UNL     1     112.842 128.941 136.880  0.00  0.00    +0.000 OA
ATOM      2  O   UNL     1     114.841 127.986 135.024  0.00  0.00    +0.000 OA
ATOM      3  O   UNL     1     114.246 129.293 134.873  0.00  0.00    +0.000 OA
ATOM      4  C   UNL     1     113.947 127.000 136.826  0.00  0.00    +0.000 A 
ATOM      5  C   UNL     1     112.790 129.649 136.458  0.00  0.00    +0.000 C 
ATOM      6  C   UNL     1     113.407 127.618 137.079  0.00  0.00    +0.000 A 
ATOM      7  C   UNL     1     113.362 128.351 136.632  0.00  0.00    +0.000 A 
ATOM      8  C   UNL     1     113.830 128.468 135.963  0.00  0.00    +0.000 A 
ATOM      9  C   UNL     1     114.435 127.122 136.129  0.00  0.00    +0.000 A 
ATOM     10  C   UNL     1     113.258 129.766 135.789  0.00  0.00    +0.000 C 
ATOM     11  C   UNL     1     114.376 127.861 135.694  0.00  0.00    +0.000 A 
ATOM     12  C   UNL     1     113.778 129.175 135.541  0.00  0.00    +0.000 C 
ENDROOT
BRANCH   5  14
ATOM     13  C   UNL     1     111.228 131.419 137.201  0.00  0.00    +0.000 A 
ATOM     14  C   UNL     1     112.269 130.239 136.706  0.00  0.00    +0.000 A 
ATOM     15  C   UNL     1     111.982 131.368 137.533  0.00  0.00    +0.000 A 
ATOM     16  C   UNL     1     110.995 130.881 136.621  0.00  0.00    +0.000 A 
ATOM     17  C   UNL     1     112.502 130.777 137.285  0.00  0.00    +0.000 A 
ATOM     18  C   UNL     1     111.516 130.291 136.374  0.00  0.00    +0.000 A 
BRANCH  13  19
ATOM     19  O   UNL     1     110.708 132.010 137.449  0.00  0.00    +0.000 OA
BRANCH  19  28
ATOM     20  O   UNL     1     110.206 131.404 138.641  0.00  0.00    +0.000 OA
ATOM     21  O   UNL     1     107.909 132.087 138.023  0.00  0.00    +0.000 OA
ATOM     22  O   UNL     1     108.173 131.253 139.422  0.00  0.00    +0.000 OA
ATOM     23  O   UNL     1     109.177 132.465 137.037  0.00  0.00    +0.000 OA
ATOM     24  C   UNL     1     108.675 131.859 138.229  0.00  0.00    +0.000 C 
ATOM     25  C   UNL     1     108.807 131.442 138.929  0.00  0.00    +0.000 C 
ATOM     26  C   UNL     1     109.309 132.048 137.736  0.00  0.00    +0.000 C 
ATOM     27  C   UNL     1     109.572 131.214 139.135  0.00  0.00    +0.000 C 
ATOM     28  C   UNL     1     110.074 131.821 137.942  0.00  0.00    +0.000 C 
BRANCH  27  30
ATOM     29  O   UNL     1     109.977 130.019 139.805  0.00  0.00    +0.000 OA
ATOM     30  C   UNL     1     109.704 130.797 139.835  0.00  0.00    +0.000 C 
ENDBRANCH  27  30
ENDBRANCH  19  28
ENDBRANCH  13  19
ENDBRANCH   5  14
BRANCH   4  31
ATOM     31  O   UNL     1     113.997 126.293 137.249  0.00  0.00    +0.000 OA
BRANCH  31  40
ATOM     32  O   UNL     1     112.744 125.801 136.770  0.00  0.00    +0.000 OA
ATOM     33  O   UNL     1     112.032 123.759 136.468  0.00  0.00    +0.000 OA
ATOM     34  O   UNL     1     113.556 123.478 137.036  0.00  0.00    +0.000 OA
ATOM     35  O   UNL     1     114.538 124.744 137.426  0.00  0.00    +0.000 OA
ATOM     36  C   UNL     1     112.252 125.167 136.575  0.00  0.00    +0.000 C 
ATOM     37  C   UNL     1     112.523 124.393 136.663  0.00  0.00    +0.000 C 
ATOM     38  C   UNL     1     113.284 124.252 136.947  0.00  0.00    +0.000 C 
ATOM     39  C   UNL     1     113.776 124.886 137.142  0.00  0.00    +0.000 C 
ATOM     40  C   UNL     1     113.506 125.660 137.054  0.00  0.00    +0.000 C 
BRANCH  36  41
ATOM     41  C   UNL     1     111.491 125.308 136.291  0.00  0.00    +0.000 C 
BRANCH  41  42
ATOM     42  O   UNL     1     110.936 125.685 136.771  0.00  0.00    +0.000 OA
BRANCH  42  48
ATOM     43  O   UNL     1     110.530 126.530 135.692  0.00  0.00    +0.000 OA
ATOM     44  O   UNL     1     109.564 126.082 137.597  0.00  0.00    +0.000 OA
ATOM     45  O   UNL     1     108.472 127.125 136.932  0.00  0.00    +0.000 OA
ATOM     46  O   UNL     1     108.752 127.772 135.440  0.00  0.00    +0.000 OA
ATOM     47  C   UNL     1     109.703 126.405 136.851  0.00  0.00    +0.000 C 
ATOM     48  C   UNL     1     110.390 126.207 136.437  0.00  0.00    +0.000 C 
ATOM     49  C   UNL     1     109.158 126.927 136.519  0.00  0.00    +0.000 C 
ATOM     50  C   UNL     1     109.298 127.250 135.772  0.00  0.00    +0.000 C 
ATOM     51  C   UNL     1     109.984 127.052 135.358  0.00  0.00    +0.000 C 
ATOM     52  C   UNL     1     110.124 127.375 134.613  0.00  0.00    +0.000 C 
ENDBRANCH  42  48
ENDBRANCH  41  42
ENDBRANCH  36  41
ENDBRANCH  31  40
ENDBRANCH   4  31
TORSDOF 9
ENDMDL
MODEL 9
REMARK VINA RESULT:     -10.4      2.723      6.101
REMARK  Name = 14375140
REMARK  9 active torsions:
REMARK  status: ('A' for Active; 'I' for Inactive)
REMARK    1  A    between atoms: O_2  and  C_25
REMARK    2  A    between atoms: O_2  and  C_29
REMARK    3  A    between atoms: O_5  and  C_28
REMARK    4  A    between atoms: O_5  and  C_38
REMARK    5  A    between atoms: O_12  and  C_35
REMARK    6  A    between atoms: O_12  and  C_42
REMARK    7  A    between atoms: C_20  and  C_29
REMARK    8  A    between atoms: C_34  and  C_37
REMARK    9  A    between atoms: C_39  and  C_46
REMARK                            x       y       z     vdW  Elec       q    Type
REMARK                         _______ _______ _______ _____ _____    ______ ____
ROOT
ATOM      1  O   UNL     1     112.351 129.413 139.810  0.00  0.00    +0.000 OA
ATOM      2  O   UNL     1     114.954 130.666 139.736  0.00  0.00    +0.000 OA
ATOM      3  O   UNL     1     114.449 130.066 140.948  0.00  0.00    +0.000 OA
ATOM      4  C   UNL     1     113.418 130.421 138.125  0.00  0.00    +0.000 A 
ATOM      5  C   UNL     1     112.464 129.228 140.606  0.00  0.00    +0.000 C 
ATOM      6  C   UNL     1     112.810 130.002 138.564  0.00  0.00    +0.000 A 
ATOM      7  C   UNL     1     112.939 129.815 139.393  0.00  0.00    +0.000 A 
ATOM      8  C   UNL     1     113.638 130.033 139.772  0.00  0.00    +0.000 A 
ATOM      9  C   UNL     1     114.147 130.648 138.521  0.00  0.00    +0.000 A 
ATOM     10  C   UNL     1     113.163 129.446 140.985  0.00  0.00    +0.000 C 
ATOM     11  C   UNL     1     114.258 130.452 139.350  0.00  0.00    +0.000 A 
ATOM     12  C   UNL     1     113.751 129.848 140.568  0.00  0.00    +0.000 C 
ENDROOT
BRANCH   5  14
ATOM     13  C   UNL     1     110.702 128.020 141.857  0.00  0.00    +0.000 A 
ATOM     14  C   UNL     1     111.876 128.826 141.023  0.00  0.00    +0.000 A 
ATOM     15  C   UNL     1     110.557 128.779 141.568  0.00  0.00    +0.000 A 
ATOM     16  C   UNL     1     111.435 127.663 141.729  0.00  0.00    +0.000 A 
ATOM     17  C   UNL     1     111.144 129.181 141.151  0.00  0.00    +0.000 A 
ATOM     18  C   UNL     1     112.022 128.067 141.312  0.00  0.00    +0.000 A 
BRANCH  13  19
ATOM     19  O   UNL     1     110.115 127.617 142.273  0.00  0.00    +0.000 OA
BRANCH  19  28
ATOM     20  O   UNL     1     109.692 126.715 141.249  0.00  0.00    +0.000 OA
ATOM     21  O   UNL     1     107.331 127.112 141.873  0.00  0.00    +0.000 OA
ATOM     22  O   UNL     1     107.695 126.077 140.641  0.00  0.00    +0.000 OA
ATOM     23  O   UNL     1     108.541 127.882 142.689  0.00  0.00    +0.000 OA
ATOM     24  C   UNL     1     108.118 126.980 141.665  0.00  0.00    +0.000 C 
ATOM     25  C   UNL     1     108.300 126.462 141.049  0.00  0.00    +0.000 C 
ATOM     26  C   UNL     1     108.723 127.365 142.073  0.00  0.00    +0.000 C 
ATOM     27  C   UNL     1     109.087 126.329 140.841  0.00  0.00    +0.000 C 
ATOM     28  C   UNL     1     109.510 127.233 141.865  0.00  0.00    +0.000 C 
BRANCH  27  30
ATOM     29  O   UNL     1     109.783 125.179 140.357  0.00  0.00    +0.000 OA
ATOM     30  C   UNL     1     109.270 125.812 140.225  0.00  0.00    +0.000 C 
ENDBRANCH  27  30
ENDBRANCH  19  28
ENDBRANCH  13  19
ENDBRANCH   5  14
BRANCH   4  31
ATOM     31  O   UNL     1     113.303 130.604 137.328  0.00  0.00    +0.000 OA
BRANCH  31  40
ATOM     32  O   UNL     1     113.620 129.334 136.756  0.00  0.00    +0.000 OA
ATOM     33  O   UNL     1     114.796 128.816 134.991  0.00  0.00    +0.000 OA
ATOM     34  O   UNL     1     114.907 130.462 134.967  0.00  0.00    +0.000 OA
ATOM     35  O   UNL     1     114.161 131.356 136.136  0.00  0.00    +0.000 OA
ATOM     36  C   UNL     1     113.994 128.886 136.171  0.00  0.00    +0.000 C 
ATOM     37  C   UNL     1     114.422 129.263 135.575  0.00  0.00    +0.000 C 
ATOM     38  C   UNL     1     114.478 130.085 135.563  0.00  0.00    +0.000 C 
ATOM     39  C   UNL     1     114.105 130.533 136.148  0.00  0.00    +0.000 C 
ATOM     40  C   UNL     1     113.676 130.157 136.744  0.00  0.00    +0.000 C 
BRANCH  36  41
ATOM     41  C   UNL     1     113.938 128.064 136.183  0.00  0.00    +0.000 C 
BRANCH  41  42
ATOM     42  O   UNL     1     113.223 127.702 136.380  0.00  0.00    +0.000 OA
BRANCH  42  48
ATOM     43  O   UNL     1     113.850 126.461 136.710  0.00  0.00    +0.000 OA
ATOM     44  O   UNL     1     111.817 126.904 136.051  0.00  0.00    +0.000 OA
ATOM     45  O   UNL     1     111.741 125.264 136.216  0.00  0.00    +0.000 OA
ATOM     46  O   UNL     1     113.071 124.422 136.710  0.00  0.00    +0.000 OA
ATOM     47  C   UNL     1     112.482 126.483 136.298  0.00  0.00    +0.000 C 
ATOM     48  C   UNL     1     113.186 126.882 136.463  0.00  0.00    +0.000 C 
ATOM     49  C   UNL     1     112.444 125.663 136.380  0.00  0.00    +0.000 C 
ATOM     50  C   UNL     1     113.109 125.241 136.627  0.00  0.00    +0.000 C 
ATOM     51  C   UNL     1     113.813 125.641 136.792  0.00  0.00    +0.000 C 
ATOM     52  C   UNL     1     114.477 125.220 137.039  0.00  0.00    +0.000 C 
ENDBRANCH  42  48
ENDBRANCH  41  42
ENDBRANCH  36  41
ENDBRANCH  31  40
ENDBRANCH   4  31
TORSDOF 9
ENDMDL
MODEL 10
REMARK VINA RESULT:     -10.4      1.877      3.360
REMARK  Name = 14375140
REMARK  9 active torsions:
REMARK  status: ('A' for Active; 'I' for Inactive)
REMARK    1  A    between atoms: O_2  and  C_25
REMARK    2  A    between atoms: O_2  and  C_29
REMARK    3  A    between atoms: O_5  and  C_28
REMARK    4  A    between atoms: O_5  and  C_38
REMARK    5  A    between atoms: O_12  and  C_35
REMARK    6  A    between atoms: O_12  and  C_42
REMARK    7  A    between atoms: C_20  and  C_29
REMARK    8  A    between atoms: C_34  and  C_37
REMARK    9  A    between atoms: C_39  and  C_46
REMARK                            x       y       z     vdW  Elec       q    Type
REMARK                         _______ _______ _______ _____ _____    ______ ____
ROOT
ATOM      1  O   UNL     1     111.056 129.265 137.882  0.00  0.00    +0.000 OA
ATOM      2  O   UNL     1     110.996 132.117 138.340  0.00  0.00    +0.000 OA
ATOM      3  O   UNL     1     112.115 131.492 137.676  0.00  0.00    +0.000 OA
ATOM      4  C   UNL     1     109.501 130.534 138.864  0.00  0.00    +0.000 A 
ATOM      5  C   UNL     1     111.792 129.340 137.518  0.00  0.00    +0.000 C 
ATOM      6  C   UNL     1     109.905 129.842 138.554  0.00  0.00    +0.000 A 
ATOM      7  C   UNL     1     110.672 129.933 138.177  0.00  0.00    +0.000 A 
ATOM      8  C   UNL     1     111.025 130.676 138.109  0.00  0.00    +0.000 A 
ATOM      9  C   UNL     1     109.869 131.308 138.792  0.00  0.00    +0.000 A 
ATOM     10  C   UNL     1     112.145 130.082 137.449  0.00  0.00    +0.000 C 
ATOM     11  C   UNL     1     110.636 131.379 138.412  0.00  0.00    +0.000 A 
ATOM     12  C   UNL     1     111.761 130.750 137.745  0.00  0.00    +0.000 C 
ENDROOT
BRANCH   5  14
ATOM     13  C   UNL     1     112.943 127.336 136.631  0.00  0.00    +0.000 A 
ATOM     14  C   UNL     1     112.176 128.672 137.223  0.00  0.00    +0.000 A 
ATOM     15  C   UNL     1     112.924 127.475 137.444  0.00  0.00    +0.000 A 
ATOM     16  C   UNL     1     112.578 127.865 136.113  0.00  0.00    +0.000 A 
ATOM     17  C   UNL     1     112.540 128.143 137.739  0.00  0.00    +0.000 A 
ATOM     18  C   UNL     1     112.195 128.533 136.409  0.00  0.00    +0.000 A 
BRANCH  13  19
ATOM     19  O   UNL     1     113.326 126.668 136.335  0.00  0.00    +0.000 OA
BRANCH  19  28
ATOM     20  O   UNL     1     112.173 125.835 136.199  0.00  0.00    +0.000 OA
ATOM     21  O   UNL     1     113.489 123.886 136.969  0.00  0.00    +0.000 OA
ATOM     22  O   UNL     1     111.897 123.703 136.576  0.00  0.00    +0.000 OA
ATOM     23  O   UNL     1     114.203 125.368 136.848  0.00  0.00    +0.000 OA
ATOM     24  C   UNL     1     113.050 124.536 136.712  0.00  0.00    +0.000 C 
ATOM     25  C   UNL     1     112.254 124.444 136.516  0.00  0.00    +0.000 C 
ATOM     26  C   UNL     1     113.407 125.277 136.652  0.00  0.00    +0.000 C 
ATOM     27  C   UNL     1     111.815 125.094 136.259  0.00  0.00    +0.000 C 
ATOM     28  C   UNL     1     112.969 125.927 136.396  0.00  0.00    +0.000 C 
BRANCH  27  30
ATOM     29  O   UNL     1     110.748 125.242 135.321  0.00  0.00    +0.000 OA
ATOM     30  C   UNL     1     111.019 125.003 136.063  0.00  0.00    +0.000 C 
ENDBRANCH  27  30
ENDBRANCH  19  28
ENDBRANCH  13  19
ENDBRANCH   5  14
BRANCH   4  31
ATOM     31  O   UNL     1     108.764 130.457 139.228  0.00  0.00    +0.000 OA
BRANCH  31  40
ATOM     32  O   UNL     1     109.250 129.818 140.410  0.00  0.00    +0.000 OA
ATOM     33  O   UNL     1     108.575 129.946 142.483  0.00  0.00    +0.000 OA
ATOM     34  O   UNL     1     107.510 130.968 141.745  0.00  0.00    +0.000 OA
ATOM     35  O   UNL     1     107.605 131.223 140.117  0.00  0.00    +0.000 OA
ATOM     36  C   UNL     1     109.203 129.690 141.225  0.00  0.00    +0.000 C 
ATOM     37  C   UNL     1     108.622 130.074 141.669  0.00  0.00    +0.000 C 
ATOM     38  C   UNL     1     108.090 130.584 141.300  0.00  0.00    +0.000 C 
ATOM     39  C   UNL     1     108.137 130.712 140.486  0.00  0.00    +0.000 C 
ATOM     40  C   UNL     1     108.717 130.329 140.041  0.00  0.00    +0.000 C 
BRANCH  36  41
ATOM     41  C   UNL     1     109.735 129.180 141.593  0.00  0.00    +0.000 C 
BRANCH  41  42
ATOM     42  O   UNL     1     109.775 128.389 141.362  0.00  0.00    +0.000 OA
BRANCH  42  48
ATOM     43  O   UNL     1     111.203 128.423 141.396  0.00  0.00    +0.000 OA
ATOM     44  O   UNL     1     109.816 126.740 141.316  0.00  0.00    +0.000 OA
ATOM     45  O   UNL     1     111.264 125.950 141.327  0.00  0.00    +0.000 OA
ATOM     46  O   UNL     1     112.672 126.809 141.385  0.00  0.00    +0.000 OA
ATOM     47  C   UNL     1     110.520 127.169 141.345  0.00  0.00    +0.000 C 
ATOM     48  C   UNL     1     110.500 127.995 141.368  0.00  0.00    +0.000 C 
ATOM     49  C   UNL     1     111.244 126.775 141.350  0.00  0.00    +0.000 C 
ATOM     50  C   UNL     1     111.948 127.203 141.379  0.00  0.00    +0.000 C 
ATOM     51  C   UNL     1     111.928 128.029 141.402  0.00  0.00    +0.000 C 
ATOM     52  C   UNL     1     112.631 128.458 141.431  0.00  0.00    +0.000 C 
ENDBRANCH  42  48
ENDBRANCH  41  42
ENDBRANCH  36  41
ENDBRANCH  31  40
ENDBRANCH   4  31
TORSDOF 9
ENDMDL
