MODEL 1
REMARK VINA RESULT:      -9.9      0.000      0.000
REMARK  Name = 44258723
REMARK  3 active torsions:
REMARK  status: ('A' for Active; 'I' for Inactive)
REMARK    1  A    between atoms: O_2  and  C_14
REMARK    2  A    between atoms: O_2  and  C_16
REMARK    3  A    between atoms: C_17  and  C_21
REMARK                            x       y       z     vdW  Elec       q    Type
REMARK                         _______ _______ _______ _____ _____    ______ ____
ROOT
ATOM      1  O   UNL     1     105.606 124.448 147.762  0.00  0.00    +0.000 OA
ATOM      2  O   UNL     1     107.008 125.634 146.102  0.00  0.00    +0.000 OA
ATOM      3  O   UNL     1     108.143 125.598 146.992  0.00  0.00    +0.000 OA
ATOM      4  O   UNL     1     107.854 124.337 149.610  0.00  0.00    +0.000 OA
ATOM      5  C   UNL     1     105.752 125.066 146.482  0.00  0.00    +0.000 A 
ATOM      6  C   UNL     1     105.286 124.671 147.035  0.00  0.00    +0.000 A 
ATOM      7  C   UNL     1     106.541 125.239 146.656  0.00  0.00    +0.000 A 
ATOM      8  C   UNL     1     106.861 125.016 147.382  0.00  0.00    +0.000 A 
ATOM      9  C   UNL     1     106.394 124.621 147.935  0.00  0.00    +0.000 A 
ATOM     10  C   UNL     1     107.683 125.202 147.551  0.00  0.00    +0.000 A 
ATOM     11  C   UNL     1     106.716 124.384 148.695  0.00  0.00    +0.000 A 
ATOM     12  C   UNL     1     108.023 124.973 148.306  0.00  0.00    +0.000 A 
ATOM     13  C   UNL     1     107.536 124.561 148.883  0.00  0.00    +0.000 A 
ENDROOT
BRANCH   6  14
ATOM     14  C   UNL     1     104.497 124.499 146.861  0.00  0.00    +0.000 A 
ATOM     15  C   UNL     1     103.892 124.925 147.224  0.00  0.00    +0.000 A 
ATOM     16  C   UNL     1     104.316 123.899 146.324  0.00  0.00    +0.000 A 
ATOM     17  C   UNL     1     103.105 124.753 147.050  0.00  0.00    +0.000 A 
ATOM     18  C   UNL     1     103.527 123.726 146.151  0.00  0.00    +0.000 A 
ATOM     19  C   UNL     1     102.922 124.153 146.513  0.00  0.00    +0.000 A 
ENDBRANCH   6  14
BRANCH   5  20
ATOM     20  O   UNL     1     105.432 125.289 145.755  0.00  0.00    +0.000 OA
BRANCH  20  29
ATOM     21  O   UNL     1     105.323 126.671 146.101  0.00  0.00    +0.000 OA
ATOM     22  O   UNL     1     105.629 127.290 143.724  0.00  0.00    +0.000 OA
ATOM     23  O   UNL     1     105.418 128.466 144.862  0.00  0.00    +0.000 OA
ATOM     24  O   UNL     1     105.636 125.702 144.170  0.00  0.00    +0.000 OA
ATOM     25  C   UNL     1     105.527 127.084 144.516  0.00  0.00    +0.000 C 
ATOM     26  C   UNL     1     105.421 127.671 145.086  0.00  0.00    +0.000 C 
ATOM     27  C   UNL     1     105.530 126.290 144.740  0.00  0.00    +0.000 C 
ATOM     28  C   UNL     1     105.319 127.465 145.878  0.00  0.00    +0.000 C 
ATOM     29  C   UNL     1     105.428 126.084 145.532  0.00  0.00    +0.000 C 
ATOM     30  C   UNL     1     105.214 128.054 146.447  0.00  0.00    +0.000 C 
ENDBRANCH  20  29
ENDBRANCH   5  20
TORSDOF 3
ENDMDL
MODEL 2
REMARK VINA RESULT:      -9.9      1.507      3.957
REMARK  Name = 44258723
REMARK  3 active torsions:
REMARK  status: ('A' for Active; 'I' for Inactive)
REMARK    1  A    between atoms: O_2  and  C_14
REMARK    2  A    between atoms: O_2  and  C_16
REMARK    3  A    between atoms: C_17  and  C_21
REMARK                            x       y       z     vdW  Elec       q    Type
REMARK                         _______ _______ _______ _____ _____    ______ ____
ROOT
ATOM      1  O   UNL     1     103.769 125.787 147.324  0.00  0.00    +0.000 OA
ATOM      2  O   UNL     1     105.689 124.455 146.511  0.00  0.00    +0.000 OA
ATOM      3  O   UNL     1     104.813 123.377 146.121  0.00  0.00    +0.000 OA
ATOM      4  O   UNL     1     101.939 123.653 146.564  0.00  0.00    +0.000 OA
ATOM      5  C   UNL     1     105.175 125.648 147.106  0.00  0.00    +0.000 A 
ATOM      6  C   UNL     1     104.534 126.091 147.377  0.00  0.00    +0.000 A 
ATOM      7  C   UNL     1     105.049 124.899 146.782  0.00  0.00    +0.000 A 
ATOM      8  C   UNL     1     104.284 124.595 146.729  0.00  0.00    +0.000 A 
ATOM      9  C   UNL     1     103.644 125.040 147.001  0.00  0.00    +0.000 A 
ATOM     10  C   UNL     1     104.166 123.815 146.390  0.00  0.00    +0.000 A 
ATOM     11  C   UNL     1     102.843 124.734 146.951  0.00  0.00    +0.000 A 
ATOM     12  C   UNL     1     103.372 123.492 146.332  0.00  0.00    +0.000 A 
ATOM     13  C   UNL     1     102.705 123.955 146.615  0.00  0.00    +0.000 A 
ENDROOT
BRANCH   6  14
ATOM     14  C   UNL     1     104.660 126.840 147.701  0.00  0.00    +0.000 A 
ATOM     15  C   UNL     1     104.848 127.476 147.210  0.00  0.00    +0.000 A 
ATOM     16  C   UNL     1     104.597 126.952 148.516  0.00  0.00    +0.000 A 
ATOM     17  C   UNL     1     104.973 128.224 147.534  0.00  0.00    +0.000 A 
ATOM     18  C   UNL     1     104.723 127.701 148.840  0.00  0.00    +0.000 A 
ATOM     19  C   UNL     1     104.911 128.337 148.349  0.00  0.00    +0.000 A 
ENDBRANCH   6  14
BRANCH   5  20
ATOM     20  O   UNL     1     105.940 125.951 147.158  0.00  0.00    +0.000 OA
BRANCH  20  29
ATOM     21  O   UNL     1     106.290 125.140 148.281  0.00  0.00    +0.000 OA
ATOM     22  O   UNL     1     108.665 125.203 147.586  0.00  0.00    +0.000 OA
ATOM     23  O   UNL     1     108.224 124.371 148.941  0.00  0.00    +0.000 OA
ATOM     24  O   UNL     1     107.523 125.993 146.695  0.00  0.00    +0.000 OA
ATOM     25  C   UNL     1     107.873 125.182 147.818  0.00  0.00    +0.000 C 
ATOM     26  C   UNL     1     107.652 124.766 148.495  0.00  0.00    +0.000 C 
ATOM     27  C   UNL     1     107.302 125.577 147.373  0.00  0.00    +0.000 C 
ATOM     28  C   UNL     1     106.861 124.745 148.727  0.00  0.00    +0.000 C 
ATOM     29  C   UNL     1     106.510 125.556 147.604  0.00  0.00    +0.000 C 
ATOM     30  C   UNL     1     106.641 124.329 149.404  0.00  0.00    +0.000 C 
ENDBRANCH  20  29
ENDBRANCH   5  20
TORSDOF 3
ENDMDL
MODEL 3
REMARK VINA RESULT:      -9.8      1.664      3.773
REMARK  Name = 44258723
REMARK  3 active torsions:
REMARK  status: ('A' for Active; 'I' for Inactive)
REMARK    1  A    between atoms: O_2  and  C_14
REMARK    2  A    between atoms: O_2  and  C_16
REMARK    3  A    between atoms: C_17  and  C_21
REMARK                            x       y       z     vdW  Elec       q    Type
REMARK                         _______ _______ _______ _____ _____    ______ ____
ROOT
ATOM      1  O   UNL     1     102.703 124.410 147.250  0.00  0.00    +0.000 OA
ATOM      2  O   UNL     1     104.782 123.557 146.212  0.00  0.00    +0.000 OA
ATOM      3  O   UNL     1     104.022 122.750 145.288  0.00  0.00    +0.000 OA
ATOM      4  O   UNL     1     101.105 122.808 145.417  0.00  0.00    +0.000 OA
ATOM      5  C   UNL     1     104.130 124.379 147.183  0.00  0.00    +0.000 A 
ATOM      6  C   UNL     1     103.438 124.663 147.529  0.00  0.00    +0.000 A 
ATOM      7  C   UNL     1     104.089 123.841 146.558  0.00  0.00    +0.000 A 
ATOM      8  C   UNL     1     103.354 123.589 146.279  0.00  0.00    +0.000 A 
ATOM      9  C   UNL     1     102.662 123.874 146.626  0.00  0.00    +0.000 A 
ATOM     10  C   UNL     1     103.324 123.030 145.628  0.00  0.00    +0.000 A 
ATOM     11  C   UNL     1     101.891 123.618 146.344  0.00  0.00    +0.000 A 
ATOM     12  C   UNL     1     102.563 122.763 145.333  0.00  0.00    +0.000 A 
ATOM     13  C   UNL     1     101.841 123.059 145.694  0.00  0.00    +0.000 A 
ENDROOT
BRANCH   6  14
ATOM     14  C   UNL     1     103.479 125.200 148.154  0.00  0.00    +0.000 A 
ATOM     15  C   UNL     1     103.298 125.995 148.028  0.00  0.00    +0.000 A 
ATOM     16  C   UNL     1     103.703 124.942 148.905  0.00  0.00    +0.000 A 
ATOM     17  C   UNL     1     103.339 126.531 148.653  0.00  0.00    +0.000 A 
ATOM     18  C   UNL     1     103.745 125.479 149.530  0.00  0.00    +0.000 A 
ATOM     19  C   UNL     1     103.563 126.274 149.404  0.00  0.00    +0.000 A 
ENDBRANCH   6  14
BRANCH   5  20
ATOM     20  O   UNL     1     104.865 124.631 147.462  0.00  0.00    +0.000 OA
BRANCH  20  29
ATOM     21  O   UNL     1     105.106 125.490 146.345  0.00  0.00    +0.000 OA
ATOM     22  O   UNL     1     107.544 125.182 146.634  0.00  0.00    +0.000 OA
ATOM     23  O   UNL     1     106.972 126.143 145.421  0.00  0.00    +0.000 OA
ATOM     24  O   UNL     1     106.491 124.426 147.654  0.00  0.00    +0.000 OA
ATOM     25  C   UNL     1     106.731 125.285 146.538  0.00  0.00    +0.000 C 
ATOM     26  C   UNL     1     106.445 125.765 145.932  0.00  0.00    +0.000 C 
ATOM     27  C   UNL     1     106.204 124.907 147.047  0.00  0.00    +0.000 C 
ATOM     28  C   UNL     1     105.632 125.868 145.835  0.00  0.00    +0.000 C 
ATOM     29  C   UNL     1     105.391 125.010 146.951  0.00  0.00    +0.000 C 
ATOM     30  C   UNL     1     105.347 126.349 145.228  0.00  0.00    +0.000 C 
ENDBRANCH  20  29
ENDBRANCH   5  20
TORSDOF 3
ENDMDL
MODEL 4
REMARK VINA RESULT:      -9.7     10.101     12.038
REMARK  Name = 44258723
REMARK  3 active torsions:
REMARK  status: ('A' for Active; 'I' for Inactive)
REMARK    1  A    between atoms: O_2  and  C_14
REMARK    2  A    between atoms: O_2  and  C_16
REMARK    3  A    between atoms: C_17  and  C_21
REMARK                            x       y       z     vdW  Elec       q    Type
REMARK                         _______ _______ _______ _____ _____    ______ ____
ROOT
ATOM      1  O   UNL     1     113.731 127.092 136.524  0.00  0.00    +0.000 OA
ATOM      2  O   UNL     1     112.172 127.969 138.235  0.00  0.00    +0.000 OA
ATOM      3  O   UNL     1     112.245 129.292 137.663  0.00  0.00    +0.000 OA
ATOM      4  O   UNL     1     113.926 129.736 135.317  0.00  0.00    +0.000 OA
ATOM      5  C   UNL     1     112.907 126.880 137.672  0.00  0.00    +0.000 A 
ATOM      6  C   UNL     1     113.427 126.588 137.102  0.00  0.00    +0.000 A 
ATOM      7  C   UNL     1     112.692 127.677 137.664  0.00  0.00    +0.000 A 
ATOM      8  C   UNL     1     112.997 128.181 137.087  0.00  0.00    +0.000 A 
ATOM      9  C   UNL     1     113.516 127.888 136.516  0.00  0.00    +0.000 A 
ATOM     10  C   UNL     1     112.765 129.008 137.089  0.00  0.00    +0.000 A 
ATOM     11  C   UNL     1     113.840 128.403 135.910  0.00  0.00    +0.000 A 
ATOM     12  C   UNL     1     113.079 129.538 136.490  0.00  0.00    +0.000 A 
ATOM     13  C   UNL     1     113.620 129.234 135.896  0.00  0.00    +0.000 A 
ENDROOT
BRANCH   6  14
ATOM     14  C   UNL     1     113.642 125.791 137.109  0.00  0.00    +0.000 A 
ATOM     15  C   UNL     1     114.391 125.568 137.373  0.00  0.00    +0.000 A 
ATOM     16  C   UNL     1     113.107 125.218 136.854  0.00  0.00    +0.000 A 
ATOM     17  C   UNL     1     114.606 124.773 137.380  0.00  0.00    +0.000 A 
ATOM     18  C   UNL     1     113.322 124.421 136.861  0.00  0.00    +0.000 A 
ATOM     19  C   UNL     1     114.072 124.198 137.125  0.00  0.00    +0.000 A 
ENDBRANCH   6  14
BRANCH   5  20
ATOM     20  O   UNL     1     112.603 126.376 138.250  0.00  0.00    +0.000 OA
BRANCH  20  29
ATOM     21  O   UNL     1     113.438 126.884 139.292  0.00  0.00    +0.000 OA
ATOM     22  O   UNL     1     111.688 126.345 140.957  0.00  0.00    +0.000 OA
ATOM     23  O   UNL     1     113.107 127.033 141.444  0.00  0.00    +0.000 OA
ATOM     24  O   UNL     1     111.436 126.017 139.360  0.00  0.00    +0.000 OA
ATOM     25  C   UNL     1     112.271 126.525 140.402  0.00  0.00    +0.000 C 
ATOM     26  C   UNL     1     112.981 126.868 140.645  0.00  0.00    +0.000 C 
ATOM     27  C   UNL     1     112.146 126.361 139.604  0.00  0.00    +0.000 C 
ATOM     28  C   UNL     1     113.564 127.048 140.090  0.00  0.00    +0.000 C 
ATOM     29  C   UNL     1     112.729 126.540 139.048  0.00  0.00    +0.000 C 
ATOM     30  C   UNL     1     114.273 127.392 140.334  0.00  0.00    +0.000 C 
ENDBRANCH  20  29
ENDBRANCH   5  20
TORSDOF 3
ENDMDL
MODEL 5
REMARK VINA RESULT:      -9.5      9.901     11.537
REMARK  Name = 44258723
REMARK  3 active torsions:
REMARK  status: ('A' for Active; 'I' for Inactive)
REMARK    1  A    between atoms: O_2  and  C_14
REMARK    2  A    between atoms: O_2  and  C_16
REMARK    3  A    between atoms: C_17  and  C_21
REMARK                            x       y       z     vdW  Elec       q    Type
REMARK                         _______ _______ _______ _____ _____    ______ ____
ROOT
ATOM      1  O   UNL     1     113.516 126.148 138.627  0.00  0.00    +0.000 OA
ATOM      2  O   UNL     1     111.127 125.708 138.155  0.00  0.00    +0.000 OA
ATOM      3  O   UNL     1     110.742 126.278 139.423  0.00  0.00    +0.000 OA
ATOM      4  O   UNL     1     112.814 127.312 141.202  0.00  0.00    +0.000 OA
ATOM      5  C   UNL     1     112.498 125.644 137.759  0.00  0.00    +0.000 A 
ATOM      6  C   UNL     1     113.295 125.791 137.917  0.00  0.00    +0.000 A 
ATOM      7  C   UNL     1     111.923 125.855 138.312  0.00  0.00    +0.000 A 
ATOM      8  C   UNL     1     112.144 126.213 139.022  0.00  0.00    +0.000 A 
ATOM      9  C   UNL     1     112.941 126.360 139.179  0.00  0.00    +0.000 A 
ATOM     10  C   UNL     1     111.536 126.429 139.589  0.00  0.00    +0.000 A 
ATOM     11  C   UNL     1     113.184 126.732 139.914  0.00  0.00    +0.000 A 
ATOM     12  C   UNL     1     111.760 126.802 140.330  0.00  0.00    +0.000 A 
ATOM     13  C   UNL     1     112.590 126.954 140.494  0.00  0.00    +0.000 A 
ENDROOT
BRANCH   6  14
ATOM     14  C   UNL     1     113.870 125.579 137.364  0.00  0.00    +0.000 A 
ATOM     15  C   UNL     1     114.112 124.793 137.300  0.00  0.00    +0.000 A 
ATOM     16  C   UNL     1     114.203 126.154 136.876  0.00  0.00    +0.000 A 
ATOM     17  C   UNL     1     114.686 124.582 136.748  0.00  0.00    +0.000 A 
ATOM     18  C   UNL     1     114.779 125.943 136.323  0.00  0.00    +0.000 A 
ATOM     19  C   UNL     1     115.020 125.156 136.259  0.00  0.00    +0.000 A 
ENDBRANCH   6  14
BRANCH   5  20
ATOM     20  O   UNL     1     112.277 125.286 137.050  0.00  0.00    +0.000 OA
BRANCH  20  29
ATOM     21  O   UNL     1     111.793 126.500 136.472  0.00  0.00    +0.000 OA
ATOM     22  O   UNL     1     110.194 125.207 135.094  0.00  0.00    +0.000 OA
ATOM     23  O   UNL     1     110.243 126.852 134.976  0.00  0.00    +0.000 OA
ATOM     24  O   UNL     1     111.211 124.424 136.131  0.00  0.00    +0.000 OA
ATOM     25  C   UNL     1     110.727 125.638 135.554  0.00  0.00    +0.000 C 
ATOM     26  C   UNL     1     110.752 126.461 135.495  0.00  0.00    +0.000 C 
ATOM     27  C   UNL     1     111.236 125.247 136.072  0.00  0.00    +0.000 C 
ATOM     28  C   UNL     1     111.285 126.891 135.954  0.00  0.00    +0.000 C 
ATOM     29  C   UNL     1     111.769 125.678 136.531  0.00  0.00    +0.000 C 
ATOM     30  C   UNL     1     111.309 127.714 135.895  0.00  0.00    +0.000 C 
ENDBRANCH  20  29
ENDBRANCH   5  20
TORSDOF 3
ENDMDL
MODEL 6
REMARK VINA RESULT:      -9.5     10.131     11.841
REMARK  Name = 44258723
REMARK  3 active torsions:
REMARK  status: ('A' for Active; 'I' for Inactive)
REMARK    1  A    between atoms: O_2  and  C_14
REMARK    2  A    between atoms: O_2  and  C_16
REMARK    3  A    between atoms: C_17  and  C_21
REMARK                            x       y       z     vdW  Elec       q    Type
REMARK                         _______ _______ _______ _____ _____    ______ ____
ROOT
ATOM      1  O   UNL     1     112.071 125.491 136.123  0.00  0.00    +0.000 OA
ATOM      2  O   UNL     1     110.975 126.445 138.126  0.00  0.00    +0.000 OA
ATOM      3  O   UNL     1     109.732 126.597 137.409  0.00  0.00    +0.000 OA
ATOM      4  O   UNL     1     109.596 125.767 134.612  0.00  0.00    +0.000 OA
ATOM      5  C   UNL     1     112.133 125.898 137.491  0.00  0.00    +0.000 A 
ATOM      6  C   UNL     1     112.497 125.580 136.823  0.00  0.00    +0.000 A 
ATOM      7  C   UNL     1     111.340 126.127 137.458  0.00  0.00    +0.000 A 
ATOM      8  C   UNL     1     110.913 126.038 136.758  0.00  0.00    +0.000 A 
ATOM      9  C   UNL     1     111.280 125.719 136.090  0.00  0.00    +0.000 A 
ATOM     10  C   UNL     1     110.090 126.279 136.736  0.00  0.00    +0.000 A 
ATOM     11  C   UNL     1     110.846 125.621 135.355  0.00  0.00    +0.000 A 
ATOM     12  C   UNL     1     109.640 126.189 136.010  0.00  0.00    +0.000 A 
ATOM     13  C   UNL     1     110.020 125.858 135.314  0.00  0.00    +0.000 A 
ENDROOT
BRANCH   6  14
ATOM     14  C   UNL     1     113.290 125.351 136.856  0.00  0.00    +0.000 A 
ATOM     15  C   UNL     1     113.868 125.812 136.491  0.00  0.00    +0.000 A 
ATOM     16  C   UNL     1     113.503 124.661 137.255  0.00  0.00    +0.000 A 
ATOM     17  C   UNL     1     114.660 125.584 136.524  0.00  0.00    +0.000 A 
ATOM     18  C   UNL     1     114.296 124.433 137.288  0.00  0.00    +0.000 A 
ATOM     19  C   UNL     1     114.874 124.894 136.922  0.00  0.00    +0.000 A 
ENDBRANCH   6  14
BRANCH   5  20
ATOM     20  O   UNL     1     112.559 125.987 138.192  0.00  0.00    +0.000 OA
BRANCH  20  29
ATOM     21  O   UNL     1     112.726 127.399 138.043  0.00  0.00    +0.000 OA
ATOM     22  O   UNL     1     112.764 127.654 140.504  0.00  0.00    +0.000 OA
ATOM     23  O   UNL     1     112.917 128.981 139.535  0.00  0.00    +0.000 OA
ATOM     24  O   UNL     1     112.585 126.158 139.833  0.00  0.00    +0.000 OA
ATOM     25  C   UNL     1     112.751 127.569 139.684  0.00  0.00    +0.000 C 
ATOM     26  C   UNL     1     112.828 128.232 139.199  0.00  0.00    +0.000 C 
ATOM     27  C   UNL     1     112.662 126.821 139.348  0.00  0.00    +0.000 C 
ATOM     28  C   UNL     1     112.815 128.147 138.378  0.00  0.00    +0.000 C 
ATOM     29  C   UNL     1     112.649 126.736 138.527  0.00  0.00    +0.000 C 
ATOM     30  C   UNL     1     112.892 128.810 137.894  0.00  0.00    +0.000 C 
ENDBRANCH  20  29
ENDBRANCH   5  20
TORSDOF 3
ENDMDL
MODEL 7
REMARK VINA RESULT:      -9.5     11.785     12.820
REMARK  Name = 44258723
REMARK  3 active torsions:
REMARK  status: ('A' for Active; 'I' for Inactive)
REMARK    1  A    between atoms: O_2  and  C_14
REMARK    2  A    between atoms: O_2  and  C_16
REMARK    3  A    between atoms: C_17  and  C_21
REMARK                            x       y       z     vdW  Elec       q    Type
REMARK                         _______ _______ _______ _____ _____    ______ ____
ROOT
ATOM      1  O   UNL     1     112.049 125.693 136.135  0.00  0.00    +0.000 OA
ATOM      2  O   UNL     1     111.519 128.059 136.628  0.00  0.00    +0.000 OA
ATOM      3  O   UNL     1     110.288 127.969 135.882  0.00  0.00    +0.000 OA
ATOM      4  O   UNL     1     109.580 125.436 134.613  0.00  0.00    +0.000 OA
ATOM      5  C   UNL     1     112.391 126.934 136.755  0.00  0.00    +0.000 A 
ATOM      6  C   UNL     1     112.568 126.146 136.590  0.00  0.00    +0.000 A 
ATOM      7  C   UNL     1     111.696 127.271 136.464  0.00  0.00    +0.000 A 
ATOM      8  C   UNL     1     111.177 126.818 136.009  0.00  0.00    +0.000 A 
ATOM      9  C   UNL     1     111.355 126.029 135.845  0.00  0.00    +0.000 A 
ATOM     10  C   UNL     1     110.457 127.179 135.712  0.00  0.00    +0.000 A 
ATOM     11  C   UNL     1     110.823 125.547 135.373  0.00  0.00    +0.000 A 
ATOM     12  C   UNL     1     109.913 126.713 135.238  0.00  0.00    +0.000 A 
ATOM     13  C   UNL     1     110.097 125.891 135.067  0.00  0.00    +0.000 A 
ENDROOT
BRANCH   6  14
ATOM     14  C   UNL     1     113.263 125.809 136.881  0.00  0.00    +0.000 A 
ATOM     15  C   UNL     1     113.335 125.640 137.685  0.00  0.00    +0.000 A 
ATOM     16  C   UNL     1     113.886 125.643 136.367  0.00  0.00    +0.000 A 
ATOM     17  C   UNL     1     114.030 125.304 137.975  0.00  0.00    +0.000 A 
ATOM     18  C   UNL     1     114.582 125.307 136.658  0.00  0.00    +0.000 A 
ATOM     19  C   UNL     1     114.654 125.137 137.462  0.00  0.00    +0.000 A 
ENDBRANCH   6  14
BRANCH   5  20
ATOM     20  O   UNL     1     112.910 127.387 137.209  0.00  0.00    +0.000 OA
BRANCH  20  29
ATOM     21  O   UNL     1     113.439 128.124 136.105  0.00  0.00    +0.000 OA
ATOM     22  O   UNL     1     113.760 130.092 137.571  0.00  0.00    +0.000 OA
ATOM     23  O   UNL     1     114.182 130.172 135.978  0.00  0.00    +0.000 OA
ATOM     24  O   UNL     1     113.124 128.699 138.187  0.00  0.00    +0.000 OA
ATOM     25  C   UNL     1     113.653 129.436 137.082  0.00  0.00    +0.000 C 
ATOM     26  C   UNL     1     113.864 129.475 136.286  0.00  0.00    +0.000 C 
ATOM     27  C   UNL     1     113.335 128.739 137.389  0.00  0.00    +0.000 C 
ATOM     28  C   UNL     1     113.757 128.819 135.797  0.00  0.00    +0.000 C 
ATOM     29  C   UNL     1     113.228 128.083 136.901  0.00  0.00    +0.000 C 
ATOM     30  C   UNL     1     113.968 128.860 135.000  0.00  0.00    +0.000 C 
ENDBRANCH  20  29
ENDBRANCH   5  20
TORSDOF 3
ENDMDL
MODEL 8
REMARK VINA RESULT:      -9.5      1.340      3.290
REMARK  Name = 44258723
REMARK  3 active torsions:
REMARK  status: ('A' for Active; 'I' for Inactive)
REMARK    1  A    between atoms: O_2  and  C_14
REMARK    2  A    between atoms: O_2  and  C_16
REMARK    3  A    between atoms: C_17  and  C_21
REMARK                            x       y       z     vdW  Elec       q    Type
REMARK                         _______ _______ _______ _____ _____    ______ ____
ROOT
ATOM      1  O   UNL     1     104.174 124.525 148.311  0.00  0.00    +0.000 OA
ATOM      2  O   UNL     1     104.228 124.381 145.841  0.00  0.00    +0.000 OA
ATOM      3  O   UNL     1     102.809 124.123 145.796  0.00  0.00    +0.000 OA
ATOM      4  O   UNL     1     101.307 124.010 148.299  0.00  0.00    +0.000 OA
ATOM      5  C   UNL     1     104.904 124.579 147.083  0.00  0.00    +0.000 A 
ATOM      6  C   UNL     1     104.886 124.628 147.907  0.00  0.00    +0.000 A 
ATOM      7  C   UNL     1     104.209 124.429 146.664  0.00  0.00    +0.000 A 
ATOM      8  C   UNL     1     103.497 124.326 147.068  0.00  0.00    +0.000 A 
ATOM      9  C   UNL     1     103.480 124.375 147.891  0.00  0.00    +0.000 A 
ATOM     10  C   UNL     1     102.781 124.170 146.620  0.00  0.00    +0.000 A 
ATOM     11  C   UNL     1     102.745 124.270 148.323  0.00  0.00    +0.000 A 
ATOM     12  C   UNL     1     102.037 124.062 147.035  0.00  0.00    +0.000 A 
ATOM     13  C   UNL     1     102.018 124.112 147.892  0.00  0.00    +0.000 A 
ENDROOT
BRANCH   6  14
ATOM     14  C   UNL     1     105.581 124.778 148.326  0.00  0.00    +0.000 A 
ATOM     15  C   UNL     1     105.700 125.516 148.677  0.00  0.00    +0.000 A 
ATOM     16  C   UNL     1     106.156 124.191 148.395  0.00  0.00    +0.000 A 
ATOM     17  C   UNL     1     106.393 125.666 149.095  0.00  0.00    +0.000 A 
ATOM     18  C   UNL     1     106.851 124.342 148.814  0.00  0.00    +0.000 A 
ATOM     19  C   UNL     1     106.970 125.079 149.165  0.00  0.00    +0.000 A 
ENDBRANCH   6  14
BRANCH   5  20
ATOM     20  O   UNL     1     105.616 124.682 146.679  0.00  0.00    +0.000 OA
BRANCH  20  29
ATOM     21  O   UNL     1     105.313 126.014 146.260  0.00  0.00    +0.000 OA
ATOM     22  O   UNL     1     106.698 125.691 144.234  0.00  0.00    +0.000 OA
ATOM     23  O   UNL     1     105.933 127.131 144.490  0.00  0.00    +0.000 OA
ATOM     24  O   UNL     1     106.539 124.467 145.329  0.00  0.00    +0.000 OA
ATOM     25  C   UNL     1     106.236 125.799 144.910  0.00  0.00    +0.000 C 
ATOM     26  C   UNL     1     105.854 126.518 145.038  0.00  0.00    +0.000 C 
ATOM     27  C   UNL     1     106.157 125.187 145.457  0.00  0.00    +0.000 C 
ATOM     28  C   UNL     1     105.392 126.626 145.713  0.00  0.00    +0.000 C 
ATOM     29  C   UNL     1     105.695 125.295 146.132  0.00  0.00    +0.000 C 
ATOM     30  C   UNL     1     105.010 127.346 145.841  0.00  0.00    +0.000 C 
ENDBRANCH  20  29
ENDBRANCH   5  20
TORSDOF 3
ENDMDL
MODEL 9
REMARK VINA RESULT:      -9.4     10.057     12.067
REMARK  Name = 44258723
REMARK  3 active torsions:
REMARK  status: ('A' for Active; 'I' for Inactive)
REMARK    1  A    between atoms: O_2  and  C_14
REMARK    2  A    between atoms: O_2  and  C_16
REMARK    3  A    between atoms: C_17  and  C_21
REMARK                            x       y       z     vdW  Elec       q    Type
REMARK                         _______ _______ _______ _____ _____    ______ ____
ROOT
ATOM      1  O   UNL     1     113.760 127.143 136.402  0.00  0.00    +0.000 OA
ATOM      2  O   UNL     1     112.361 128.028 138.241  0.00  0.00    +0.000 OA
ATOM      3  O   UNL     1     112.367 129.344 137.650  0.00  0.00    +0.000 OA
ATOM      4  O   UNL     1     113.815 129.772 135.151  0.00  0.00    +0.000 OA
ATOM      5  C   UNL     1     113.050 126.939 137.625  0.00  0.00    +0.000 A 
ATOM      6  C   UNL     1     113.516 126.644 137.012  0.00  0.00    +0.000 A 
ATOM      7  C   UNL     1     112.827 127.734 137.628  0.00  0.00    +0.000 A 
ATOM      8  C   UNL     1     113.071 128.233 137.018  0.00  0.00    +0.000 A 
ATOM      9  C   UNL     1     113.538 127.937 136.405  0.00  0.00    +0.000 A 
ATOM     10  C   UNL     1     112.833 129.058 137.033  0.00  0.00    +0.000 A 
ATOM     11  C   UNL     1     113.798 128.447 135.764  0.00  0.00    +0.000 A 
ATOM     12  C   UNL     1     113.084 129.583 136.401  0.00  0.00    +0.000 A 
ATOM     13  C   UNL     1     113.570 129.276 135.762  0.00  0.00    +0.000 A 
ENDROOT
BRANCH   6  14
ATOM     14  C   UNL     1     113.739 125.849 137.008  0.00  0.00    +0.000 A 
ATOM     15  C   UNL     1     113.366 125.318 136.498  0.00  0.00    +0.000 A 
ATOM     16  C   UNL     1     114.333 125.586 137.516  0.00  0.00    +0.000 A 
ATOM     17  C   UNL     1     113.589 124.524 136.495  0.00  0.00    +0.000 A 
ATOM     18  C   UNL     1     114.556 124.790 137.513  0.00  0.00    +0.000 A 
ATOM     19  C   UNL     1     114.183 124.260 137.002  0.00  0.00    +0.000 A 
ENDBRANCH   6  14
BRANCH   5  20
ATOM     20  O   UNL     1     112.806 126.439 138.235  0.00  0.00    +0.000 OA
BRANCH  20  29
ATOM     21  O   UNL     1     111.464 126.340 137.754  0.00  0.00    +0.000 OA
ATOM     22  O   UNL     1     110.663 125.971 140.067  0.00  0.00    +0.000 OA
ATOM     23  O   UNL     1     109.588 125.994 138.815  0.00  0.00    +0.000 OA
ATOM     24  O   UNL     1     112.272 126.193 139.776  0.00  0.00    +0.000 OA
ATOM     25  C   UNL     1     110.930 126.094 139.296  0.00  0.00    +0.000 C 
ATOM     26  C   UNL     1     110.393 126.106 138.670  0.00  0.00    +0.000 C 
ATOM     27  C   UNL     1     111.734 126.205 139.150  0.00  0.00    +0.000 C 
ATOM     28  C   UNL     1     110.660 126.229 137.899  0.00  0.00    +0.000 C 
ATOM     29  C   UNL     1     112.001 126.328 138.379  0.00  0.00    +0.000 C 
ATOM     30  C   UNL     1     110.122 126.241 137.273  0.00  0.00    +0.000 C 
ENDBRANCH  20  29
ENDBRANCH   5  20
TORSDOF 3
ENDMDL
MODEL 10
REMARK VINA RESULT:      -9.4      1.707      3.812
REMARK  Name = 44258723
REMARK  3 active torsions:
REMARK  status: ('A' for Active; 'I' for Inactive)
REMARK    1  A    between atoms: O_2  and  C_14
REMARK    2  A    between atoms: O_2  and  C_16
REMARK    3  A    between atoms: C_17  and  C_21
REMARK                            x       y       z     vdW  Elec       q    Type
REMARK                         _______ _______ _______ _____ _____    ______ ____
ROOT
ATOM      1  O   UNL     1     105.294 124.217 147.044  0.00  0.00    +0.000 OA
ATOM      2  O   UNL     1     103.657 125.798 148.017  0.00  0.00    +0.000 OA
ATOM      3  O   UNL     1     102.576 125.159 147.307  0.00  0.00    +0.000 OA
ATOM      4  O   UNL     1     103.163 122.878 145.580  0.00  0.00    +0.000 OA
ATOM      5  C   UNL     1     105.002 125.333 147.888  0.00  0.00    +0.000 A 
ATOM      6  C   UNL     1     105.548 124.806 147.564  0.00  0.00    +0.000 A 
ATOM      7  C   UNL     1     104.203 125.271 147.693  0.00  0.00    +0.000 A 
ATOM      8  C   UNL     1     103.949 124.682 147.173  0.00  0.00    +0.000 A 
ATOM      9  C   UNL     1     104.496 124.156 146.849  0.00  0.00    +0.000 A 
ATOM     10  C   UNL     1     103.115 124.628 146.978  0.00  0.00    +0.000 A 
ATOM     11  C   UNL     1     104.244 123.538 146.307  0.00  0.00    +0.000 A 
ATOM     12  C   UNL     1     102.845 124.017 146.437  0.00  0.00    +0.000 A 
ATOM     13  C   UNL     1     103.413 123.468 146.099  0.00  0.00    +0.000 A 
ENDROOT
BRANCH   6  14
ATOM     14  C   UNL     1     106.347 124.868 147.759  0.00  0.00    +0.000 A 
ATOM     15  C   UNL     1     106.882 125.184 147.215  0.00  0.00    +0.000 A 
ATOM     16  C   UNL     1     106.612 124.614 148.498  0.00  0.00    +0.000 A 
ATOM     17  C   UNL     1     107.680 125.246 147.411  0.00  0.00    +0.000 A 
ATOM     18  C   UNL     1     107.411 124.677 148.693  0.00  0.00    +0.000 A 
ATOM     19  C   UNL     1     107.946 124.992 148.150  0.00  0.00    +0.000 A 
ENDBRANCH   6  14
BRANCH   5  20
ATOM     20  O   UNL     1     105.256 125.922 148.408  0.00  0.00    +0.000 OA
BRANCH  20  29
ATOM     21  O   UNL     1     105.164 126.973 147.444  0.00  0.00    +0.000 OA
ATOM     22  O   UNL     1     104.649 128.585 149.250  0.00  0.00    +0.000 OA
ATOM     23  O   UNL     1     104.729 129.098 147.684  0.00  0.00    +0.000 OA
ATOM     24  O   UNL     1     104.912 126.996 149.612  0.00  0.00    +0.000 OA
ATOM     25  C   UNL     1     104.821 128.047 148.648  0.00  0.00    +0.000 C 
ATOM     26  C   UNL     1     104.861 128.303 147.865  0.00  0.00    +0.000 C 
ATOM     27  C   UNL     1     104.952 127.253 148.828  0.00  0.00    +0.000 C 
ATOM     28  C   UNL     1     105.032 127.766 147.263  0.00  0.00    +0.000 C 
ATOM     29  C   UNL     1     105.124 126.716 148.226  0.00  0.00    +0.000 C 
ATOM     30  C   UNL     1     105.072 128.024 146.480  0.00  0.00    +0.000 C 
ENDBRANCH  20  29
ENDBRANCH   5  20
TORSDOF 3
ENDMDL
