MODEL 1
REMARK VINA RESULT:     -10.6      0.000      0.000
REMARK  Name = 74977561
REMARK  2 active torsions:
REMARK  status: ('A' for Active; 'I' for Inactive)
REMARK    1  A    between atoms: C_13  and  C_16
REMARK    2  A    between atoms: C_24  and  C_26
REMARK                            x       y       z     vdW  Elec       q    Type
REMARK                         _______ _______ _______ _____ _____    ______ ____
ROOT
ATOM      1  O   UNL     1     106.001 124.367 141.565  0.00  0.00    +0.000 OA
ATOM      2  O   UNL     1     105.170 127.046 141.016  0.00  0.00    +0.000 OA
ATOM      3  O   UNL     1     104.260 124.905 139.317  0.00  0.00    +0.000 OA
ATOM      4  O   UNL     1     105.567 123.267 140.738  0.00  0.00    +0.000 OA
ATOM      5  C   UNL     1     105.585 125.706 141.291  0.00  0.00    +0.000 A 
ATOM      6  C   UNL     1     105.576 124.903 141.104  0.00  0.00    +0.000 A 
ATOM      7  C   UNL     1     105.160 126.242 140.829  0.00  0.00    +0.000 A 
ATOM      8  C   UNL     1     105.141 124.635 140.456  0.00  0.00    +0.000 A 
ATOM      9  C   UNL     1     104.726 125.975 140.181  0.00  0.00    +0.000 A 
ATOM     10  C   UNL     1     104.716 125.171 139.994  0.00  0.00    +0.000 A 
ATOM     11  C   UNL     1     105.139 123.796 140.272  0.00  0.00    +0.000 A 
ATOM     12  C   UNL     1     104.246 124.069 139.117  0.00  0.00    +0.000 A 
ATOM     13  C   UNL     1     104.688 123.511 139.598  0.00  0.00    +0.000 A 
ENDROOT
BRANCH   5  20
ATOM     14  O   UNL     1     105.676 125.993 142.688  0.00  0.00    +0.000 OA
ATOM     15  O   UNL     1     107.144 126.207 141.087  0.00  0.00    +0.000 OA
ATOM     16  O   UNL     1     108.014 126.744 142.383  0.00  0.00    +0.000 OA
ATOM     17  O   UNL     1     107.325 126.780 143.882  0.00  0.00    +0.000 OA
ATOM     18  C   UNL     1     106.799 126.225 141.837  0.00  0.00    +0.000 C 
ATOM     19  C   UNL     1     107.235 126.493 142.485  0.00  0.00    +0.000 C 
ATOM     20  C   UNL     1     106.020 125.975 141.939  0.00  0.00    +0.000 C 
ATOM     21  C   UNL     1     106.889 126.511 143.233  0.00  0.00    +0.000 C 
ATOM     22  C   UNL     1     106.110 126.261 143.335  0.00  0.00    +0.000 C 
ATOM     23  C   UNL     1     105.766 126.279 144.085  0.00  0.00    +0.000 C 
ENDBRANCH   5  20
BRANCH  12  26
ATOM     24  O   UNL     1     101.728 123.495 137.893  0.00  0.00    +0.000 OA
ATOM     25  O   UNL     1     102.505 123.012 136.521  0.00  0.00    +0.000 OA
ATOM     26  C   UNL     1     103.810 123.804 138.468  0.00  0.00    +0.000 A 
ATOM     27  C   UNL     1     102.986 123.782 138.505  0.00  0.00    +0.000 A 
ATOM     28  C   UNL     1     104.199 123.563 137.781  0.00  0.00    +0.000 A 
ATOM     29  C   UNL     1     102.551 123.518 137.856  0.00  0.00    +0.000 A 
ATOM     30  C   UNL     1     103.764 123.299 137.132  0.00  0.00    +0.000 A 
ATOM     31  C   UNL     1     102.940 123.276 137.169  0.00  0.00    +0.000 A 
ENDBRANCH  12  26
TORSDOF 2
ENDMDL
MODEL 2
REMARK VINA RESULT:     -10.0      4.422      6.157
REMARK  Name = 74977561
REMARK  2 active torsions:
REMARK  status: ('A' for Active; 'I' for Inactive)
REMARK    1  A    between atoms: C_13  and  C_16
REMARK    2  A    between atoms: C_24  and  C_26
REMARK                            x       y       z     vdW  Elec       q    Type
REMARK                         _______ _______ _______ _____ _____    ______ ____
ROOT
ATOM      1  O   UNL     1     106.491 124.712 145.991  0.00  0.00    +0.000 OA
ATOM      2  O   UNL     1     106.684 127.080 147.578  0.00  0.00    +0.000 OA
ATOM      3  O   UNL     1     106.157 127.307 144.755  0.00  0.00    +0.000 OA
ATOM      4  O   UNL     1     106.228 124.782 144.574  0.00  0.00    +0.000 OA
ATOM      5  C   UNL     1     106.587 125.896 146.784  0.00  0.00    +0.000 A 
ATOM      6  C   UNL     1     106.468 125.534 146.053  0.00  0.00    +0.000 A 
ATOM      7  C   UNL     1     106.565 126.718 146.846  0.00  0.00    +0.000 A 
ATOM      8  C   UNL     1     106.326 125.994 145.383  0.00  0.00    +0.000 A 
ATOM      9  C   UNL     1     106.423 127.179 146.177  0.00  0.00    +0.000 A 
ATOM     10  C   UNL     1     106.304 126.816 145.445  0.00  0.00    +0.000 A 
ATOM     11  C   UNL     1     106.204 125.605 144.627  0.00  0.00    +0.000 A 
ATOM     12  C   UNL     1     106.032 126.935 143.990  0.00  0.00    +0.000 A 
ATOM     13  C   UNL     1     106.056 126.079 143.925  0.00  0.00    +0.000 A 
ENDROOT
BRANCH   5  20
ATOM     14  O   UNL     1     106.098 125.153 147.903  0.00  0.00    +0.000 OA
ATOM     15  O   UNL     1     108.137 125.541 147.228  0.00  0.00    +0.000 OA
ATOM     16  O   UNL     1     108.422 124.622 148.568  0.00  0.00    +0.000 OA
ATOM     17  O   UNL     1     107.157 124.057 149.465  0.00  0.00    +0.000 OA
ATOM     18  C   UNL     1     107.504 125.259 147.676  0.00  0.00    +0.000 C 
ATOM     19  C   UNL     1     107.647 124.799 148.346  0.00  0.00    +0.000 C 
ATOM     20  C   UNL     1     106.729 125.436 147.455  0.00  0.00    +0.000 C 
ATOM     21  C   UNL     1     107.014 124.517 148.794  0.00  0.00    +0.000 C 
ATOM     22  C   UNL     1     106.240 124.694 148.573  0.00  0.00    +0.000 C 
ATOM     23  C   UNL     1     105.608 124.411 149.021  0.00  0.00    +0.000 C 
ENDBRANCH   5  20
BRANCH  12  26
ATOM     24  O   UNL     1     106.969 128.165 141.586  0.00  0.00    +0.000 OA
ATOM     25  O   UNL     1     105.465 128.789 141.319  0.00  0.00    +0.000 OA
ATOM     26  C   UNL     1     105.891 127.399 143.321  0.00  0.00    +0.000 A 
ATOM     27  C   UNL     1     106.501 127.551 142.787  0.00  0.00    +0.000 A 
ATOM     28  C   UNL     1     105.139 127.711 143.189  0.00  0.00    +0.000 A 
ATOM     29  C   UNL     1     106.359 128.014 142.120  0.00  0.00    +0.000 A 
ATOM     30  C   UNL     1     104.996 128.175 142.521  0.00  0.00    +0.000 A 
ATOM     31  C   UNL     1     105.606 128.326 141.987  0.00  0.00    +0.000 A 
ENDBRANCH  12  26
TORSDOF 2
ENDMDL
MODEL 3
REMARK VINA RESULT:     -10.0      7.701      8.908
REMARK  Name = 74977561
REMARK  2 active torsions:
REMARK  status: ('A' for Active; 'I' for Inactive)
REMARK    1  A    between atoms: C_13  and  C_16
REMARK    2  A    between atoms: C_24  and  C_26
REMARK                            x       y       z     vdW  Elec       q    Type
REMARK                         _______ _______ _______ _____ _____    ______ ____
ROOT
ATOM      1  O   UNL     1     112.958 129.139 139.007  0.00  0.00    +0.000 OA
ATOM      2  O   UNL     1     114.253 127.707 141.114  0.00  0.00    +0.000 OA
ATOM      3  O   UNL     1     113.120 126.252 138.900  0.00  0.00    +0.000 OA
ATOM      4  O   UNL     1     112.378 128.447 137.880  0.00  0.00    +0.000 OA
ATOM      5  C   UNL     1     113.605 128.423 140.060  0.00  0.00    +0.000 A 
ATOM      6  C   UNL     1     113.201 128.425 139.341  0.00  0.00    +0.000 A 
ATOM      7  C   UNL     1     113.848 127.709 140.394  0.00  0.00    +0.000 A 
ATOM      8  C   UNL     1     113.039 127.713 138.956  0.00  0.00    +0.000 A 
ATOM      9  C   UNL     1     113.687 126.997 140.010  0.00  0.00    +0.000 A 
ATOM     10  C   UNL     1     113.282 126.999 139.290  0.00  0.00    +0.000 A 
ATOM     11  C   UNL     1     112.618 127.729 138.208  0.00  0.00    +0.000 A 
ATOM     12  C   UNL     1     112.699 126.247 138.150  0.00  0.00    +0.000 A 
ATOM     13  C   UNL     1     112.446 126.991 137.802  0.00  0.00    +0.000 A 
ENDROOT
BRANCH   5  20
ATOM     14  O   UNL     1     114.451 129.557 140.262  0.00  0.00    +0.000 OA
ATOM     15  O   UNL     1     112.558 129.001 141.197  0.00  0.00    +0.000 OA
ATOM     16  O   UNL     1     112.881 130.423 141.968  0.00  0.00    +0.000 OA
ATOM     17  O   UNL     1     114.250 131.268 141.602  0.00  0.00    +0.000 OA
ATOM     18  C   UNL     1     113.244 129.423 141.013  0.00  0.00    +0.000 C 
ATOM     19  C   UNL     1     113.404 130.135 141.399  0.00  0.00    +0.000 C 
ATOM     20  C   UNL     1     113.767 129.135 140.445  0.00  0.00    +0.000 C 
ATOM     21  C   UNL     1     114.089 130.556 141.216  0.00  0.00    +0.000 C 
ATOM     22  C   UNL     1     114.612 130.268 140.647  0.00  0.00    +0.000 C 
ATOM     23  C   UNL     1     115.297 130.691 140.464  0.00  0.00    +0.000 C 
ENDBRANCH   5  20
BRANCH  12  26
ATOM     24  O   UNL     1     113.535 124.108 136.449  0.00  0.00    +0.000 OA
ATOM     25  O   UNL     1     112.059 123.393 136.623  0.00  0.00    +0.000 OA
ATOM     26  C   UNL     1     112.539 125.533 137.768  0.00  0.00    +0.000 A 
ATOM     27  C   UNL     1     113.117 125.177 137.299  0.00  0.00    +0.000 A 
ATOM     28  C   UNL     1     111.801 125.176 137.856  0.00  0.00    +0.000 A 
ATOM     29  C   UNL     1     112.957 124.464 136.918  0.00  0.00    +0.000 A 
ATOM     30  C   UNL     1     111.640 124.462 137.474  0.00  0.00    +0.000 A 
ATOM     31  C   UNL     1     112.218 124.106 137.005  0.00  0.00    +0.000 A 
ENDBRANCH  12  26
TORSDOF 2
ENDMDL
MODEL 4
REMARK VINA RESULT:     -10.0      6.809      7.954
REMARK  Name = 74977561
REMARK  2 active torsions:
REMARK  status: ('A' for Active; 'I' for Inactive)
REMARK    1  A    between atoms: C_13  and  C_16
REMARK    2  A    between atoms: C_24  and  C_26
REMARK                            x       y       z     vdW  Elec       q    Type
REMARK                         _______ _______ _______ _____ _____    ______ ____
ROOT
ATOM      1  O   UNL     1     108.283 128.693 135.883  0.00  0.00    +0.000 OA
ATOM      2  O   UNL     1     110.624 130.130 136.673  0.00  0.00    +0.000 OA
ATOM      3  O   UNL     1     110.693 127.252 136.582  0.00  0.00    +0.000 OA
ATOM      4  O   UNL     1     108.277 127.251 135.825  0.00  0.00    +0.000 OA
ATOM      5  C   UNL     1     109.453 129.411 136.278  0.00  0.00    +0.000 A 
ATOM      6  C   UNL     1     109.070 128.696 136.130  0.00  0.00    +0.000 A 
ATOM      7  C   UNL     1     110.240 129.414 136.525  0.00  0.00    +0.000 A 
ATOM      8  C   UNL     1     109.474 127.983 136.229  0.00  0.00    +0.000 A 
ATOM      9  C   UNL     1     110.645 128.703 136.624  0.00  0.00    +0.000 A 
ATOM     10  C   UNL     1     110.261 127.986 136.476  0.00  0.00    +0.000 A 
ATOM     11  C   UNL     1     109.064 127.245 136.071  0.00  0.00    +0.000 A 
ATOM     12  C   UNL     1     110.299 126.503 136.429  0.00  0.00    +0.000 A 
ATOM     13  C   UNL     1     109.480 126.499 136.172  0.00  0.00    +0.000 A 
ENDROOT
BRANCH   5  20
ATOM     14  O   UNL     1     109.047 130.499 135.445  0.00  0.00    +0.000 OA
ATOM     15  O   UNL     1     108.651 130.087 137.552  0.00  0.00    +0.000 OA
ATOM     16  O   UNL     1     107.843 131.512 137.356  0.00  0.00    +0.000 OA
ATOM     17  O   UNL     1     107.838 132.263 135.887  0.00  0.00    +0.000 OA
ATOM     18  C   UNL     1     108.648 130.462 136.817  0.00  0.00    +0.000 C 
ATOM     19  C   UNL     1     108.244 131.175 136.719  0.00  0.00    +0.000 C 
ATOM     20  C   UNL     1     109.049 130.124 136.180  0.00  0.00    +0.000 C 
ATOM     21  C   UNL     1     108.242 131.549 135.984  0.00  0.00    +0.000 C 
ATOM     22  C   UNL     1     108.643 131.211 135.347  0.00  0.00    +0.000 C 
ATOM     23  C   UNL     1     108.640 131.587 134.613  0.00  0.00    +0.000 C 
ENDBRANCH   5  20
BRANCH  12  26
ATOM     24  O   UNL     1     111.479 124.545 138.145  0.00  0.00    +0.000 OA
ATOM     25  O   UNL     1     111.928 123.660 136.827  0.00  0.00    +0.000 OA
ATOM     26  C   UNL     1     110.707 125.792 136.529  0.00  0.00    +0.000 A 
ATOM     27  C   UNL     1     110.889 125.523 137.288  0.00  0.00    +0.000 A 
ATOM     28  C   UNL     1     110.931 125.350 135.870  0.00  0.00    +0.000 A 
ATOM     29  C   UNL     1     111.296 124.813 137.387  0.00  0.00    +0.000 A 
ATOM     30  C   UNL     1     111.339 124.639 135.969  0.00  0.00    +0.000 A 
ATOM     31  C   UNL     1     111.521 124.370 136.727  0.00  0.00    +0.000 A 
ENDBRANCH  12  26
TORSDOF 2
ENDMDL
MODEL 5
REMARK VINA RESULT:      -9.9      4.275      7.173
REMARK  Name = 74977561
REMARK  2 active torsions:
REMARK  status: ('A' for Active; 'I' for Inactive)
REMARK    1  A    between atoms: C_13  and  C_16
REMARK    2  A    between atoms: C_24  and  C_26
REMARK                            x       y       z     vdW  Elec       q    Type
REMARK                         _______ _______ _______ _____ _____    ______ ____
ROOT
ATOM      1  O   UNL     1     106.598 127.934 144.775  0.00  0.00    +0.000 OA
ATOM      2  O   UNL     1     105.668 125.588 143.435  0.00  0.00    +0.000 OA
ATOM      3  O   UNL     1     106.533 125.404 146.177  0.00  0.00    +0.000 OA
ATOM      4  O   UNL     1     107.039 127.884 146.148  0.00  0.00    +0.000 OA
ATOM      5  C   UNL     1     106.133 126.761 144.105  0.00  0.00    +0.000 A 
ATOM      6  C   UNL     1     106.431 127.126 144.782  0.00  0.00    +0.000 A 
ATOM      7  C   UNL     1     105.967 125.953 144.112  0.00  0.00    +0.000 A 
ATOM      8  C   UNL     1     106.565 126.684 145.465  0.00  0.00    +0.000 A 
ATOM      9  C   UNL     1     106.099 125.510 144.795  0.00  0.00    +0.000 A 
ATOM     10  C   UNL     1     106.399 125.876 145.472  0.00  0.00    +0.000 A 
ATOM     11  C   UNL     1     106.876 127.076 146.163  0.00  0.00    +0.000 A 
ATOM     12  C   UNL     1     106.844 125.778 146.885  0.00  0.00    +0.000 A 
ATOM     13  C   UNL     1     107.017 126.620 146.879  0.00  0.00    +0.000 A 
ENDROOT
BRANCH   5  20
ATOM     14  O   UNL     1     105.285 127.602 143.320  0.00  0.00    +0.000 OA
ATOM     15  O   UNL     1     107.298 126.848 142.940  0.00  0.00    +0.000 OA
ATOM     16  O   UNL     1     107.033 127.732 141.573  0.00  0.00    +0.000 OA
ATOM     17  O   UNL     1     105.603 128.530 141.370  0.00  0.00    +0.000 OA
ATOM     18  C   UNL     1     106.582 127.247 142.839  0.00  0.00    +0.000 C 
ATOM     19  C   UNL     1     106.450 127.689 142.155  0.00  0.00    +0.000 C 
ATOM     20  C   UNL     1     106.000 127.204 143.422  0.00  0.00    +0.000 C 
ATOM     21  C   UNL     1     105.735 128.087 142.054  0.00  0.00    +0.000 C 
ATOM     22  C   UNL     1     105.153 128.044 142.637  0.00  0.00    +0.000 C 
ATOM     23  C   UNL     1     104.438 128.443 142.535  0.00  0.00    +0.000 C 
ENDBRANCH   5  20
BRANCH  12  26
ATOM     24  O   UNL     1     105.833 124.400 149.176  0.00  0.00    +0.000 OA
ATOM     25  O   UNL     1     107.372 123.995 149.611  0.00  0.00    +0.000 OA
ATOM     26  C   UNL     1     106.976 125.332 147.567  0.00  0.00    +0.000 A 
ATOM     27  C   UNL     1     106.338 125.089 148.031  0.00  0.00    +0.000 A 
ATOM     28  C   UNL     1     107.745 125.130 147.785  0.00  0.00    +0.000 A 
ATOM     29  C   UNL     1     106.470 124.643 148.712  0.00  0.00    +0.000 A 
ATOM     30  C   UNL     1     107.878 124.684 148.466  0.00  0.00    +0.000 A 
ATOM     31  C   UNL     1     107.241 124.440 148.930  0.00  0.00    +0.000 A 
ENDBRANCH  12  26
TORSDOF 2
ENDMDL
MODEL 6
REMARK VINA RESULT:      -9.9      8.004     10.271
REMARK  Name = 74977561
REMARK  2 active torsions:
REMARK  status: ('A' for Active; 'I' for Inactive)
REMARK    1  A    between atoms: C_13  and  C_16
REMARK    2  A    between atoms: C_24  and  C_26
REMARK                            x       y       z     vdW  Elec       q    Type
REMARK                         _______ _______ _______ _____ _____    ______ ____
ROOT
ATOM      1  O   UNL     1     113.807 126.119 139.382  0.00  0.00    +0.000 OA
ATOM      2  O   UNL     1     112.472 127.499 137.265  0.00  0.00    +0.000 OA
ATOM      3  O   UNL     1     113.164 128.925 139.671  0.00  0.00    +0.000 OA
ATOM      4  O   UNL     1     114.171 126.797 140.603  0.00  0.00    +0.000 OA
ATOM      5  C   UNL     1     113.140 126.809 138.324  0.00  0.00    +0.000 A 
ATOM      6  C   UNL     1     113.478 126.811 139.076  0.00  0.00    +0.000 A 
ATOM      7  C   UNL     1     112.811 127.501 138.018  0.00  0.00    +0.000 A 
ATOM      8  C   UNL     1     113.489 127.504 139.522  0.00  0.00    +0.000 A 
ATOM      9  C   UNL     1     112.821 128.195 138.464  0.00  0.00    +0.000 A 
ATOM     10  C   UNL     1     113.160 128.196 139.216  0.00  0.00    +0.000 A 
ATOM     11  C   UNL     1     113.844 127.493 140.304  0.00  0.00    +0.000 A 
ATOM     12  C   UNL     1     113.516 128.934 140.455  0.00  0.00    +0.000 A 
ATOM     13  C   UNL     1     113.858 128.213 140.774  0.00  0.00    +0.000 A 
ENDROOT
BRANCH   5  20
ATOM     14  O   UNL     1     113.771 125.923 137.397  0.00  0.00    +0.000 OA
ATOM     15  O   UNL     1     111.832 125.804 138.393  0.00  0.00    +0.000 OA
ATOM     16  O   UNL     1     111.810 124.417 137.500  0.00  0.00    +0.000 OA
ATOM     17  O   UNL     1     113.095 124.034 136.539  0.00  0.00    +0.000 OA
ATOM     18  C   UNL     1     112.475 125.613 137.912  0.00  0.00    +0.000 C 
ATOM     19  C   UNL     1     112.464 124.919 137.466  0.00  0.00    +0.000 C 
ATOM     20  C   UNL     1     113.129 126.115 137.877  0.00  0.00    +0.000 C 
ATOM     21  C   UNL     1     113.106 124.728 136.985  0.00  0.00    +0.000 C 
ATOM     22  C   UNL     1     113.760 125.230 136.951  0.00  0.00    +0.000 C 
ATOM     23  C   UNL     1     114.402 125.038 136.470  0.00  0.00    +0.000 C 
ENDBRANCH   5  20
BRANCH  12  26
ATOM     24  O   UNL     1     114.781 131.391 141.182  0.00  0.00    +0.000 OA
ATOM     25  O   UNL     1     113.548 131.716 142.229  0.00  0.00    +0.000 OA
ATOM     26  C   UNL     1     113.524 129.630 140.899  0.00  0.00    +0.000 A 
ATOM     27  C   UNL     1     114.149 130.163 140.819  0.00  0.00    +0.000 A 
ATOM     28  C   UNL     1     112.907 129.792 141.422  0.00  0.00    +0.000 A 
ATOM     29  C   UNL     1     114.157 130.858 141.262  0.00  0.00    +0.000 A 
ATOM     30  C   UNL     1     112.915 130.488 141.866  0.00  0.00    +0.000 A 
ATOM     31  C   UNL     1     113.540 131.021 141.786  0.00  0.00    +0.000 A 
ENDBRANCH  12  26
TORSDOF 2
ENDMDL
MODEL 7
REMARK VINA RESULT:      -9.7      3.769      5.710
REMARK  Name = 74977561
REMARK  2 active torsions:
REMARK  status: ('A' for Active; 'I' for Inactive)
REMARK    1  A    between atoms: C_13  and  C_16
REMARK    2  A    between atoms: C_24  and  C_26
REMARK                            x       y       z     vdW  Elec       q    Type
REMARK                         _______ _______ _______ _____ _____    ______ ____
ROOT
ATOM      1  O   UNL     1     104.651 127.562 141.071  0.00  0.00    +0.000 OA
ATOM      2  O   UNL     1     105.686 128.362 143.612  0.00  0.00    +0.000 OA
ATOM      3  O   UNL     1     103.664 129.970 142.336  0.00  0.00    +0.000 OA
ATOM      4  O   UNL     1     103.638 128.339 140.399  0.00  0.00    +0.000 OA
ATOM      5  C   UNL     1     105.168 127.962 142.341  0.00  0.00    +0.000 A 
ATOM      6  C   UNL     1     104.662 128.091 141.704  0.00  0.00    +0.000 A 
ATOM      7  C   UNL     1     105.179 128.492 142.973  0.00  0.00    +0.000 A 
ATOM      8  C   UNL     1     104.165 128.750 141.697  0.00  0.00    +0.000 A 
ATOM      9  C   UNL     1     104.683 129.151 142.968  0.00  0.00    +0.000 A 
ATOM     10  C   UNL     1     104.176 129.280 142.330  0.00  0.00    +0.000 A 
ATOM     11  C   UNL     1     103.642 128.874 141.028  0.00  0.00    +0.000 A 
ATOM     12  C   UNL     1     103.134 130.111 141.674  0.00  0.00    +0.000 A 
ATOM     13  C   UNL     1     103.122 129.559 141.016  0.00  0.00    +0.000 A 
ENDROOT
BRANCH   5  20
ATOM     14  O   UNL     1     105.403 126.592 142.673  0.00  0.00    +0.000 OA
ATOM     15  O   UNL     1     106.686 128.068 141.702  0.00  0.00    +0.000 OA
ATOM     16  O   UNL     1     107.679 126.750 141.714  0.00  0.00    +0.000 OA
ATOM     17  O   UNL     1     107.156 125.328 142.365  0.00  0.00    +0.000 OA
ATOM     18  C   UNL     1     106.423 127.356 142.028  0.00  0.00    +0.000 C 
ATOM     19  C   UNL     1     106.921 126.698 142.033  0.00  0.00    +0.000 C 
ATOM     20  C   UNL     1     105.665 127.303 142.347  0.00  0.00    +0.000 C 
ATOM     21  C   UNL     1     106.658 125.987 142.359  0.00  0.00    +0.000 C 
ATOM     22  C   UNL     1     105.900 125.934 142.679  0.00  0.00    +0.000 C 
ATOM     23  C   UNL     1     105.638 125.222 143.004  0.00  0.00    +0.000 C 
ENDBRANCH   5  20
BRANCH  12  26
ATOM     24  O   UNL     1     102.742 132.910 141.251  0.00  0.00    +0.000 OA
ATOM     25  O   UNL     1     101.154 132.751 141.665  0.00  0.00    +0.000 OA
ATOM     26  C   UNL     1     102.639 130.771 141.672  0.00  0.00    +0.000 A 
ATOM     27  C   UNL     1     102.938 131.511 141.462  0.00  0.00    +0.000 A 
ATOM     28  C   UNL     1     101.844 130.691 141.879  0.00  0.00    +0.000 A 
ATOM     29  C   UNL     1     102.443 132.170 141.460  0.00  0.00    +0.000 A 
ATOM     30  C   UNL     1     101.349 131.351 141.877  0.00  0.00    +0.000 A 
ATOM     31  C   UNL     1     101.648 132.090 141.668  0.00  0.00    +0.000 A 
ENDBRANCH  12  26
TORSDOF 2
ENDMDL
MODEL 8
REMARK VINA RESULT:      -9.6      7.619      8.595
REMARK  Name = 74977561
REMARK  2 active torsions:
REMARK  status: ('A' for Active; 'I' for Inactive)
REMARK    1  A    between atoms: C_13  and  C_16
REMARK    2  A    between atoms: C_24  and  C_26
REMARK                            x       y       z     vdW  Elec       q    Type
REMARK                         _______ _______ _______ _____ _____    ______ ____
ROOT
ATOM      1  O   UNL     1     111.978 126.889 137.238  0.00  0.00    +0.000 OA
ATOM      2  O   UNL     1     110.951 125.320 135.081  0.00  0.00    +0.000 OA
ATOM      3  O   UNL     1     110.157 128.078 135.329  0.00  0.00    +0.000 OA
ATOM      4  O   UNL     1     111.604 128.274 137.397  0.00  0.00    +0.000 OA
ATOM      5  C   UNL     1     111.464 126.105 136.160  0.00  0.00    +0.000 A 
ATOM      6  C   UNL     1     111.507 126.823 136.564  0.00  0.00    +0.000 A 
ATOM      7  C   UNL     1     110.994 126.039 135.486  0.00  0.00    +0.000 A 
ATOM      8  C   UNL     1     111.078 127.474 136.294  0.00  0.00    +0.000 A 
ATOM      9  C   UNL     1     110.565 126.689 135.215  0.00  0.00    +0.000 A 
ATOM     10  C   UNL     1     110.608 127.408 135.620  0.00  0.00    +0.000 A 
ATOM     11  C   UNL     1     111.131 128.216 136.724  0.00  0.00    +0.000 A 
ATOM     12  C   UNL     1     110.197 128.829 135.746  0.00  0.00    +0.000 A 
ATOM     13  C   UNL     1     110.687 128.899 136.448  0.00  0.00    +0.000 A 
ENDROOT
BRANCH   5  20
ATOM     14  O   UNL     1     112.682 125.360 136.212  0.00  0.00    +0.000 OA
ATOM     15  O   UNL     1     110.739 124.988 137.134  0.00  0.00    +0.000 OA
ATOM     16  O   UNL     1     111.594 123.684 137.673  0.00  0.00    +0.000 OA
ATOM     17  O   UNL     1     113.175 123.497 137.239  0.00  0.00    +0.000 OA
ATOM     18  C   UNL     1     111.530 124.895 136.916  0.00  0.00    +0.000 C 
ATOM     19  C   UNL     1     111.957 124.243 137.186  0.00  0.00    +0.000 C 
ATOM     20  C   UNL     1     111.893 125.453 136.429  0.00  0.00    +0.000 C 
ATOM     21  C   UNL     1     112.747 124.150 136.969  0.00  0.00    +0.000 C 
ATOM     22  C   UNL     1     113.110 124.708 136.482  0.00  0.00    +0.000 C 
ATOM     23  C   UNL     1     113.901 124.614 136.265  0.00  0.00    +0.000 C 
ENDBRANCH   5  20
BRANCH  12  26
ATOM     24  O   UNL     1     107.847 130.455 135.829  0.00  0.00    +0.000 OA
ATOM     25  O   UNL     1     108.478 131.427 134.654  0.00  0.00    +0.000 OA
ATOM     26  C   UNL     1     109.767 129.479 135.473  0.00  0.00    +0.000 A 
ATOM     27  C   UNL     1     109.021 129.643 135.787  0.00  0.00    +0.000 A 
ATOM     28  C   UNL     1     110.083 129.965 134.886  0.00  0.00    +0.000 A 
ATOM     29  C   UNL     1     108.592 130.291 135.515  0.00  0.00    +0.000 A 
ATOM     30  C   UNL     1     109.653 130.614 134.613  0.00  0.00    +0.000 A 
ATOM     31  C   UNL     1     108.908 130.778 134.927  0.00  0.00    +0.000 A 
ENDBRANCH  12  26
TORSDOF 2
ENDMDL
MODEL 9
REMARK VINA RESULT:      -9.6      7.700      9.361
REMARK  Name = 74977561
REMARK  2 active torsions:
REMARK  status: ('A' for Active; 'I' for Inactive)
REMARK    1  A    between atoms: C_13  and  C_16
REMARK    2  A    between atoms: C_24  and  C_26
REMARK                            x       y       z     vdW  Elec       q    Type
REMARK                         _______ _______ _______ _____ _____    ______ ____
ROOT
ATOM      1  O   UNL     1     110.998 129.218 136.913  0.00  0.00    +0.000 OA
ATOM      2  O   UNL     1     109.989 127.668 134.734  0.00  0.00    +0.000 OA
ATOM      3  O   UNL     1     112.256 126.704 136.227  0.00  0.00    +0.000 OA
ATOM      4  O   UNL     1     112.131 128.769 137.686  0.00  0.00    +0.000 OA
ATOM      5  C   UNL     1     110.494 128.443 135.824  0.00  0.00    +0.000 A 
ATOM      6  C   UNL     1     111.036 128.545 136.436  0.00  0.00    +0.000 A 
ATOM      7  C   UNL     1     110.532 127.771 135.347  0.00  0.00    +0.000 A 
ATOM      8  C   UNL     1     111.618 127.976 136.573  0.00  0.00    +0.000 A 
ATOM      9  C   UNL     1     111.113 127.201 135.483  0.00  0.00    +0.000 A 
ATOM     10  C   UNL     1     111.656 127.304 136.096  0.00  0.00    +0.000 A 
ATOM     11  C   UNL     1     112.177 128.094 137.214  0.00  0.00    +0.000 A 
ATOM     12  C   UNL     1     112.825 126.805 136.865  0.00  0.00    +0.000 A 
ATOM     13  C   UNL     1     112.785 127.504 137.361  0.00  0.00    +0.000 A 
ENDROOT
BRANCH   5  20
ATOM     14  O   UNL     1     110.080 129.671 135.220  0.00  0.00    +0.000 OA
ATOM     15  O   UNL     1     108.994 128.264 136.487  0.00  0.00    +0.000 OA
ATOM     16  O   UNL     1     107.830 129.402 136.215  0.00  0.00    +0.000 OA
ATOM     17  O   UNL     1     108.167 130.719 135.279  0.00  0.00    +0.000 OA
ATOM     18  C   UNL     1     109.162 128.923 136.019  0.00  0.00    +0.000 C 
ATOM     19  C   UNL     1     108.580 129.492 135.883  0.00  0.00    +0.000 C 
ATOM     20  C   UNL     1     109.912 129.013 135.688  0.00  0.00    +0.000 C 
ATOM     21  C   UNL     1     108.749 130.150 135.416  0.00  0.00    +0.000 C 
ATOM     22  C   UNL     1     109.499 130.239 135.084  0.00  0.00    +0.000 C 
ATOM     23  C   UNL     1     109.667 130.898 134.616  0.00  0.00    +0.000 C 
ENDBRANCH   5  20
BRANCH  12  26
ATOM     24  O   UNL     1     115.191 125.437 136.029  0.00  0.00    +0.000 OA
ATOM     25  O   UNL     1     115.143 124.517 137.398  0.00  0.00    +0.000 OA
ATOM     26  C   UNL     1     113.405 126.233 136.998  0.00  0.00    +0.000 A 
ATOM     27  C   UNL     1     114.008 126.120 136.447  0.00  0.00    +0.000 A 
ATOM     28  C   UNL     1     113.380 125.773 137.683  0.00  0.00    +0.000 A 
ATOM     29  C   UNL     1     114.587 125.549 136.580  0.00  0.00    +0.000 A 
ATOM     30  C   UNL     1     113.960 125.201 137.816  0.00  0.00    +0.000 A 
ATOM     31  C   UNL     1     114.563 125.089 137.266  0.00  0.00    +0.000 A 
ENDBRANCH  12  26
TORSDOF 2
ENDMDL
