MODEL 1
REMARK VINA RESULT:      -8.5      0.000      0.000
REMARK  Name = 11174076
REMARK  2 active torsions:
REMARK  status: ('A' for Active; 'I' for Inactive)
REMARK    1  A    between atoms: O_6  and  C_21
REMARK    2  A    between atoms: C_9  and  C_10
REMARK                            x       y       z     vdW  Elec       q    Type
REMARK                         _______ _______ _______ _____ _____    ______ ____
ROOT
ATOM      1  O   UNL     1     104.999 124.245 147.134  0.00  0.00    +0.000 OA
ATOM      2  O   UNL     1     107.188 125.720 145.949  0.00  0.00    +0.000 OA
ATOM      3  O   UNL     1     108.014 125.647 147.375  0.00  0.00    +0.000 OA
ATOM      4  O   UNL     1     106.030 125.422 145.143  0.00  0.00    +0.000 OA
ATOM      5  O   UNL     1     107.348 124.882 148.676  0.00  0.00    +0.000 OA
ATOM      6  C   UNL     1     106.109 124.992 146.537  0.00  0.00    +0.000 A 
ATOM      7  C   UNL     1     105.776 124.609 147.187  0.00  0.00    +0.000 A 
ATOM      8  C   UNL     1     104.564 124.280 146.394  0.00  0.00    +0.000 A 
ATOM      9  C   UNL     1     105.688 125.037 145.788  0.00  0.00    +0.000 A 
ATOM     10  C   UNL     1     106.855 125.338 146.600  0.00  0.00    +0.000 A 
ATOM     11  C   UNL     1     104.911 124.678 145.717  0.00  0.00    +0.000 A 
ATOM     12  C   UNL     1     106.188 124.572 147.901  0.00  0.00    +0.000 A 
ATOM     13  C   UNL     1     107.268 125.301 147.312  0.00  0.00    +0.000 A 
ATOM     14  C   UNL     1     106.934 124.918 147.963  0.00  0.00    +0.000 A 
ENDROOT
BRANCH   8  15
ATOM     15  C   UNL     1     103.818 123.933 146.334  0.00  0.00    +0.000 A 
ATOM     16  C   UNL     1     103.727 123.215 145.941  0.00  0.00    +0.000 A 
ATOM     17  C   UNL     1     103.162 124.306 146.669  0.00  0.00    +0.000 A 
ATOM     18  C   UNL     1     102.980 122.868 145.881  0.00  0.00    +0.000 A 
ATOM     19  C   UNL     1     102.415 123.959 146.609  0.00  0.00    +0.000 A 
ATOM     20  C   UNL     1     102.325 123.240 146.215  0.00  0.00    +0.000 A 
BRANCH  20  21
ATOM     21  O   UNL     1     101.578 122.893 146.155  0.00  0.00    +0.000 OA
ATOM     22  C   UNL     1     101.109 123.036 145.493  0.00  0.00    +0.000 C 
ENDBRANCH  20  21
ENDBRANCH   8  15
TORSDOF 2
ENDMDL
MODEL 2
REMARK VINA RESULT:      -8.4      7.701      8.682
REMARK  Name = 11174076
REMARK  2 active torsions:
REMARK  status: ('A' for Active; 'I' for Inactive)
REMARK    1  A    between atoms: O_6  and  C_21
REMARK    2  A    between atoms: C_9  and  C_10
REMARK                            x       y       z     vdW  Elec       q    Type
REMARK                         _______ _______ _______ _____ _____    ______ ____
ROOT
ATOM      1  O   UNL     1     102.945 130.491 142.094  0.00  0.00    +0.000 OA
ATOM      2  O   UNL     1     103.591 128.322 140.290  0.00  0.00    +0.000 OA
ATOM      3  O   UNL     1     104.646 127.709 141.400  0.00  0.00    +0.000 OA
ATOM      4  O   UNL     1     102.628 129.313 139.875  0.00  0.00    +0.000 OA
ATOM      5  O   UNL     1     104.857 128.472 142.848  0.00  0.00    +0.000 OA
ATOM      6  C   UNL     1     103.274 129.392 141.182  0.00  0.00    +0.000 A 
ATOM      7  C   UNL     1     103.380 129.773 141.906  0.00  0.00    +0.000 A 
ATOM      8  C   UNL     1     102.394 130.815 141.520  0.00  0.00    +0.000 A 
ATOM      9  C   UNL     1     102.727 129.701 140.596  0.00  0.00    +0.000 A 
ATOM     10  C   UNL     1     103.696 128.704 141.014  0.00  0.00    +0.000 A 
ATOM     11  C   UNL     1     102.284 130.418 140.766  0.00  0.00    +0.000 A 
ATOM     12  C   UNL     1     103.907 129.467 142.461  0.00  0.00    +0.000 A 
ATOM     13  C   UNL     1     104.224 128.397 141.568  0.00  0.00    +0.000 A 
ATOM     14  C   UNL     1     104.329 128.779 142.292  0.00  0.00    +0.000 A 
ENDROOT
BRANCH   8  15
ATOM     15  C   UNL     1     101.973 131.503 141.691  0.00  0.00    +0.000 A 
ATOM     16  C   UNL     1     101.228 131.456 142.041  0.00  0.00    +0.000 A 
ATOM     17  C   UNL     1     102.298 132.241 141.512  0.00  0.00    +0.000 A 
ATOM     18  C   UNL     1     100.807 132.144 142.213  0.00  0.00    +0.000 A 
ATOM     19  C   UNL     1     101.877 132.930 141.683  0.00  0.00    +0.000 A 
ATOM     20  C   UNL     1     101.131 132.881 142.034  0.00  0.00    +0.000 A 
BRANCH  20  21
ATOM     21  O   UNL     1     100.710 133.570 142.205  0.00  0.00    +0.000 OA
ATOM     22  C   UNL     1     100.761 134.221 141.702  0.00  0.00    +0.000 C 
ENDBRANCH  20  21
ENDBRANCH   8  15
TORSDOF 2
ENDMDL
MODEL 3
REMARK VINA RESULT:      -8.1      6.463      7.320
REMARK  Name = 11174076
REMARK  2 active torsions:
REMARK  status: ('A' for Active; 'I' for Inactive)
REMARK    1  A    between atoms: O_6  and  C_21
REMARK    2  A    between atoms: C_9  and  C_10
REMARK                            x       y       z     vdW  Elec       q    Type
REMARK                         _______ _______ _______ _____ _____    ______ ____
ROOT
ATOM      1  O   UNL     1     104.681 124.644 139.547  0.00  0.00    +0.000 OA
ATOM      2  O   UNL     1     106.737 123.699 141.351  0.00  0.00    +0.000 OA
ATOM      3  O   UNL     1     106.889 125.218 141.979  0.00  0.00    +0.000 OA
ATOM      4  O   UNL     1     106.126 122.765 140.438  0.00  0.00    +0.000 OA
ATOM      5  O   UNL     1     105.950 126.446 141.403  0.00  0.00    +0.000 OA
ATOM      6  C   UNL     1     105.722 124.169 140.462  0.00  0.00    +0.000 A 
ATOM      7  C   UNL     1     105.253 124.783 140.174  0.00  0.00    +0.000 A 
ATOM      8  C   UNL     1     104.598 123.856 139.216  0.00  0.00    +0.000 A 
ATOM      9  C   UNL     1     105.652 123.373 140.143  0.00  0.00    +0.000 A 
ATOM     10  C   UNL     1     106.267 124.314 141.063  0.00  0.00    +0.000 A 
ATOM     11  C   UNL     1     105.086 123.216 139.516  0.00  0.00    +0.000 A 
ATOM     12  C   UNL     1     105.329 125.542 140.487  0.00  0.00    +0.000 A 
ATOM     13  C   UNL     1     106.343 125.072 141.377  0.00  0.00    +0.000 A 
ATOM     14  C   UNL     1     105.874 125.686 141.089  0.00  0.00    +0.000 A 
ENDROOT
BRANCH   8  15
ATOM     15  C   UNL     1     104.052 123.714 138.615  0.00  0.00    +0.000 A 
ATOM     16  C   UNL     1     104.313 123.555 137.849  0.00  0.00    +0.000 A 
ATOM     17  C   UNL     1     103.243 123.731 138.779  0.00  0.00    +0.000 A 
ATOM     18  C   UNL     1     103.767 123.413 137.247  0.00  0.00    +0.000 A 
ATOM     19  C   UNL     1     102.696 123.589 138.177  0.00  0.00    +0.000 A 
ATOM     20  C   UNL     1     102.958 123.430 137.411  0.00  0.00    +0.000 A 
BRANCH  20  21
ATOM     21  O   UNL     1     102.412 123.288 136.810  0.00  0.00    +0.000 OA
ATOM     22  C   UNL     1     102.624 122.827 136.160  0.00  0.00    +0.000 C 
ENDBRANCH  20  21
ENDBRANCH   8  15
TORSDOF 2
ENDMDL
MODEL 4
REMARK VINA RESULT:      -8.0     11.573     12.663
REMARK  Name = 11174076
REMARK  2 active torsions:
REMARK  status: ('A' for Active; 'I' for Inactive)
REMARK    1  A    between atoms: O_6  and  C_21
REMARK    2  A    between atoms: C_9  and  C_10
REMARK                            x       y       z     vdW  Elec       q    Type
REMARK                         _______ _______ _______ _____ _____    ______ ____
ROOT
ATOM      1  O   UNL     1     110.584 127.287 135.762  0.00  0.00    +0.000 OA
ATOM      2  O   UNL     1     108.055 128.693 135.770  0.00  0.00    +0.000 OA
ATOM      3  O   UNL     1     108.797 130.038 135.169  0.00  0.00    +0.000 OA
ATOM      4  O   UNL     1     108.096 127.326 136.228  0.00  0.00    +0.000 OA
ATOM      5  O   UNL     1     110.419 130.019 134.863  0.00  0.00    +0.000 OA
ATOM      6  C   UNL     1     109.305 128.001 135.765  0.00  0.00    +0.000 A 
ATOM      7  C   UNL     1     110.116 127.992 135.612  0.00  0.00    +0.000 A 
ATOM      8  C   UNL     1     110.204 126.583 136.074  0.00  0.00    +0.000 A 
ATOM      9  C   UNL     1     108.907 127.307 136.078  0.00  0.00    +0.000 A 
ATOM     10  C   UNL     1     108.866 128.683 135.617  0.00  0.00    +0.000 A 
ATOM     11  C   UNL     1     109.360 126.593 136.234  0.00  0.00    +0.000 A 
ATOM     12  C   UNL     1     110.487 128.664 135.311  0.00  0.00    +0.000 A 
ATOM     13  C   UNL     1     109.236 129.356 135.317  0.00  0.00    +0.000 A 
ATOM     14  C   UNL     1     110.047 129.346 135.164  0.00  0.00    +0.000 A 
ENDROOT
BRANCH   8  15
ATOM     15  C   UNL     1     110.646 125.902 136.221  0.00  0.00    +0.000 A 
ATOM     16  C   UNL     1     110.807 125.375 135.608  0.00  0.00    +0.000 A 
ATOM     17  C   UNL     1     110.926 125.749 136.982  0.00  0.00    +0.000 A 
ATOM     18  C   UNL     1     111.250 124.694 135.755  0.00  0.00    +0.000 A 
ATOM     19  C   UNL     1     111.369 125.068 137.129  0.00  0.00    +0.000 A 
ATOM     20  C   UNL     1     111.530 124.540 136.515  0.00  0.00    +0.000 A 
BRANCH  20  21
ATOM     21  O   UNL     1     111.972 123.859 136.662  0.00  0.00    +0.000 OA
ATOM     22  C   UNL     1     112.785 123.914 136.789  0.00  0.00    +0.000 C 
ENDBRANCH  20  21
ENDBRANCH   8  15
TORSDOF 2
ENDMDL
MODEL 5
REMARK VINA RESULT:      -7.8      1.107      4.615
REMARK  Name = 11174076
REMARK  2 active torsions:
REMARK  status: ('A' for Active; 'I' for Inactive)
REMARK    1  A    between atoms: O_6  and  C_21
REMARK    2  A    between atoms: C_9  and  C_10
REMARK                            x       y       z     vdW  Elec       q    Type
REMARK                         _______ _______ _______ _____ _____    ______ ____
ROOT
ATOM      1  O   UNL     1     104.678 123.983 146.747  0.00  0.00    +0.000 OA
ATOM      2  O   UNL     1     101.848 124.555 146.939  0.00  0.00    +0.000 OA
ATOM      3  O   UNL     1     101.552 123.534 145.677  0.00  0.00    +0.000 OA
ATOM      4  O   UNL     1     102.755 125.198 147.859  0.00  0.00    +0.000 OA
ATOM      5  O   UNL     1     102.802 122.740 144.949  0.00  0.00    +0.000 OA
ATOM      6  C   UNL     1     103.244 124.271 146.842  0.00  0.00    +0.000 A 
ATOM      7  C   UNL     1     103.869 123.873 146.478  0.00  0.00    +0.000 A 
ATOM      8  C   UNL     1     104.838 124.513 147.404  0.00  0.00    +0.000 A 
ATOM      9  C   UNL     1     103.386 124.805 147.501  0.00  0.00    +0.000 A 
ATOM     10  C   UNL     1     102.473 124.158 146.575  0.00  0.00    +0.000 A 
ATOM     11  C   UNL     1     104.188 124.927 147.783  0.00  0.00    +0.000 A 
ATOM     12  C   UNL     1     103.722 123.363 145.847  0.00  0.00    +0.000 A 
ATOM     13  C   UNL     1     102.325 123.648 145.945  0.00  0.00    +0.000 A 
ATOM     14  C   UNL     1     102.949 123.250 145.580  0.00  0.00    +0.000 A 
ENDROOT
BRANCH   8  15
ATOM     15  C   UNL     1     105.611 124.624 147.669  0.00  0.00    +0.000 A 
ATOM     16  C   UNL     1     106.156 125.026 147.198  0.00  0.00    +0.000 A 
ATOM     17  C   UNL     1     105.841 124.333 148.406  0.00  0.00    +0.000 A 
ATOM     18  C   UNL     1     106.929 125.137 147.463  0.00  0.00    +0.000 A 
ATOM     19  C   UNL     1     106.614 124.444 148.672  0.00  0.00    +0.000 A 
ATOM     20  C   UNL     1     107.158 124.846 148.200  0.00  0.00    +0.000 A 
BRANCH  20  21
ATOM     21  O   UNL     1     107.932 124.957 148.465  0.00  0.00    +0.000 OA
ATOM     22  C   UNL     1     108.204 124.549 149.128  0.00  0.00    +0.000 C 
ENDBRANCH  20  21
ENDBRANCH   8  15
TORSDOF 2
ENDMDL
MODEL 6
REMARK VINA RESULT:      -7.8     11.491     12.664
REMARK  Name = 11174076
REMARK  2 active torsions:
REMARK  status: ('A' for Active; 'I' for Inactive)
REMARK    1  A    between atoms: O_6  and  C_21
REMARK    2  A    between atoms: C_9  and  C_10
REMARK                            x       y       z     vdW  Elec       q    Type
REMARK                         _______ _______ _______ _____ _____    ______ ____
ROOT
ATOM      1  O   UNL     1     110.932 126.348 136.664  0.00  0.00    +0.000 OA
ATOM      2  O   UNL     1     108.628 126.621 134.935  0.00  0.00    +0.000 OA
ATOM      3  O   UNL     1     108.129 127.934 135.801  0.00  0.00    +0.000 OA
ATOM      4  O   UNL     1     109.563 125.551 134.689  0.00  0.00    +0.000 OA
ATOM      5  O   UNL     1     109.017 128.458 137.090  0.00  0.00    +0.000 OA
ATOM      6  C   UNL     1     109.764 126.489 135.790  0.00  0.00    +0.000 A 
ATOM      7  C   UNL     1     110.208 126.751 136.434  0.00  0.00    +0.000 A 
ATOM      8  C   UNL     1     111.197 125.664 136.217  0.00  0.00    +0.000 A 
ATOM      9  C   UNL     1     110.014 125.806 135.331  0.00  0.00    +0.000 A 
ATOM     10  C   UNL     1     109.072 126.883 135.579  0.00  0.00    +0.000 A 
ATOM     11  C   UNL     1     110.735 125.391 135.546  0.00  0.00    +0.000 A 
ATOM     12  C   UNL     1     109.960 127.407 136.868  0.00  0.00    +0.000 A 
ATOM     13  C   UNL     1     108.822 127.539 136.012  0.00  0.00    +0.000 A 
ATOM     14  C   UNL     1     109.266 127.801 136.656  0.00  0.00    +0.000 A 
ENDROOT
BRANCH   8  15
ATOM     15  C   UNL     1     111.890 125.271 136.430  0.00  0.00    +0.000 A 
ATOM     16  C   UNL     1     111.853 124.516 136.758  0.00  0.00    +0.000 A 
ATOM     17  C   UNL     1     112.622 125.635 136.316  0.00  0.00    +0.000 A 
ATOM     18  C   UNL     1     112.547 124.123 136.971  0.00  0.00    +0.000 A 
ATOM     19  C   UNL     1     113.316 125.243 136.529  0.00  0.00    +0.000 A 
ATOM     20  C   UNL     1     113.278 124.487 136.856  0.00  0.00    +0.000 A 
BRANCH  20  21
ATOM     21  O   UNL     1     113.972 124.094 137.070  0.00  0.00    +0.000 OA
ATOM     22  C   UNL     1     114.616 124.521 137.359  0.00  0.00    +0.000 C 
ENDBRANCH  20  21
ENDBRANCH   8  15
TORSDOF 2
ENDMDL
MODEL 7
REMARK VINA RESULT:      -7.8     11.571     12.456
REMARK  Name = 11174076
REMARK  2 active torsions:
REMARK  status: ('A' for Active; 'I' for Inactive)
REMARK    1  A    between atoms: O_6  and  C_21
REMARK    2  A    between atoms: C_9  and  C_10
REMARK                            x       y       z     vdW  Elec       q    Type
REMARK                         _______ _______ _______ _____ _____    ______ ____
ROOT
ATOM      1  O   UNL     1     112.061 125.920 136.360  0.00  0.00    +0.000 OA
ATOM      2  O   UNL     1     113.417 123.500 137.185  0.00  0.00    +0.000 OA
ATOM      3  O   UNL     1     114.866 124.287 137.122  0.00  0.00    +0.000 OA
ATOM      4  O   UNL     1     111.982 123.481 137.035  0.00  0.00    +0.000 OA
ATOM      5  O   UNL     1     114.924 125.876 136.682  0.00  0.00    +0.000 OA
ATOM      6  C   UNL     1     112.750 124.696 136.778  0.00  0.00    +0.000 A 
ATOM      7  C   UNL     1     112.779 125.491 136.558  0.00  0.00    +0.000 A 
ATOM      8  C   UNL     1     111.304 125.516 136.391  0.00  0.00    +0.000 A 
ATOM      9  C   UNL     1     112.001 124.276 136.814  0.00  0.00    +0.000 A 
ATOM     10  C   UNL     1     113.445 124.295 136.965  0.00  0.00    +0.000 A 
ATOM     11  C   UNL     1     111.274 124.688 136.620  0.00  0.00    +0.000 A 
ATOM     12  C   UNL     1     113.503 125.884 136.526  0.00  0.00    +0.000 A 
ATOM     13  C   UNL     1     114.170 124.688 136.934  0.00  0.00    +0.000 A 
ATOM     14  C   UNL     1     114.199 125.482 136.714  0.00  0.00    +0.000 A 
ENDROOT
BRANCH   8  15
ATOM     15  C   UNL     1     110.609 125.920 136.202  0.00  0.00    +0.000 A 
ATOM     16  C   UNL     1     110.331 125.922 135.426  0.00  0.00    +0.000 A 
ATOM     17  C   UNL     1     110.194 126.322 136.791  0.00  0.00    +0.000 A 
ATOM     18  C   UNL     1     109.637 126.326 135.238  0.00  0.00    +0.000 A 
ATOM     19  C   UNL     1     109.499 126.726 136.603  0.00  0.00    +0.000 A 
ATOM     20  C   UNL     1     109.221 126.728 135.826  0.00  0.00    +0.000 A 
BRANCH  20  21
ATOM     21  O   UNL     1     108.526 127.132 135.638  0.00  0.00    +0.000 OA
ATOM     22  C   UNL     1     108.496 127.954 135.701  0.00  0.00    +0.000 C 
ENDBRANCH  20  21
ENDBRANCH   8  15
TORSDOF 2
ENDMDL
MODEL 8
REMARK VINA RESULT:      -7.6     12.814     14.071
REMARK  Name = 11174076
REMARK  2 active torsions:
REMARK  status: ('A' for Active; 'I' for Inactive)
REMARK    1  A    between atoms: O_6  and  C_21
REMARK    2  A    between atoms: C_9  and  C_10
REMARK                            x       y       z     vdW  Elec       q    Type
REMARK                         _______ _______ _______ _____ _____    ______ ____
ROOT
ATOM      1  O   UNL     1     113.958 126.930 136.633  0.00  0.00    +0.000 OA
ATOM      2  O   UNL     1     112.015 124.792 136.464  0.00  0.00    +0.000 OA
ATOM      3  O   UNL     1     113.136 123.724 137.033  0.00  0.00    +0.000 OA
ATOM      4  O   UNL     1     111.624 126.124 136.070  0.00  0.00    +0.000 OA
ATOM      5  O   UNL     1     114.658 124.243 137.401  0.00  0.00    +0.000 OA
ATOM      6  C   UNL     1     112.976 125.846 136.548  0.00  0.00    +0.000 A 
ATOM      7  C   UNL     1     113.737 126.105 136.733  0.00  0.00    +0.000 A 
ATOM      8  C   UNL     1     113.378 127.491 136.337  0.00  0.00    +0.000 A 
ATOM      9  C   UNL     1     112.383 126.393 136.252  0.00  0.00    +0.000 A 
ATOM     10  C   UNL     1     112.776 125.052 136.648  0.00  0.00    +0.000 A 
ATOM     11  C   UNL     1     112.586 127.221 136.145  0.00  0.00    +0.000 A 
ATOM     12  C   UNL     1     114.298 125.572 137.017  0.00  0.00    +0.000 A 
ATOM     13  C   UNL     1     113.336 124.518 136.932  0.00  0.00    +0.000 A 
ATOM     14  C   UNL     1     114.097 124.778 137.117  0.00  0.00    +0.000 A 
ENDROOT
BRANCH   8  15
ATOM     15  C   UNL     1     113.581 128.285 136.238  0.00  0.00    +0.000 A 
ATOM     16  C   UNL     1     113.419 128.830 136.835  0.00  0.00    +0.000 A 
ATOM     17  C   UNL     1     113.947 128.533 135.541  0.00  0.00    +0.000 A 
ATOM     18  C   UNL     1     113.622 129.624 136.736  0.00  0.00    +0.000 A 
ATOM     19  C   UNL     1     114.150 129.327 135.442  0.00  0.00    +0.000 A 
ATOM     20  C   UNL     1     113.988 129.872 136.039  0.00  0.00    +0.000 A 
BRANCH  20  21
ATOM     21  O   UNL     1     114.191 130.665 135.940  0.00  0.00    +0.000 OA
ATOM     22  C   UNL     1     114.965 130.872 135.744  0.00  0.00    +0.000 C 
ENDBRANCH  20  21
ENDBRANCH   8  15
TORSDOF 2
ENDMDL
MODEL 9
REMARK VINA RESULT:      -7.6     12.536     13.933
REMARK  Name = 11174076
REMARK  2 active torsions:
REMARK  status: ('A' for Active; 'I' for Inactive)
REMARK    1  A    between atoms: O_6  and  C_21
REMARK    2  A    between atoms: C_9  and  C_10
REMARK                            x       y       z     vdW  Elec       q    Type
REMARK                         _______ _______ _______ _____ _____    ______ ____
ROOT
ATOM      1  O   UNL     1     112.643 126.814 136.210  0.00  0.00    +0.000 OA
ATOM      2  O   UNL     1     113.449 124.159 137.033  0.00  0.00    +0.000 OA
ATOM      3  O   UNL     1     111.982 123.565 136.564  0.00  0.00    +0.000 OA
ATOM      4  O   UNL     1     114.376 125.252 137.193  0.00  0.00    +0.000 OA
ATOM      5  O   UNL     1     110.849 124.578 135.923  0.00  0.00    +0.000 OA
ATOM      6  C   UNL     1     113.048 125.468 136.626  0.00  0.00    +0.000 A 
ATOM      7  C   UNL     1     112.482 125.975 136.305  0.00  0.00    +0.000 A 
ATOM      8  C   UNL     1     113.405 127.129 136.452  0.00  0.00    +0.000 A 
ATOM      9  C   UNL     1     113.816 125.766 136.874  0.00  0.00    +0.000 A 
ATOM     10  C   UNL     1     112.882 124.666 136.712  0.00  0.00    +0.000 A 
ATOM     11  C   UNL     1     113.995 126.601 136.786  0.00  0.00    +0.000 A 
ATOM     12  C   UNL     1     111.748 125.679 136.071  0.00  0.00    +0.000 A 
ATOM     13  C   UNL     1     112.149 124.369 136.478  0.00  0.00    +0.000 A 
ATOM     14  C   UNL     1     111.583 124.875 136.157  0.00  0.00    +0.000 A 
ENDROOT
BRANCH   8  15
ATOM     15  C   UNL     1     113.569 127.933 136.365  0.00  0.00    +0.000 A 
ATOM     16  C   UNL     1     113.323 128.469 136.940  0.00  0.00    +0.000 A 
ATOM     17  C   UNL     1     113.979 128.200 135.701  0.00  0.00    +0.000 A 
ATOM     18  C   UNL     1     113.487 129.273 136.853  0.00  0.00    +0.000 A 
ATOM     19  C   UNL     1     114.143 129.004 135.612  0.00  0.00    +0.000 A 
ATOM     20  C   UNL     1     113.897 129.541 136.189  0.00  0.00    +0.000 A 
BRANCH  20  21
ATOM     21  O   UNL     1     114.061 130.344 136.101  0.00  0.00    +0.000 OA
ATOM     22  C   UNL     1     114.842 130.605 136.061  0.00  0.00    +0.000 C 
ENDBRANCH  20  21
ENDBRANCH   8  15
TORSDOF 2
ENDMDL
MODEL 10
REMARK VINA RESULT:      -7.5     12.497     13.902
REMARK  Name = 11174076
REMARK  2 active torsions:
REMARK  status: ('A' for Active; 'I' for Inactive)
REMARK    1  A    between atoms: O_6  and  C_21
REMARK    2  A    between atoms: C_9  and  C_10
REMARK                            x       y       z     vdW  Elec       q    Type
REMARK                         _______ _______ _______ _____ _____    ______ ____
ROOT
ATOM      1  O   UNL     1     113.841 127.589 135.994  0.00  0.00    +0.000 OA
ATOM      2  O   UNL     1     113.430 130.165 137.245  0.00  0.00    +0.000 OA
ATOM      3  O   UNL     1     114.218 130.901 135.996  0.00  0.00    +0.000 OA
ATOM      4  O   UNL     1     112.926 128.983 137.899  0.00  0.00    +0.000 OA
ATOM      5  O   UNL     1     114.817 129.998 134.751  0.00  0.00    +0.000 OA
ATOM      6  C   UNL     1     113.634 128.895 136.625  0.00  0.00    +0.000 A 
ATOM      7  C   UNL     1     113.933 128.443 136.003  0.00  0.00    +0.000 A 
ATOM      8  C   UNL     1     113.431 127.200 136.641  0.00  0.00    +0.000 A 
ATOM      9  C   UNL     1     113.222 128.523 137.281  0.00  0.00    +0.000 A 
ATOM     10  C   UNL     1     113.729 129.714 136.622  0.00  0.00    +0.000 A 
ATOM     11  C   UNL     1     113.120 127.670 137.289  0.00  0.00    +0.000 A 
ATOM     12  C   UNL     1     114.328 128.811 135.378  0.00  0.00    +0.000 A 
ATOM     13  C   UNL     1     114.123 130.082 135.999  0.00  0.00    +0.000 A 
ATOM     14  C   UNL     1     114.422 129.630 135.376  0.00  0.00    +0.000 A 
ENDROOT
BRANCH   8  15
ATOM     15  C   UNL     1     113.338 126.380 136.641  0.00  0.00    +0.000 A 
ATOM     16  C   UNL     1     113.955 125.894 136.892  0.00  0.00    +0.000 A 
ATOM     17  C   UNL     1     112.627 126.046 136.388  0.00  0.00    +0.000 A 
ATOM     18  C   UNL     1     113.861 125.075 136.892  0.00  0.00    +0.000 A 
ATOM     19  C   UNL     1     112.533 125.226 136.388  0.00  0.00    +0.000 A 
ATOM     20  C   UNL     1     113.150 124.741 136.640  0.00  0.00    +0.000 A 
BRANCH  20  21
ATOM     21  O   UNL     1     113.057 123.921 136.639  0.00  0.00    +0.000 OA
ATOM     22  C   UNL     1     112.334 123.587 136.853  0.00  0.00    +0.000 C 
ENDBRANCH  20  21
ENDBRANCH   8  15
TORSDOF 2
ENDMDL
