MODEL 1
REMARK VINA RESULT:     -11.1      0.000      0.000
REMARK  Name = 44259163
REMARK  9 active torsions:
REMARK  status: ('A' for Active; 'I' for Inactive)
REMARK    1  A    between atoms: O_1  and  C_22
REMARK    2  A    between atoms: O_1  and  C_27
REMARK    3  A    between atoms: O_4  and  C_30
REMARK    4  A    between atoms: O_4  and  C_33
REMARK    5  A    between atoms: O_6  and  C_26
REMARK    6  A    between atoms: O_6  and  C_40
REMARK    7  A    between atoms: C_25  and  C_30
REMARK    8  A    between atoms: C_37  and  C_39
REMARK    9  A    between atoms: C_41  and  C_44
REMARK                            x       y       z     vdW  Elec       q    Type
REMARK                         _______ _______ _______ _____ _____    ______ ____
ROOT
ATOM      1  O   UNL     1     111.103 128.551 138.070  0.00  0.00    +0.000 OA
ATOM      2  O   UNL     1     108.938 129.733 138.266  0.00  0.00    +0.000 OA
ATOM      3  O   UNL     1     109.002 128.240 137.566  0.00  0.00    +0.000 OA
ATOM      4  C   UNL     1     110.349 129.691 138.485  0.00  0.00    +0.000 C 
ATOM      5  C   UNL     1     109.660 129.339 138.201  0.00  0.00    +0.000 C 
ATOM      6  C   UNL     1     109.691 128.592 137.851  0.00  0.00    +0.000 C 
ATOM      7  C   UNL     1     110.413 128.198 137.785  0.00  0.00    +0.000 C 
ATOM      8  C   UNL     1     111.071 129.297 138.420  0.00  0.00    +0.000 C 
ENDROOT
BRANCH   4   9
ATOM      9  O   UNL     1     110.317 130.438 138.835  0.00  0.00    +0.000 OA
BRANCH   9  14
ATOM     10  O   UNL     1     110.295 131.043 137.540  0.00  0.00    +0.000 OA
ATOM     11  O   UNL     1     110.197 131.927 139.534  0.00  0.00    +0.000 OA
ATOM     12  O   UNL     1     110.115 133.278 138.589  0.00  0.00    +0.000 OA
ATOM     13  O   UNL     1     110.153 133.138 136.946  0.00  0.00    +0.000 OA
ATOM     14  C   UNL     1     110.276 131.113 138.363  0.00  0.00    +0.000 C 
ATOM     15  C   UNL     1     110.216 131.858 138.712  0.00  0.00    +0.000 C 
ATOM     16  C   UNL     1     110.175 132.533 138.239  0.00  0.00    +0.000 C 
ATOM     17  C   UNL     1     110.194 132.463 137.418  0.00  0.00    +0.000 C 
ATOM     18  C   UNL     1     110.254 131.718 137.068  0.00  0.00    +0.000 C 
ATOM     19  C   UNL     1     110.273 131.648 136.247  0.00  0.00    +0.000 C 
ENDBRANCH   9  14
ENDBRANCH   4   9
BRANCH   8  20
ATOM     20  O   UNL     1     111.761 129.649 138.704  0.00  0.00    +0.000 OA
BRANCH  20  25
ATOM     21  O   UNL     1     113.666 128.711 139.208  0.00  0.00    +0.000 OA
ATOM     22  O   UNL     1     111.339 128.789 140.048  0.00  0.00    +0.000 OA
ATOM     23  O   UNL     1     111.670 127.895 141.131  0.00  0.00    +0.000 OA
ATOM     24  O   UNL     1     114.406 126.904 141.369  0.00  0.00    +0.000 OA
ATOM     25  C   UNL     1     112.326 129.193 139.096  0.00  0.00    +0.000 A 
ATOM     26  C   UNL     1     113.101 129.167 138.816  0.00  0.00    +0.000 A 
ATOM     27  C   UNL     1     112.114 128.763 139.768  0.00  0.00    +0.000 A 
ATOM     28  C   UNL     1     112.679 128.307 140.160  0.00  0.00    +0.000 A 
ATOM     29  C   UNL     1     113.455 128.281 139.880  0.00  0.00    +0.000 A 
ATOM     30  C   UNL     1     112.448 127.863 140.859  0.00  0.00    +0.000 A 
ATOM     31  C   UNL     1     114.053 127.810 140.279  0.00  0.00    +0.000 A 
ATOM     32  C   UNL     1     113.032 127.386 141.271  0.00  0.00    +0.000 A 
ATOM     33  C   UNL     1     113.839 127.359 140.979  0.00  0.00    +0.000 A 
BRANCH  26  36
ATOM     34  O   UNL     1     113.581 129.286 136.002  0.00  0.00    +0.000 OA
ATOM     35  O   UNL     1     113.947 130.890 136.132  0.00  0.00    +0.000 OA
ATOM     36  C   UNL     1     113.312 129.597 138.145  0.00  0.00    +0.000 A 
ATOM     37  C   UNL     1     113.341 129.227 137.409  0.00  0.00    +0.000 A 
ATOM     38  C   UNL     1     113.495 130.399 138.210  0.00  0.00    +0.000 A 
ATOM     39  C   UNL     1     113.552 129.657 136.737  0.00  0.00    +0.000 A 
ATOM     40  C   UNL     1     113.707 130.830 137.539  0.00  0.00    +0.000 A 
ATOM     41  C   UNL     1     113.735 130.459 136.802  0.00  0.00    +0.000 A 
ENDBRANCH  26  36
ENDBRANCH  20  25
ENDBRANCH   8  20
BRANCH   7  42
ATOM     42  C   UNL     1     110.446 127.452 137.435  0.00  0.00    +0.000 C 
BRANCH  42  43
ATOM     43  O   UNL     1     110.793 126.822 137.841  0.00  0.00    +0.000 OA
BRANCH  43  48
ATOM     44  O   UNL     1     110.871 126.079 136.622  0.00  0.00    +0.000 OA
ATOM     45  O   UNL     1     111.329 125.505 138.678  0.00  0.00    +0.000 OA
ATOM     46  O   UNL     1     111.675 124.104 137.878  0.00  0.00    +0.000 OA
ATOM     47  O   UNL     1     111.485 124.020 136.242  0.00  0.00    +0.000 OA
ATOM     48  C   UNL     1     110.966 126.121 137.441  0.00  0.00    +0.000 C 
ATOM     49  C   UNL     1     111.234 125.463 137.860  0.00  0.00    +0.000 C 
ATOM     50  C   UNL     1     111.407 124.762 137.459  0.00  0.00    +0.000 C 
ATOM     51  C   UNL     1     111.312 124.720 136.642  0.00  0.00    +0.000 C 
ATOM     52  C   UNL     1     111.045 125.378 136.223  0.00  0.00    +0.000 C 
BRANCH  52  54
ATOM     53  O   UNL     1     110.213 125.497 135.067  0.00  0.00    +0.000 OA
ATOM     54  C   UNL     1     110.949 125.337 135.405  0.00  0.00    +0.000 C 
ENDBRANCH  52  54
ENDBRANCH  43  48
ENDBRANCH  42  43
ENDBRANCH   7  42
TORSDOF 9
ENDMDL
MODEL 2
REMARK VINA RESULT:     -11.0      1.836      4.971
REMARK  Name = 44259163
REMARK  9 active torsions:
REMARK  status: ('A' for Active; 'I' for Inactive)
REMARK    1  A    between atoms: O_1  and  C_22
REMARK    2  A    between atoms: O_1  and  C_27
REMARK    3  A    between atoms: O_4  and  C_30
REMARK    4  A    between atoms: O_4  and  C_33
REMARK    5  A    between atoms: O_6  and  C_26
REMARK    6  A    between atoms: O_6  and  C_40
REMARK    7  A    between atoms: C_25  and  C_30
REMARK    8  A    between atoms: C_37  and  C_39
REMARK    9  A    between atoms: C_41  and  C_44
REMARK                            x       y       z     vdW  Elec       q    Type
REMARK                         _______ _______ _______ _____ _____    ______ ____
ROOT
ATOM      1  O   UNL     1     111.433 127.964 139.164  0.00  0.00    +0.000 OA
ATOM      2  O   UNL     1     111.115 125.519 139.371  0.00  0.00    +0.000 OA
ATOM      3  O   UNL     1     110.059 126.553 140.104  0.00  0.00    +0.000 OA
ATOM      4  C   UNL     1     111.855 126.632 138.867  0.00  0.00    +0.000 C 
ATOM      5  C   UNL     1     111.221 126.334 139.302  0.00  0.00    +0.000 C 
ATOM      6  C   UNL     1     110.693 126.851 139.669  0.00  0.00    +0.000 C 
ATOM      7  C   UNL     1     110.799 127.666 139.600  0.00  0.00    +0.000 C 
ATOM      8  C   UNL     1     111.961 127.447 138.798  0.00  0.00    +0.000 C 
ENDROOT
BRANCH   4   9
ATOM      9  O   UNL     1     112.383 126.115 138.500  0.00  0.00    +0.000 OA
BRANCH   9  14
ATOM     10  O   UNL     1     111.445 125.905 137.442  0.00  0.00    +0.000 OA
ATOM     11  O   UNL     1     113.393 124.997 137.827  0.00  0.00    +0.000 OA
ATOM     12  O   UNL     1     112.960 124.228 136.432  0.00  0.00    +0.000 OA
ATOM     13  O   UNL     1     111.517 124.578 135.712  0.00  0.00    +0.000 OA
ATOM     14  C   UNL     1     112.167 125.731 137.803  0.00  0.00    +0.000 C 
ATOM     15  C   UNL     1     112.671 125.172 137.466  0.00  0.00    +0.000 C 
ATOM     16  C   UNL     1     112.455 124.787 136.769  0.00  0.00    +0.000 C 
ATOM     17  C   UNL     1     111.734 124.962 136.409  0.00  0.00    +0.000 C 
ATOM     18  C   UNL     1     111.229 125.521 136.745  0.00  0.00    +0.000 C 
ATOM     19  C   UNL     1     110.508 125.696 136.385  0.00  0.00    +0.000 C 
ENDBRANCH   9  14
ENDBRANCH   4   9
BRANCH   8  20
ATOM     20  O   UNL     1     112.596 127.745 138.362  0.00  0.00    +0.000 OA
BRANCH  20  25
ATOM     21  O   UNL     1     113.455 129.751 138.360  0.00  0.00    +0.000 OA
ATOM     22  O   UNL     1     113.219 127.820 139.889  0.00  0.00    +0.000 OA
ATOM     23  O   UNL     1     113.924 128.523 140.932  0.00  0.00    +0.000 OA
ATOM     24  O   UNL     1     114.887 131.231 140.419  0.00  0.00    +0.000 OA
ATOM     25  C   UNL     1     112.986 128.427 138.616  0.00  0.00    +0.000 A 
ATOM     26  C   UNL     1     113.065 129.070 138.106  0.00  0.00    +0.000 A 
ATOM     27  C   UNL     1     113.297 128.463 139.379  0.00  0.00    +0.000 A 
ATOM     28  C   UNL     1     113.688 129.145 139.632  0.00  0.00    +0.000 A 
ATOM     29  C   UNL     1     113.767 129.789 139.122  0.00  0.00    +0.000 A 
ATOM     30  C   UNL     1     114.008 129.172 140.430  0.00  0.00    +0.000 A 
ATOM     31  C   UNL     1     114.171 130.504 139.375  0.00  0.00    +0.000 A 
ATOM     32  C   UNL     1     114.416 129.879 140.699  0.00  0.00    +0.000 A 
ATOM     33  C   UNL     1     114.498 130.549 140.168  0.00  0.00    +0.000 A 
BRANCH  26  36
ATOM     34  O   UNL     1     110.961 129.647 136.259  0.00  0.00    +0.000 OA
ATOM     35  O   UNL     1     111.822 128.922 135.053  0.00  0.00    +0.000 OA
ATOM     36  C   UNL     1     112.754 129.033 137.343  0.00  0.00    +0.000 A 
ATOM     37  C   UNL     1     112.013 129.358 137.183  0.00  0.00    +0.000 A 
ATOM     38  C   UNL     1     113.184 128.671 136.740  0.00  0.00    +0.000 A 
ATOM     39  C   UNL     1     111.702 129.322 136.419  0.00  0.00    +0.000 A 
ATOM     40  C   UNL     1     112.874 128.633 135.976  0.00  0.00    +0.000 A 
ATOM     41  C   UNL     1     112.132 128.959 135.816  0.00  0.00    +0.000 A 
ENDBRANCH  26  36
ENDBRANCH  20  25
ENDBRANCH   8  20
BRANCH   7  42
ATOM     42  C   UNL     1     110.271 128.184 139.966  0.00  0.00    +0.000 C 
BRANCH  42  43
ATOM     43  O   UNL     1     110.034 128.873 139.579  0.00  0.00    +0.000 OA
BRANCH  43  48
ATOM     44  O   UNL     1     110.161 129.776 140.679  0.00  0.00    +0.000 OA
ATOM     45  O   UNL     1     108.638 129.625 139.123  0.00  0.00    +0.000 OA
ATOM     46  O   UNL     1     108.067 130.903 139.995  0.00  0.00    +0.000 OA
ATOM     47  O   UNL     1     108.892 131.430 141.322  0.00  0.00    +0.000 OA
ATOM     48  C   UNL     1     109.748 129.513 140.014  0.00  0.00    +0.000 C 
ATOM     49  C   UNL     1     109.050 129.888 139.786  0.00  0.00    +0.000 C 
ATOM     50  C   UNL     1     108.765 130.528 140.223  0.00  0.00    +0.000 C 
ATOM     51  C   UNL     1     109.177 130.792 140.886  0.00  0.00    +0.000 C 
ATOM     52  C   UNL     1     109.875 130.416 141.114  0.00  0.00    +0.000 C 
BRANCH  52  54
ATOM     53  O   UNL     1     111.110 130.750 141.750  0.00  0.00    +0.000 OA
ATOM     54  C   UNL     1     110.288 130.679 141.778  0.00  0.00    +0.000 C 
ENDBRANCH  52  54
ENDBRANCH  43  48
ENDBRANCH  42  43
ENDBRANCH   7  42
TORSDOF 9
ENDMDL
MODEL 3
REMARK VINA RESULT:     -10.8      1.907      5.607
REMARK  Name = 44259163
REMARK  9 active torsions:
REMARK  status: ('A' for Active; 'I' for Inactive)
REMARK    1  A    between atoms: O_1  and  C_22
REMARK    2  A    between atoms: O_1  and  C_27
REMARK    3  A    between atoms: O_4  and  C_30
REMARK    4  A    between atoms: O_4  and  C_33
REMARK    5  A    between atoms: O_6  and  C_26
REMARK    6  A    between atoms: O_6  and  C_40
REMARK    7  A    between atoms: C_25  and  C_30
REMARK    8  A    between atoms: C_37  and  C_39
REMARK    9  A    between atoms: C_41  and  C_44
REMARK                            x       y       z     vdW  Elec       q    Type
REMARK                         _______ _______ _______ _____ _____    ______ ____
ROOT
ATOM      1  O   UNL     1     111.209 127.853 138.237  0.00  0.00    +0.000 OA
ATOM      2  O   UNL     1     111.386 125.469 138.880  0.00  0.00    +0.000 OA
ATOM      3  O   UNL     1     110.986 126.602 140.012  0.00  0.00    +0.000 OA
ATOM      4  C   UNL     1     111.468 126.492 137.886  0.00  0.00    +0.000 C 
ATOM      5  C   UNL     1     111.327 126.264 138.666  0.00  0.00    +0.000 C 
ATOM      6  C   UNL     1     111.127 126.830 139.232  0.00  0.00    +0.000 C 
ATOM      7  C   UNL     1     111.067 127.624 139.018  0.00  0.00    +0.000 C 
ATOM      8  C   UNL     1     111.409 127.286 137.672  0.00  0.00    +0.000 C 
ENDROOT
BRANCH   4   9
ATOM      9  O   UNL     1     111.669 125.926 137.320  0.00  0.00    +0.000 OA
BRANCH   9  14
ATOM     10  O   UNL     1     113.012 125.911 137.809  0.00  0.00    +0.000 OA
ATOM     11  O   UNL     1     112.036 124.705 136.273  0.00  0.00    +0.000 OA
ATOM     12  O   UNL     1     113.562 124.078 136.238  0.00  0.00    +0.000 OA
ATOM     13  O   UNL     1     114.721 124.673 137.251  0.00  0.00    +0.000 OA
ATOM     14  C   UNL     1     112.432 125.613 137.303  0.00  0.00    +0.000 C 
ATOM     15  C   UNL     1     112.616 125.002 136.779  0.00  0.00    +0.000 C 
ATOM     16  C   UNL     1     113.379 124.689 136.762  0.00  0.00    +0.000 C 
ATOM     17  C   UNL     1     113.958 124.987 137.268  0.00  0.00    +0.000 C 
ATOM     18  C   UNL     1     113.775 125.597 137.792  0.00  0.00    +0.000 C 
ATOM     19  C   UNL     1     114.354 125.895 138.298  0.00  0.00    +0.000 C 
ENDBRANCH   9  14
ENDBRANCH   4   9
BRANCH   8  20
ATOM     20  O   UNL     1     111.550 127.515 136.891  0.00  0.00    +0.000 OA
BRANCH  20  25
ATOM     21  O   UNL     1     111.000 129.361 135.865  0.00  0.00    +0.000 OA
ATOM     22  O   UNL     1     109.905 127.383 136.872  0.00  0.00    +0.000 OA
ATOM     23  O   UNL     1     108.601 127.893 136.526  0.00  0.00    +0.000 OA
ATOM     24  O   UNL     1     108.400 130.451 135.134  0.00  0.00    +0.000 OA
ATOM     25  C   UNL     1     111.093 128.109 136.546  0.00  0.00    +0.000 A 
ATOM     26  C   UNL     1     111.457 128.767 136.210  0.00  0.00    +0.000 A 
ATOM     27  C   UNL     1     110.270 128.042 136.537  0.00  0.00    +0.000 A 
ATOM     28  C   UNL     1     109.813 128.635 136.191  0.00  0.00    +0.000 A 
ATOM     29  C   UNL     1     110.178 129.295 135.855  0.00  0.00    +0.000 A 
ATOM     30  C   UNL     1     108.956 128.555 136.187  0.00  0.00    +0.000 A 
ATOM     31  C   UNL     1     109.712 129.920 135.493  0.00  0.00    +0.000 A 
ATOM     32  C   UNL     1     108.475 129.170 135.829  0.00  0.00    +0.000 A 
ATOM     33  C   UNL     1     108.855 129.856 135.480  0.00  0.00    +0.000 A 
BRANCH  26  36
ATOM     34  O   UNL     1     113.845 129.803 137.391  0.00  0.00    +0.000 OA
ATOM     35  O   UNL     1     114.747 129.032 136.245  0.00  0.00    +0.000 OA
ATOM     36  C   UNL     1     112.280 128.834 136.219  0.00  0.00    +0.000 A 
ATOM     37  C   UNL     1     112.651 129.285 136.801  0.00  0.00    +0.000 A 
ATOM     38  C   UNL     1     112.731 128.448 135.646  0.00  0.00    +0.000 A 
ATOM     39  C   UNL     1     113.474 129.352 136.810  0.00  0.00    +0.000 A 
ATOM     40  C   UNL     1     113.553 128.514 135.654  0.00  0.00    +0.000 A 
ATOM     41  C   UNL     1     113.924 128.966 136.237  0.00  0.00    +0.000 A 
ENDBRANCH  26  36
ENDBRANCH  20  25
ENDBRANCH   8  20
BRANCH   7  42
ATOM     42  C   UNL     1     110.867 128.191 139.583  0.00  0.00    +0.000 C 
BRANCH  42  43
ATOM     43  O   UNL     1     111.231 128.932 139.571  0.00  0.00    +0.000 OA
BRANCH  43  48
ATOM     44  O   UNL     1     110.052 129.722 139.733  0.00  0.00    +0.000 OA
ATOM     45  O   UNL     1     112.057 129.959 140.564  0.00  0.00    +0.000 OA
ATOM     46  O   UNL     1     111.291 131.263 141.223  0.00  0.00    +0.000 OA
ATOM     47  O   UNL     1     109.699 131.539 140.889  0.00  0.00    +0.000 OA
ATOM     48  C   UNL     1     110.849 129.584 139.901  0.00  0.00    +0.000 C 
ATOM     49  C   UNL     1     111.262 130.097 140.397  0.00  0.00    +0.000 C 
ATOM     50  C   UNL     1     110.878 130.749 140.726  0.00  0.00    +0.000 C 
ATOM     51  C   UNL     1     110.082 130.888 140.560  0.00  0.00    +0.000 C 
ATOM     52  C   UNL     1     109.670 130.374 140.063  0.00  0.00    +0.000 C 
BRANCH  52  54
ATOM     53  O   UNL     1     108.520 130.147 139.245  0.00  0.00    +0.000 OA
ATOM     54  C   UNL     1     108.874 130.512 139.896  0.00  0.00    +0.000 C 
ENDBRANCH  52  54
ENDBRANCH  43  48
ENDBRANCH  42  43
ENDBRANCH   7  42
TORSDOF 9
ENDMDL
MODEL 4
REMARK VINA RESULT:     -10.7      1.925      4.710
REMARK  Name = 44259163
REMARK  9 active torsions:
REMARK  status: ('A' for Active; 'I' for Inactive)
REMARK    1  A    between atoms: O_1  and  C_22
REMARK    2  A    between atoms: O_1  and  C_27
REMARK    3  A    between atoms: O_4  and  C_30
REMARK    4  A    between atoms: O_4  and  C_33
REMARK    5  A    between atoms: O_6  and  C_26
REMARK    6  A    between atoms: O_6  and  C_40
REMARK    7  A    between atoms: C_25  and  C_30
REMARK    8  A    between atoms: C_37  and  C_39
REMARK    9  A    between atoms: C_41  and  C_44
REMARK                            x       y       z     vdW  Elec       q    Type
REMARK                         _______ _______ _______ _____ _____    ______ ____
ROOT
ATOM      1  O   UNL     1     111.586 127.689 138.105  0.00  0.00    +0.000 OA
ATOM      2  O   UNL     1     109.121 127.480 138.159  0.00  0.00    +0.000 OA
ATOM      3  O   UNL     1     109.831 128.616 137.197  0.00  0.00    +0.000 OA
ATOM      4  C   UNL     1     110.409 127.051 138.604  0.00  0.00    +0.000 C 
ATOM      5  C   UNL     1     109.943 127.549 138.141  0.00  0.00    +0.000 C 
ATOM      6  C   UNL     1     110.297 128.118 137.659  0.00  0.00    +0.000 C 
ATOM      7  C   UNL     1     111.119 128.188 137.641  0.00  0.00    +0.000 C 
ATOM      8  C   UNL     1     111.231 127.121 138.586  0.00  0.00    +0.000 C 
ENDROOT
BRANCH   4   9
ATOM      9  O   UNL     1     110.054 126.483 139.085  0.00  0.00    +0.000 OA
BRANCH   9  14
ATOM     10  O   UNL     1     109.757 127.490 140.056  0.00  0.00    +0.000 OA
ATOM     11  O   UNL     1     109.434 125.330 140.091  0.00  0.00    +0.000 OA
ATOM     12  O   UNL     1     108.828 125.761 141.564  0.00  0.00    +0.000 OA
ATOM     13  O   UNL     1     108.840 127.343 142.031  0.00  0.00    +0.000 OA
ATOM     14  C   UNL     1     109.751 126.698 139.822  0.00  0.00    +0.000 C 
ATOM     15  C   UNL     1     109.441 126.122 140.325  0.00  0.00    +0.000 C 
ATOM     16  C   UNL     1     109.137 126.337 141.061  0.00  0.00    +0.000 C 
ATOM     17  C   UNL     1     109.144 127.128 141.294  0.00  0.00    +0.000 C 
ATOM     18  C   UNL     1     109.453 127.705 140.792  0.00  0.00    +0.000 C 
ATOM     19  C   UNL     1     109.460 128.495 141.025  0.00  0.00    +0.000 C 
ENDBRANCH   9  14
ENDBRANCH   4   9
BRANCH   8  20
ATOM     20  O   UNL     1     111.698 126.622 139.049  0.00  0.00    +0.000 OA
BRANCH  20  25
ATOM     21  O   UNL     1     113.823 126.172 138.845  0.00  0.00    +0.000 OA
ATOM     22  O   UNL     1     111.696 125.734 137.658  0.00  0.00    +0.000 OA
ATOM     23  O   UNL     1     112.386 124.980 136.640  0.00  0.00    +0.000 OA
ATOM     24  O   UNL     1     115.283 124.663 136.826  0.00  0.00    +0.000 OA
ATOM     25  C   UNL     1     112.406 126.324 138.749  0.00  0.00    +0.000 A 
ATOM     26  C   UNL     1     113.115 126.470 139.145  0.00  0.00    +0.000 A 
ATOM     27  C   UNL     1     112.405 125.880 138.054  0.00  0.00    +0.000 A 
ATOM     28  C   UNL     1     113.113 125.582 137.754  0.00  0.00    +0.000 A 
ATOM     29  C   UNL     1     113.823 125.728 138.150  0.00  0.00    +0.000 A 
ATOM     30  C   UNL     1     113.100 125.121 137.028  0.00  0.00    +0.000 A 
ATOM     31  C   UNL     1     114.567 125.423 137.848  0.00  0.00    +0.000 A 
ATOM     32  C   UNL     1     113.835 124.808 136.712  0.00  0.00    +0.000 A 
ATOM     33  C   UNL     1     114.573 124.960 137.124  0.00  0.00    +0.000 A 
BRANCH  26  36
ATOM     34  O   UNL     1     113.532 128.953 140.497  0.00  0.00    +0.000 OA
ATOM     35  O   UNL     1     113.119 128.243 141.928  0.00  0.00    +0.000 OA
ATOM     36  C   UNL     1     113.116 126.914 139.840  0.00  0.00    +0.000 A 
ATOM     37  C   UNL     1     113.323 127.711 139.821  0.00  0.00    +0.000 A 
ATOM     38  C   UNL     1     112.909 126.559 140.556  0.00  0.00    +0.000 A 
ATOM     39  C   UNL     1     113.324 128.155 140.517  0.00  0.00    +0.000 A 
ATOM     40  C   UNL     1     112.910 127.001 141.252  0.00  0.00    +0.000 A 
ATOM     41  C   UNL     1     113.118 127.800 141.232  0.00  0.00    +0.000 A 
ENDBRANCH  26  36
ENDBRANCH  20  25
ENDBRANCH   8  20
BRANCH   7  42
ATOM     42  C   UNL     1     111.475 128.755 137.160  0.00  0.00    +0.000 C 
BRANCH  42  43
ATOM     43  O   UNL     1     112.002 129.300 137.487  0.00  0.00    +0.000 OA
BRANCH  43  48
ATOM     44  O   UNL     1     113.002 129.153 136.477  0.00  0.00    +0.000 OA
ATOM     45  O   UNL     1     112.391 130.897 137.639  0.00  0.00    +0.000 OA
ATOM     46  O   UNL     1     113.585 131.548 136.705  0.00  0.00    +0.000 OA
ATOM     47  O   UNL     1     114.390 130.603 135.620  0.00  0.00    +0.000 OA
ATOM     48  C   UNL     1     112.599 129.627 137.020  0.00  0.00    +0.000 C 
ATOM     49  C   UNL     1     112.793 130.425 137.097  0.00  0.00    +0.000 C 
ATOM     50  C   UNL     1     113.391 130.750 136.629  0.00  0.00    +0.000 C 
ATOM     51  C   UNL     1     113.793 130.278 136.086  0.00  0.00    +0.000 C 
ATOM     52  C   UNL     1     113.599 129.480 136.010  0.00  0.00    +0.000 C 
BRANCH  52  54
ATOM     53  O   UNL     1     114.236 128.244 135.680  0.00  0.00    +0.000 OA
ATOM     54  C   UNL     1     114.002 129.007 135.467  0.00  0.00    +0.000 C 
ENDBRANCH  52  54
ENDBRANCH  43  48
ENDBRANCH  42  43
ENDBRANCH   7  42
TORSDOF 9
ENDMDL
MODEL 5
REMARK VINA RESULT:     -10.7      1.386      3.786
REMARK  Name = 44259163
REMARK  9 active torsions:
REMARK  status: ('A' for Active; 'I' for Inactive)
REMARK    1  A    between atoms: O_1  and  C_22
REMARK    2  A    between atoms: O_1  and  C_27
REMARK    3  A    between atoms: O_4  and  C_30
REMARK    4  A    between atoms: O_4  and  C_33
REMARK    5  A    between atoms: O_6  and  C_26
REMARK    6  A    between atoms: O_6  and  C_40
REMARK    7  A    between atoms: C_25  and  C_30
REMARK    8  A    between atoms: C_37  and  C_39
REMARK    9  A    between atoms: C_41  and  C_44
REMARK                            x       y       z     vdW  Elec       q    Type
REMARK                         _______ _______ _______ _____ _____    ______ ____
ROOT
ATOM      1  O   UNL     1     111.281 128.451 138.044  0.00  0.00    +0.000 OA
ATOM      2  O   UNL     1     109.080 129.547 138.330  0.00  0.00    +0.000 OA
ATOM      3  O   UNL     1     110.090 129.373 139.624  0.00  0.00    +0.000 OA
ATOM      4  C   UNL     1     110.042 128.903 137.493  0.00  0.00    +0.000 C 
ATOM      5  C   UNL     1     109.814 129.182 138.235  0.00  0.00    +0.000 C 
ATOM      6  C   UNL     1     110.318 129.095 138.882  0.00  0.00    +0.000 C 
ATOM      7  C   UNL     1     111.052 128.730 138.787  0.00  0.00    +0.000 C 
ATOM      8  C   UNL     1     110.776 128.538 137.398  0.00  0.00    +0.000 C 
ENDROOT
BRANCH   4   9
ATOM      9  O   UNL     1     109.538 128.990 136.846  0.00  0.00    +0.000 OA
BRANCH   9  14
ATOM     10  O   UNL     1     109.975 130.340 136.675  0.00  0.00    +0.000 OA
ATOM     11  O   UNL     1     108.349 129.233 135.727  0.00  0.00    +0.000 OA
ATOM     12  O   UNL     1     108.192 130.704 134.997  0.00  0.00    +0.000 OA
ATOM     13  O   UNL     1     109.223 131.932 135.385  0.00  0.00    +0.000 OA
ATOM     14  C   UNL     1     109.459 129.726 136.481  0.00  0.00    +0.000 C 
ATOM     15  C   UNL     1     108.865 129.847 135.921  0.00  0.00    +0.000 C 
ATOM     16  C   UNL     1     108.787 130.583 135.556  0.00  0.00    +0.000 C 
ATOM     17  C   UNL     1     109.302 131.197 135.750  0.00  0.00    +0.000 C 
ATOM     18  C   UNL     1     109.896 131.076 136.309  0.00  0.00    +0.000 C 
ATOM     19  C   UNL     1     110.412 131.689 136.503  0.00  0.00    +0.000 C 
ENDBRANCH   9  14
ENDBRANCH   4   9
BRANCH   8  20
ATOM     20  O   UNL     1     111.005 128.259 136.655  0.00  0.00    +0.000 OA
BRANCH  20  25
ATOM     21  O   UNL     1     112.515 126.767 136.151  0.00  0.00    +0.000 OA
ATOM     22  O   UNL     1     110.308 126.893 137.263  0.00  0.00    +0.000 OA
ATOM     23  O   UNL     1     110.322 125.472 137.515  0.00  0.00    +0.000 OA
ATOM     24  O   UNL     1     112.612 123.895 136.624  0.00  0.00    +0.000 OA
ATOM     25  C   UNL     1     111.392 127.534 136.588  0.00  0.00    +0.000 A 
ATOM     26  C   UNL     1     112.127 127.492 136.218  0.00  0.00    +0.000 A 
ATOM     27  C   UNL     1     111.043 126.851 136.892  0.00  0.00    +0.000 A 
ATOM     28  C   UNL     1     111.431 126.126 136.825  0.00  0.00    +0.000 A 
ATOM     29  C   UNL     1     112.167 126.083 136.454  0.00  0.00    +0.000 A 
ATOM     30  C   UNL     1     111.057 125.420 137.146  0.00  0.00    +0.000 A 
ATOM     31  C   UNL     1     112.580 125.334 136.378  0.00  0.00    +0.000 A 
ATOM     32  C   UNL     1     111.456 124.662 137.079  0.00  0.00    +0.000 A 
ATOM     33  C   UNL     1     112.222 124.619 136.693  0.00  0.00    +0.000 A 
BRANCH  26  36
ATOM     34  O   UNL     1     113.993 129.643 136.470  0.00  0.00    +0.000 OA
ATOM     35  O   UNL     1     113.522 130.224 135.000  0.00  0.00    +0.000 OA
ATOM     36  C   UNL     1     112.476 128.175 135.914  0.00  0.00    +0.000 A 
ATOM     37  C   UNL     1     113.060 128.567 136.344  0.00  0.00    +0.000 A 
ATOM     38  C   UNL     1     112.241 128.466 135.179  0.00  0.00    +0.000 A 
ATOM     39  C   UNL     1     113.409 129.251 136.040  0.00  0.00    +0.000 A 
ATOM     40  C   UNL     1     112.589 129.149 134.874  0.00  0.00    +0.000 A 
ATOM     41  C   UNL     1     113.174 129.541 135.305  0.00  0.00    +0.000 A 
ENDBRANCH  26  36
ENDBRANCH  20  25
ENDBRANCH   8  20
BRANCH   7  42
ATOM     42  C   UNL     1     111.557 128.642 139.433  0.00  0.00    +0.000 C 
BRANCH  42  43
ATOM     43  O   UNL     1     112.275 129.049 139.453  0.00  0.00    +0.000 OA
BRANCH  43  48
ATOM     44  O   UNL     1     113.030 127.898 139.835  0.00  0.00    +0.000 OA
ATOM     45  O   UNL     1     113.369 130.020 140.216  0.00  0.00    +0.000 OA
ATOM     46  O   UNL     1     114.672 129.353 140.980  0.00  0.00    +0.000 OA
ATOM     47  O   UNL     1     114.879 127.717 140.980  0.00  0.00    +0.000 OA
ATOM     48  C   UNL     1     112.926 128.717 139.835  0.00  0.00    +0.000 C 
ATOM     49  C   UNL     1     113.473 129.202 140.216  0.00  0.00    +0.000 C 
ATOM     50  C   UNL     1     114.124 128.868 140.598  0.00  0.00    +0.000 C 
ATOM     51  C   UNL     1     114.228 128.050 140.598  0.00  0.00    +0.000 C 
ATOM     52  C   UNL     1     113.681 127.565 140.217  0.00  0.00    +0.000 C 
BRANCH  52  54
ATOM     53  O   UNL     1     113.751 126.327 139.506  0.00  0.00    +0.000 OA
ATOM     54  C   UNL     1     113.784 126.747 140.216  0.00  0.00    +0.000 C 
ENDBRANCH  52  54
ENDBRANCH  43  48
ENDBRANCH  42  43
ENDBRANCH   7  42
TORSDOF 9
ENDMDL
MODEL 6
REMARK VINA RESULT:     -10.7      1.755      5.569
REMARK  Name = 44259163
REMARK  9 active torsions:
REMARK  status: ('A' for Active; 'I' for Inactive)
REMARK    1  A    between atoms: O_1  and  C_22
REMARK    2  A    between atoms: O_1  and  C_27
REMARK    3  A    between atoms: O_4  and  C_30
REMARK    4  A    between atoms: O_4  and  C_33
REMARK    5  A    between atoms: O_6  and  C_26
REMARK    6  A    between atoms: O_6  and  C_40
REMARK    7  A    between atoms: C_25  and  C_30
REMARK    8  A    between atoms: C_37  and  C_39
REMARK    9  A    between atoms: C_41  and  C_44
REMARK                            x       y       z     vdW  Elec       q    Type
REMARK                         _______ _______ _______ _____ _____    ______ ____
ROOT
ATOM      1  O   UNL     1     112.308 128.245 139.195  0.00  0.00    +0.000 OA
ATOM      2  O   UNL     1     112.246 125.828 139.722  0.00  0.00    +0.000 OA
ATOM      3  O   UNL     1     112.968 126.882 140.766  0.00  0.00    +0.000 OA
ATOM      4  C   UNL     1     111.927 126.912 138.849  0.00  0.00    +0.000 C 
ATOM      5  C   UNL     1     112.267 126.634 139.546  0.00  0.00    +0.000 C 
ATOM      6  C   UNL     1     112.628 127.160 140.069  0.00  0.00    +0.000 C 
ATOM      7  C   UNL     1     112.649 127.966 139.893  0.00  0.00    +0.000 C 
ATOM      8  C   UNL     1     111.948 127.718 138.673  0.00  0.00    +0.000 C 
ENDROOT
BRANCH   4   9
ATOM      9  O   UNL     1     111.565 126.386 138.326  0.00  0.00    +0.000 OA
BRANCH   9  14
ATOM     10  O   UNL     1     112.845 126.018 137.806  0.00  0.00    +0.000 OA
ATOM     11  O   UNL     1     110.856 125.210 137.411  0.00  0.00    +0.000 OA
ATOM     12  O   UNL     1     111.780 124.255 136.434  0.00  0.00    +0.000 OA
ATOM     13  O   UNL     1     113.414 124.475 136.371  0.00  0.00    +0.000 OA
ATOM     14  C   UNL     1     112.028 125.908 137.838  0.00  0.00    +0.000 C 
ATOM     15  C   UNL     1     111.674 125.320 137.380  0.00  0.00    +0.000 C 
ATOM     16  C   UNL     1     112.136 124.843 136.891  0.00  0.00    +0.000 C 
ATOM     17  C   UNL     1     112.952 124.953 136.860  0.00  0.00    +0.000 C 
ATOM     18  C   UNL     1     113.308 125.541 137.317  0.00  0.00    +0.000 C 
ATOM     19  C   UNL     1     114.124 125.651 137.286  0.00  0.00    +0.000 C 
ENDBRANCH   9  14
ENDBRANCH   4   9
BRANCH   8  20
ATOM     20  O   UNL     1     111.607 127.997 137.975  0.00  0.00    +0.000 OA
BRANCH  20  25
ATOM     21  O   UNL     1     110.983 130.021 137.450  0.00  0.00    +0.000 OA
ATOM     22  O   UNL     1     110.354 128.220 139.025  0.00  0.00    +0.000 OA
ATOM     23  O   UNL     1     109.294 129.030 139.574  0.00  0.00    +0.000 OA
ATOM     24  O   UNL     1     108.862 131.714 138.508  0.00  0.00    +0.000 OA
ATOM     25  C   UNL     1     111.190 128.709 137.975  0.00  0.00    +0.000 A 
ATOM     26  C   UNL     1     111.400 129.309 137.450  0.00  0.00    +0.000 A 
ATOM     27  C   UNL     1     110.564 128.820 138.501  0.00  0.00    +0.000 A 
ATOM     28  C   UNL     1     110.147 129.532 138.501  0.00  0.00    +0.000 A 
ATOM     29  C   UNL     1     110.357 130.133 137.975  0.00  0.00    +0.000 A 
ATOM     30  C   UNL     1     109.496 129.636 139.053  0.00  0.00    +0.000 A 
ATOM     31  C   UNL     1     109.930 130.879 137.966  0.00  0.00    +0.000 A 
ATOM     32  C   UNL     1     109.059 130.375 139.057  0.00  0.00    +0.000 A 
ATOM     33  C   UNL     1     109.277 131.001 138.510  0.00  0.00    +0.000 A 
BRANCH  26  36
ATOM     34  O   UNL     1     114.141 129.705 136.746  0.00  0.00    +0.000 OA
ATOM     35  O   UNL     1     113.903 128.865 135.346  0.00  0.00    +0.000 OA
ATOM     36  C   UNL     1     112.026 129.199 136.924  0.00  0.00    +0.000 A 
ATOM     37  C   UNL     1     112.771 129.507 137.098  0.00  0.00    +0.000 A 
ATOM     38  C   UNL     1     111.907 128.779 136.224  0.00  0.00    +0.000 A 
ATOM     39  C   UNL     1     113.397 129.396 136.573  0.00  0.00    +0.000 A 
ATOM     40  C   UNL     1     112.532 128.668 135.698  0.00  0.00    +0.000 A 
ATOM     41  C   UNL     1     113.278 128.977 135.872  0.00  0.00    +0.000 A 
ENDBRANCH  26  36
ENDBRANCH  20  25
ENDBRANCH   8  20
BRANCH   7  42
ATOM     42  C   UNL     1     113.010 128.493 140.415  0.00  0.00    +0.000 C 
BRANCH  42  43
ATOM     43  O   UNL     1     113.507 129.085 140.124  0.00  0.00    +0.000 OA
BRANCH  43  48
ATOM     44  O   UNL     1     113.127 130.021 141.135  0.00  0.00    +0.000 OA
ATOM     45  O   UNL     1     114.968 129.838 139.976  0.00  0.00    +0.000 OA
ATOM     46  O   UNL     1     115.318 131.151 140.911  0.00  0.00    +0.000 OA
ATOM     47  O   UNL     1     114.208 131.711 141.995  0.00  0.00    +0.000 OA
ATOM     48  C   UNL     1     113.683 129.741 140.592  0.00  0.00    +0.000 C 
ATOM     49  C   UNL     1     114.413 130.118 140.517  0.00  0.00    +0.000 C 
ATOM     50  C   UNL     1     114.587 130.775 140.986  0.00  0.00    +0.000 C 
ATOM     51  C   UNL     1     114.033 131.055 141.528  0.00  0.00    +0.000 C 
ATOM     52  C   UNL     1     113.303 130.678 141.602  0.00  0.00    +0.000 C 
BRANCH  52  54
ATOM     53  O   UNL     1     111.994 131.175 141.886  0.00  0.00    +0.000 OA
ATOM     54  C   UNL     1     112.747 130.957 142.144  0.00  0.00    +0.000 C 
ENDBRANCH  52  54
ENDBRANCH  43  48
ENDBRANCH  42  43
ENDBRANCH   7  42
TORSDOF 9
ENDMDL
MODEL 7
REMARK VINA RESULT:     -10.7      1.740      3.717
REMARK  Name = 44259163
REMARK  9 active torsions:
REMARK  status: ('A' for Active; 'I' for Inactive)
REMARK    1  A    between atoms: O_1  and  C_22
REMARK    2  A    between atoms: O_1  and  C_27
REMARK    3  A    between atoms: O_4  and  C_30
REMARK    4  A    between atoms: O_4  and  C_33
REMARK    5  A    between atoms: O_6  and  C_26
REMARK    6  A    between atoms: O_6  and  C_40
REMARK    7  A    between atoms: C_25  and  C_30
REMARK    8  A    between atoms: C_37  and  C_39
REMARK    9  A    between atoms: C_41  and  C_44
REMARK                            x       y       z     vdW  Elec       q    Type
REMARK                         _______ _______ _______ _____ _____    ______ ____
ROOT
ATOM      1  O   UNL     1     112.750 128.068 138.698  0.00  0.00    +0.000 OA
ATOM      2  O   UNL     1     113.097 128.219 141.144  0.00  0.00    +0.000 OA
ATOM      3  O   UNL     1     113.330 126.784 140.365  0.00  0.00    +0.000 OA
ATOM      4  C   UNL     1     112.749 128.836 139.903  0.00  0.00    +0.000 C 
ATOM      5  C   UNL     1     112.981 128.169 140.329  0.00  0.00    +0.000 C 
ATOM      6  C   UNL     1     113.098 127.451 139.940  0.00  0.00    +0.000 C 
ATOM      7  C   UNL     1     112.982 127.400 139.124  0.00  0.00    +0.000 C 
ATOM      8  C   UNL     1     112.633 128.786 139.088  0.00  0.00    +0.000 C 
ENDROOT
BRANCH   4   9
ATOM      9  O   UNL     1     112.632 129.554 140.292  0.00  0.00    +0.000 OA
BRANCH   9  14
ATOM     10  O   UNL     1     114.033 129.835 140.254  0.00  0.00    +0.000 OA
ATOM     11  O   UNL     1     112.426 130.737 141.425  0.00  0.00    +0.000 OA
ATOM     12  O   UNL     1     113.724 131.608 141.953  0.00  0.00    +0.000 OA
ATOM     13  O   UNL     1     115.227 131.298 141.348  0.00  0.00    +0.000 OA
ATOM     14  C   UNL     1     113.281 129.990 140.556  0.00  0.00    +0.000 C 
ATOM     15  C   UNL     1     113.179 130.581 141.122  0.00  0.00    +0.000 C 
ATOM     16  C   UNL     1     113.827 131.017 141.386  0.00  0.00    +0.000 C 
ATOM     17  C   UNL     1     114.579 130.862 141.084  0.00  0.00    +0.000 C 
ATOM     18  C   UNL     1     114.682 130.271 140.517  0.00  0.00    +0.000 C 
ATOM     19  C   UNL     1     115.433 130.116 140.215  0.00  0.00    +0.000 C 
ENDBRANCH   9  14
ENDBRANCH   4   9
BRANCH   8  20
ATOM     20  O   UNL     1     112.401 129.454 138.662  0.00  0.00    +0.000 OA
BRANCH  20  25
ATOM     21  O   UNL     1     111.425 129.560 136.713  0.00  0.00    +0.000 OA
ATOM     22  O   UNL     1     110.911 128.846 139.025  0.00  0.00    +0.000 OA
ATOM     23  O   UNL     1     109.573 128.464 138.640  0.00  0.00    +0.000 OA
ATOM     24  O   UNL     1     108.742 128.813 135.863  0.00  0.00    +0.000 OA
ATOM     25  C   UNL     1     111.827 129.388 138.073  0.00  0.00    +0.000 A 
ATOM     26  C   UNL     1     111.999 129.626 137.302  0.00  0.00    +0.000 A 
ATOM     27  C   UNL     1     111.082 129.084 138.255  0.00  0.00    +0.000 A 
ATOM     28  C   UNL     1     110.509 129.018 137.665  0.00  0.00    +0.000 A 
ATOM     29  C   UNL     1     110.680 129.257 136.894  0.00  0.00    +0.000 A 
ATOM     30  C   UNL     1     109.735 128.700 137.867  0.00  0.00    +0.000 A 
ATOM     31  C   UNL     1     110.091 129.193 136.271  0.00  0.00    +0.000 A 
ATOM     32  C   UNL     1     109.134 128.629 137.257  0.00  0.00    +0.000 A 
ATOM     33  C   UNL     1     109.313 128.877 136.455  0.00  0.00    +0.000 A 
BRANCH  26  36
ATOM     34  O   UNL     1     114.606 129.286 136.182  0.00  0.00    +0.000 OA
ATOM     35  O   UNL     1     114.978 130.845 136.574  0.00  0.00    +0.000 OA
ATOM     36  C   UNL     1     112.744 129.930 137.120  0.00  0.00    +0.000 A 
ATOM     37  C   UNL     1     113.303 129.456 136.742  0.00  0.00    +0.000 A 
ATOM     38  C   UNL     1     112.930 130.710 137.316  0.00  0.00    +0.000 A 
ATOM     39  C   UNL     1     114.048 129.760 136.560  0.00  0.00    +0.000 A 
ATOM     40  C   UNL     1     113.674 131.015 137.134  0.00  0.00    +0.000 A 
ATOM     41  C   UNL     1     114.234 130.540 136.756  0.00  0.00    +0.000 A 
ENDBRANCH  26  36
ENDBRANCH  20  25
ENDBRANCH   8  20
BRANCH   7  42
ATOM     42  C   UNL     1     113.099 126.683 138.734  0.00  0.00    +0.000 C 
BRANCH  42  43
ATOM     43  O   UNL     1     112.494 126.362 138.273  0.00  0.00    +0.000 OA
BRANCH  43  48
ATOM     44  O   UNL     1     113.412 125.493 137.606  0.00  0.00    +0.000 OA
ATOM     45  O   UNL     1     111.237 125.419 137.771  0.00  0.00    +0.000 OA
ATOM     46  O   UNL     1     111.526 124.078 136.852  0.00  0.00    +0.000 OA
ATOM     47  O   UNL     1     113.072 123.682 136.437  0.00  0.00    +0.000 OA
ATOM     48  C   UNL     1     112.638 125.692 137.814  0.00  0.00    +0.000 C 
ATOM     49  C   UNL     1     112.010 125.220 137.563  0.00  0.00    +0.000 C 
ATOM     50  C   UNL     1     112.155 124.550 137.104  0.00  0.00    +0.000 C 
ATOM     51  C   UNL     1     112.928 124.352 136.896  0.00  0.00    +0.000 C 
ATOM     52  C   UNL     1     113.556 124.823 137.147  0.00  0.00    +0.000 C 
BRANCH  52  54
ATOM     53  O   UNL     1     114.932 124.669 137.503  0.00  0.00    +0.000 OA
ATOM     54  C   UNL     1     114.330 124.625 136.939  0.00  0.00    +0.000 C 
ENDBRANCH  52  54
ENDBRANCH  43  48
ENDBRANCH  42  43
ENDBRANCH   7  42
TORSDOF 9
ENDMDL
MODEL 8
REMARK VINA RESULT:     -10.7      1.550      5.526
REMARK  Name = 44259163
REMARK  9 active torsions:
REMARK  status: ('A' for Active; 'I' for Inactive)
REMARK    1  A    between atoms: O_1  and  C_22
REMARK    2  A    between atoms: O_1  and  C_27
REMARK    3  A    between atoms: O_4  and  C_30
REMARK    4  A    between atoms: O_4  and  C_33
REMARK    5  A    between atoms: O_6  and  C_26
REMARK    6  A    between atoms: O_6  and  C_40
REMARK    7  A    between atoms: C_25  and  C_30
REMARK    8  A    between atoms: C_37  and  C_39
REMARK    9  A    between atoms: C_41  and  C_44
REMARK                            x       y       z     vdW  Elec       q    Type
REMARK                         _______ _______ _______ _____ _____    ______ ____
ROOT
ATOM      1  O   UNL     1     111.369 128.229 136.137  0.00  0.00    +0.000 OA
ATOM      2  O   UNL     1     111.085 126.030 135.038  0.00  0.00    +0.000 OA
ATOM      3  O   UNL     1     110.013 127.247 134.736  0.00  0.00    +0.000 OA
ATOM      4  C   UNL     1     111.810 126.887 135.921  0.00  0.00    +0.000 C 
ATOM      5  C   UNL     1     111.180 126.763 135.404  0.00  0.00    +0.000 C 
ATOM      6  C   UNL     1     110.644 127.371 135.253  0.00  0.00    +0.000 C 
ATOM      7  C   UNL     1     110.738 128.105 135.619  0.00  0.00    +0.000 C 
ATOM      8  C   UNL     1     111.904 127.620 136.288  0.00  0.00    +0.000 C 
ENDROOT
BRANCH   4   9
ATOM      9  O   UNL     1     112.346 126.278 136.073  0.00  0.00    +0.000 OA
BRANCH   9  14
ATOM     10  O   UNL     1     111.482 125.731 137.071  0.00  0.00    +0.000 OA
ATOM     11  O   UNL     1     113.219 124.878 136.061  0.00  0.00    +0.000 OA
ATOM     12  O   UNL     1     112.792 123.631 137.053  0.00  0.00    +0.000 OA
ATOM     13  O   UNL     1     111.491 123.784 138.057  0.00  0.00    +0.000 OA
ATOM     14  C   UNL     1     112.133 125.655 136.569  0.00  0.00    +0.000 C 
ATOM     15  C   UNL     1     112.568 124.955 136.563  0.00  0.00    +0.000 C 
ATOM     16  C   UNL     1     112.355 124.331 137.059  0.00  0.00    +0.000 C 
ATOM     17  C   UNL     1     111.705 124.408 137.561  0.00  0.00    +0.000 C 
ATOM     18  C   UNL     1     111.268 125.108 137.567  0.00  0.00    +0.000 C 
ATOM     19  C   UNL     1     110.618 125.184 138.069  0.00  0.00    +0.000 C 
ENDBRANCH   9  14
ENDBRANCH   4   9
BRANCH   8  20
ATOM     20  O   UNL     1     112.535 127.745 136.806  0.00  0.00    +0.000 OA
BRANCH  20  25
ATOM     21  O   UNL     1     113.474 129.615 137.424  0.00  0.00    +0.000 OA
ATOM     22  O   UNL     1     113.213 128.238 135.384  0.00  0.00    +0.000 OA
ATOM     23  O   UNL     1     113.981 129.184 134.612  0.00  0.00    +0.000 OA
ATOM     24  O   UNL     1     115.034 131.568 135.929  0.00  0.00    +0.000 OA
ATOM     25  C   UNL     1     112.961 128.450 136.775  0.00  0.00    +0.000 A 
ATOM     26  C   UNL     1     113.048 128.909 137.454  0.00  0.00    +0.000 A 
ATOM     27  C   UNL     1     113.300 128.697 136.064  0.00  0.00    +0.000 A 
ATOM     28  C   UNL     1     113.726 129.403 136.033  0.00  0.00    +0.000 A 
ATOM     29  C   UNL     1     113.813 129.862 136.713  0.00  0.00    +0.000 A 
ATOM     30  C   UNL     1     114.074 129.650 135.286  0.00  0.00    +0.000 A 
ATOM     31  C   UNL     1     114.254 130.599 136.694  0.00  0.00    +0.000 A 
ATOM     32  C   UNL     1     114.519 130.384 135.249  0.00  0.00    +0.000 A 
ATOM     33  C   UNL     1     114.609 130.861 135.957  0.00  0.00    +0.000 A 
BRANCH  26  36
ATOM     34  O   UNL     1     110.916 129.027 139.354  0.00  0.00    +0.000 OA
ATOM     35  O   UNL     1     111.697 127.922 140.299  0.00  0.00    +0.000 OA
ATOM     36  C   UNL     1     112.710 128.663 138.165  0.00  0.00    +0.000 A 
ATOM     37  C   UNL     1     111.982 128.968 138.404  0.00  0.00    +0.000 A 
ATOM     38  C   UNL     1     113.100 128.110 138.638  0.00  0.00    +0.000 A 
ATOM     39  C   UNL     1     111.644 128.721 139.115  0.00  0.00    +0.000 A 
ATOM     40  C   UNL     1     112.763 127.863 139.349  0.00  0.00    +0.000 A 
ATOM     41  C   UNL     1     112.034 128.169 139.588  0.00  0.00    +0.000 A 
ENDBRANCH  26  36
ENDBRANCH  20  25
ENDBRANCH   8  20
BRANCH   7  42
ATOM     42  C   UNL     1     110.203 128.714 135.469  0.00  0.00    +0.000 C 
BRANCH  42  43
ATOM     43  O   UNL     1     109.673 128.951 136.056  0.00  0.00    +0.000 OA
BRANCH  43  48
ATOM     44  O   UNL     1     109.894 130.363 136.099  0.00  0.00    +0.000 OA
ATOM     45  O   UNL     1     108.046 129.208 135.968  0.00  0.00    +0.000 OA
ATOM     46  O   UNL     1     107.452 130.748 135.967  0.00  0.00    +0.000 OA
ATOM     47  O   UNL     1     108.486 132.030 136.054  0.00  0.00    +0.000 OA
ATOM     48  C   UNL     1     109.376 129.721 136.055  0.00  0.00    +0.000 C 
ATOM     49  C   UNL     1     108.562 129.849 136.011  0.00  0.00    +0.000 C 
ATOM     50  C   UNL     1     108.266 130.620 136.011  0.00  0.00    +0.000 C 
ATOM     51  C   UNL     1     108.783 131.260 136.054  0.00  0.00    +0.000 C 
ATOM     52  C   UNL     1     109.596 131.132 136.098  0.00  0.00    +0.000 C 
BRANCH  52  54
ATOM     53  O   UNL     1     110.783 131.730 136.624  0.00  0.00    +0.000 OA
ATOM     54  C   UNL     1     110.114 131.773 136.142  0.00  0.00    +0.000 C 
ENDBRANCH  52  54
ENDBRANCH  43  48
ENDBRANCH  42  43
ENDBRANCH   7  42
TORSDOF 9
ENDMDL
MODEL 9
REMARK VINA RESULT:     -10.6      1.632      5.286
REMARK  Name = 44259163
REMARK  9 active torsions:
REMARK  status: ('A' for Active; 'I' for Inactive)
REMARK    1  A    between atoms: O_1  and  C_22
REMARK    2  A    between atoms: O_1  and  C_27
REMARK    3  A    between atoms: O_4  and  C_30
REMARK    4  A    between atoms: O_4  and  C_33
REMARK    5  A    between atoms: O_6  and  C_26
REMARK    6  A    between atoms: O_6  and  C_40
REMARK    7  A    between atoms: C_25  and  C_30
REMARK    8  A    between atoms: C_37  and  C_39
REMARK    9  A    between atoms: C_41  and  C_44
REMARK                            x       y       z     vdW  Elec       q    Type
REMARK                         _______ _______ _______ _____ _____    ______ ____
ROOT
ATOM      1  O   UNL     1     111.518 128.850 137.389  0.00  0.00    +0.000 OA
ATOM      2  O   UNL     1     112.418 127.931 135.275  0.00  0.00    +0.000 OA
ATOM      3  O   UNL     1     111.434 129.255 135.246  0.00  0.00    +0.000 OA
ATOM      4  C   UNL     1     112.310 127.882 136.698  0.00  0.00    +0.000 C 
ATOM      5  C   UNL     1     112.118 128.238 135.979  0.00  0.00    +0.000 C 
ATOM      6  C   UNL     1     111.626 128.900 135.964  0.00  0.00    +0.000 C 
ATOM      7  C   UNL     1     111.326 129.206 136.669  0.00  0.00    +0.000 C 
ATOM      8  C   UNL     1     112.010 128.188 137.403  0.00  0.00    +0.000 C 
ENDROOT
BRANCH   4   9
ATOM      9  O   UNL     1     112.802 127.220 136.713  0.00  0.00    +0.000 OA
BRANCH   9  14
ATOM     10  O   UNL     1     111.696 126.391 136.348  0.00  0.00    +0.000 OA
ATOM     11  O   UNL     1     113.781 125.893 136.760  0.00  0.00    +0.000 OA
ATOM     12  O   UNL     1     113.165 124.401 136.418  0.00  0.00    +0.000 OA
ATOM     13  O   UNL     1     111.570 124.236 136.029  0.00  0.00    +0.000 OA
ATOM     14  C   UNL     1     112.494 126.474 136.542  0.00  0.00    +0.000 C 
ATOM     15  C   UNL     1     112.983 125.810 136.565  0.00  0.00    +0.000 C 
ATOM     16  C   UNL     1     112.675 125.064 136.394  0.00  0.00    +0.000 C 
ATOM     17  C   UNL     1     111.878 124.982 136.200  0.00  0.00    +0.000 C 
ATOM     18  C   UNL     1     111.388 125.645 136.177  0.00  0.00    +0.000 C 
ATOM     19  C   UNL     1     110.591 125.563 135.982  0.00  0.00    +0.000 C 
ENDBRANCH   9  14
ENDBRANCH   4   9
BRANCH   8  20
ATOM     20  O   UNL     1     112.201 127.833 138.123  0.00  0.00    +0.000 OA
BRANCH  20  25
ATOM     21  O   UNL     1     112.065 128.645 140.143  0.00  0.00    +0.000 OA
ATOM     22  O   UNL     1     113.360 129.006 138.066  0.00  0.00    +0.000 OA
ATOM     23  O   UNL     1     114.109 130.073 138.684  0.00  0.00    +0.000 OA
ATOM     24  O   UNL     1     113.536 130.788 141.457  0.00  0.00    +0.000 OA
ATOM     25  C   UNL     1     112.349 128.299 138.787  0.00  0.00    +0.000 A 
ATOM     26  C   UNL     1     111.918 128.178 139.479  0.00  0.00    +0.000 A 
ATOM     27  C   UNL     1     112.929 128.886 138.758  0.00  0.00    +0.000 A 
ATOM     28  C   UNL     1     113.076 129.352 139.423  0.00  0.00    +0.000 A 
ATOM     29  C   UNL     1     112.644 129.231 140.116  0.00  0.00    +0.000 A 
ATOM     30  C   UNL     1     113.682 129.960 139.381  0.00  0.00    +0.000 A 
ATOM     31  C   UNL     1     112.789 129.710 140.814  0.00  0.00    +0.000 A 
ATOM     32  C   UNL     1     113.840 130.449 140.070  0.00  0.00    +0.000 A 
ATOM     33  C   UNL     1     113.391 130.323 140.791  0.00  0.00    +0.000 A 
BRANCH  26  36
ATOM     34  O   UNL     1     109.175 127.395 139.291  0.00  0.00    +0.000 OA
ATOM     35  O   UNL     1     109.602 125.830 139.595  0.00  0.00    +0.000 OA
ATOM     36  C   UNL     1     111.338 127.592 139.508  0.00  0.00    +0.000 A 
ATOM     37  C   UNL     1     110.546 127.787 139.385  0.00  0.00    +0.000 A 
ATOM     38  C   UNL     1     111.551 126.809 139.660  0.00  0.00    +0.000 A 
ATOM     39  C   UNL     1     109.967 127.200 139.414  0.00  0.00    +0.000 A 
ATOM     40  C   UNL     1     110.973 126.222 139.689  0.00  0.00    +0.000 A 
ATOM     41  C   UNL     1     110.180 126.418 139.566  0.00  0.00    +0.000 A 
ENDBRANCH  26  36
ENDBRANCH  20  25
ENDBRANCH   8  20
BRANCH   7  42
ATOM     42  C   UNL     1     110.834 129.868 136.655  0.00  0.00    +0.000 C 
BRANCH  42  43
ATOM     43  O   UNL     1     110.076 129.825 136.980  0.00  0.00    +0.000 OA
BRANCH  43  48
ATOM     44  O   UNL     1     110.109 131.029 137.749  0.00  0.00    +0.000 OA
ATOM     45  O   UNL     1     108.525 130.158 136.525  0.00  0.00    +0.000 OA
ATOM     46  O   UNL     1     107.783 131.529 137.066  0.00  0.00    +0.000 OA
ATOM     47  O   UNL     1     108.591 132.565 138.062  0.00  0.00    +0.000 OA
ATOM     48  C   UNL     1     109.704 130.510 137.250  0.00  0.00    +0.000 C 
ATOM     49  C   UNL     1     108.929 130.677 137.023  0.00  0.00    +0.000 C 
ATOM     50  C   UNL     1     108.558 131.362 137.294  0.00  0.00    +0.000 C 
ATOM     51  C   UNL     1     108.962 131.880 137.792  0.00  0.00    +0.000 C 
ATOM     52  C   UNL     1     109.737 131.714 138.019  0.00  0.00    +0.000 C 
BRANCH  52  54
ATOM     53  O   UNL     1     110.661 131.935 139.086  0.00  0.00    +0.000 OA
ATOM     54  C   UNL     1     110.142 132.232 138.517  0.00  0.00    +0.000 C 
ENDBRANCH  52  54
ENDBRANCH  43  48
ENDBRANCH  42  43
ENDBRANCH   7  42
TORSDOF 9
ENDMDL
MODEL 10
REMARK VINA RESULT:     -10.6      1.426      5.043
REMARK  Name = 44259163
REMARK  9 active torsions:
REMARK  status: ('A' for Active; 'I' for Inactive)
REMARK    1  A    between atoms: O_1  and  C_22
REMARK    2  A    between atoms: O_1  and  C_27
REMARK    3  A    between atoms: O_4  and  C_30
REMARK    4  A    between atoms: O_4  and  C_33
REMARK    5  A    between atoms: O_6  and  C_26
REMARK    6  A    between atoms: O_6  and  C_40
REMARK    7  A    between atoms: C_25  and  C_30
REMARK    8  A    between atoms: C_37  and  C_39
REMARK    9  A    between atoms: C_41  and  C_44
REMARK                            x       y       z     vdW  Elec       q    Type
REMARK                         _______ _______ _______ _____ _____    ______ ____
ROOT
ATOM      1  O   UNL     1     111.533 129.538 137.898  0.00  0.00    +0.000 OA
ATOM      2  O   UNL     1     111.476 129.821 140.356  0.00  0.00    +0.000 OA
ATOM      3  O   UNL     1     110.406 130.642 139.406  0.00  0.00    +0.000 OA
ATOM      4  C   UNL     1     112.048 129.222 139.192  0.00  0.00    +0.000 C 
ATOM      5  C   UNL     1     111.495 129.727 139.537  0.00  0.00    +0.000 C 
ATOM      6  C   UNL     1     110.959 130.138 139.062  0.00  0.00    +0.000 C 
ATOM      7  C   UNL     1     110.978 130.044 138.243  0.00  0.00    +0.000 C 
ATOM      8  C   UNL     1     112.067 129.128 138.373  0.00  0.00    +0.000 C 
ENDROOT
BRANCH   4   9
ATOM      9  O   UNL     1     112.584 128.811 139.667  0.00  0.00    +0.000 OA
BRANCH   9  14
ATOM     10  O   UNL     1     111.601 127.802 139.910  0.00  0.00    +0.000 OA
ATOM     11  O   UNL     1     113.589 128.095 140.762  0.00  0.00    +0.000 OA
ATOM     12  O   UNL     1     113.109 126.729 141.553  0.00  0.00    +0.000 OA
ATOM     13  O   UNL     1     111.624 126.078 141.248  0.00  0.00    +0.000 OA
ATOM     14  C   UNL     1     112.344 128.128 140.062  0.00  0.00    +0.000 C 
ATOM     15  C   UNL     1     112.846 127.769 140.610  0.00  0.00    +0.000 C 
ATOM     16  C   UNL     1     112.606 127.086 141.005  0.00  0.00    +0.000 C 
ATOM     17  C   UNL     1     111.864 126.761 140.853  0.00  0.00    +0.000 C 
ATOM     18  C   UNL     1     111.360 127.119 140.305  0.00  0.00    +0.000 C 
ATOM     19  C   UNL     1     110.618 126.794 140.153  0.00  0.00    +0.000 C 
ENDBRANCH   9  14
ENDBRANCH   4   9
BRANCH   8  20
ATOM     20  O   UNL     1     112.622 128.622 138.028  0.00  0.00    +0.000 OA
BRANCH  20  25
ATOM     21  O   UNL     1     113.447 128.619 136.008  0.00  0.00    +0.000 OA
ATOM     22  O   UNL     1     113.440 130.056 138.023  0.00  0.00    +0.000 OA
ATOM     23  O   UNL     1     114.268 131.035 137.363  0.00  0.00    +0.000 OA
ATOM     24  O   UNL     1     115.120 130.552 134.612  0.00  0.00    +0.000 OA
ATOM     25  C   UNL     1     113.033 128.860 137.354  0.00  0.00    +0.000 A 
ATOM     26  C   UNL     1     113.036 128.381 136.683  0.00  0.00    +0.000 A 
ATOM     27  C   UNL     1     113.442 129.577 137.352  0.00  0.00    +0.000 A 
ATOM     28  C   UNL     1     113.854 129.815 136.677  0.00  0.00    +0.000 A 
ATOM     29  C   UNL     1     113.856 129.335 136.005  0.00  0.00    +0.000 A 
ATOM     30  C   UNL     1     114.276 130.564 136.687  0.00  0.00    +0.000 A 
ATOM     31  C   UNL     1     114.281 129.572 135.297  0.00  0.00    +0.000 A 
ATOM     32  C   UNL     1     114.706 130.816 135.987  0.00  0.00    +0.000 A 
ATOM     33  C   UNL     1     114.709 130.317 135.288  0.00  0.00    +0.000 A 
BRANCH  26  36
ATOM     34  O   UNL     1     110.697 126.863 136.057  0.00  0.00    +0.000 OA
ATOM     35  O   UNL     1     111.403 125.513 136.692  0.00  0.00    +0.000 OA
ATOM     36  C   UNL     1     112.627 127.665 136.685  0.00  0.00    +0.000 A 
ATOM     37  C   UNL     1     111.866 127.622 136.370  0.00  0.00    +0.000 A 
ATOM     38  C   UNL     1     112.980 126.990 137.002  0.00  0.00    +0.000 A 
ATOM     39  C   UNL     1     111.458 126.905 136.372  0.00  0.00    +0.000 A 
ATOM     40  C   UNL     1     112.573 126.273 137.005  0.00  0.00    +0.000 A 
ATOM     41  C   UNL     1     111.811 126.231 136.689  0.00  0.00    +0.000 A 
ENDBRANCH  26  36
ENDBRANCH  20  25
ENDBRANCH   8  20
BRANCH   7  42
ATOM     42  C   UNL     1     110.443 130.454 137.767  0.00  0.00    +0.000 C 
BRANCH  42  43
ATOM     43  O   UNL     1     109.991 130.047 137.210  0.00  0.00    +0.000 OA
BRANCH  43  48
ATOM     44  O   UNL     1     109.671 131.224 136.466  0.00  0.00    +0.000 OA
ATOM     45  O   UNL     1     108.579 129.351 136.715  0.00  0.00    +0.000 OA
ATOM     46  O   UNL     1     107.553 130.180 135.723  0.00  0.00    +0.000 OA
ATOM     47  O   UNL     1     107.940 131.705 135.228  0.00  0.00    +0.000 OA
ATOM     48  C   UNL     1     109.478 130.461 136.714  0.00  0.00    +0.000 C 
ATOM     49  C   UNL     1     108.772 130.113 136.467  0.00  0.00    +0.000 C 
ATOM     50  C   UNL     1     108.259 130.528 135.971  0.00  0.00    +0.000 C 
ATOM     51  C   UNL     1     108.452 131.290 135.723  0.00  0.00    +0.000 C 
ATOM     52  C   UNL     1     109.158 131.638 135.971  0.00  0.00    +0.000 C 
BRANCH  52  54
ATOM     53  O   UNL     1     109.766 132.906 136.228  0.00  0.00    +0.000 OA
ATOM     54  C   UNL     1     109.351 132.401 135.723  0.00  0.00    +0.000 C 
ENDBRANCH  52  54
ENDBRANCH  43  48
ENDBRANCH  42  43
ENDBRANCH   7  42
TORSDOF 9
ENDMDL
