MODEL 1
REMARK VINA RESULT:      -9.2      0.000      0.000
REMARK  Name = 131835071
REMARK  5 active torsions:
REMARK  status: ('A' for Active; 'I' for Inactive)
REMARK    1  A    between atoms: O_2  and  C_19
REMARK    2  A    between atoms: O_2  and  C_21
REMARK    3  A    between atoms: O_8  and  C_22
REMARK    4  A    between atoms: C_18  and  C_20
REMARK    5  A    between atoms: C_24  and  C_27
REMARK                            x       y       z     vdW  Elec       q    Type
REMARK                         _______ _______ _______ _____ _____    ______ ____
ROOT
ATOM      1  C   UNL     1     111.771 129.477 136.181  0.00  0.00    +0.000 A 
ATOM      2  C   UNL     1     112.197 129.065 135.608  0.00  0.00    +0.000 A 
ATOM      3  C   UNL     1     111.423 129.071 136.809  0.00  0.00    +0.000 A 
ATOM      4  C   UNL     1     111.927 127.838 136.290  0.00  0.00    +0.000 A 
ATOM      5  C   UNL     1     112.275 128.245 135.662  0.00  0.00    +0.000 A 
ATOM      6  C   UNL     1     111.501 128.252 136.864  0.00  0.00    +0.000 A 
ENDROOT
BRANCH   4  13
ATOM      7  O   UNL     1     112.699 126.690 136.648  0.00  0.00    +0.000 OA
ATOM      8  O   UNL     1     110.698 126.857 135.791  0.00  0.00    +0.000 OA
ATOM      9  O   UNL     1     110.854 125.218 135.900  0.00  0.00    +0.000 OA
ATOM     10  O   UNL     1     111.612 124.043 136.253  0.00  0.00    +0.000 OA
ATOM     11  O   UNL     1     113.026 123.357 136.874  0.00  0.00    +0.000 OA
ATOM     12  O   UNL     1     114.285 124.362 137.384  0.00  0.00    +0.000 OA
ATOM     13  C   UNL     1     112.006 127.019 136.344  0.00  0.00    +0.000 A 
ATOM     14  C   UNL     1     111.391 126.529 136.095  0.00  0.00    +0.000 A 
ATOM     15  C   UNL     1     112.162 125.380 136.453  0.00  0.00    +0.000 A 
ATOM     16  C   UNL     1     112.777 125.871 136.703  0.00  0.00    +0.000 A 
ATOM     17  C   UNL     1     111.469 125.709 136.149  0.00  0.00    +0.000 A 
ATOM     18  C   UNL     1     112.231 124.525 136.505  0.00  0.00    +0.000 A 
ATOM     19  C   UNL     1     113.504 125.539 137.021  0.00  0.00    +0.000 A 
ATOM     20  C   UNL     1     112.950 124.177 136.820  0.00  0.00    +0.000 A 
ATOM     21  C   UNL     1     113.591 124.687 137.080  0.00  0.00    +0.000 A 
ENDBRANCH   4  13
BRANCH   2  22
ATOM     22  O   UNL     1     112.545 129.471 134.979  0.00  0.00    +0.000 OA
ATOM     23  C   UNL     1     113.224 129.173 134.620  0.00  0.00    +0.000 C 
ENDBRANCH   2  22
BRANCH   1  24
ATOM     24  O   UNL     1     111.693 130.297 136.126  0.00  0.00    +0.000 OA
BRANCH  24  33
ATOM     25  O   UNL     1     110.313 130.365 135.762  0.00  0.00    +0.000 OA
ATOM     26  O   UNL     1     109.994 132.259 137.323  0.00  0.00    +0.000 OA
ATOM     27  O   UNL     1     108.722 131.696 136.438  0.00  0.00    +0.000 OA
ATOM     28  O   UNL     1     111.481 131.559 137.167  0.00  0.00    +0.000 OA
ATOM     29  C   UNL     1     110.101 131.628 136.802  0.00  0.00    +0.000 C 
ATOM     30  C   UNL     1     109.464 131.347 136.360  0.00  0.00    +0.000 C 
ATOM     31  C   UNL     1     110.844 131.278 136.725  0.00  0.00    +0.000 C 
ATOM     32  C   UNL     1     109.570 130.715 135.840  0.00  0.00    +0.000 C 
ATOM     33  C   UNL     1     110.950 130.647 136.205  0.00  0.00    +0.000 C 
BRANCH  32  36
ATOM     34  O   UNL     1     108.391 129.914 135.740  0.00  0.00    +0.000 OA
ATOM     35  O   UNL     1     108.840 130.670 134.613  0.00  0.00    +0.000 OA
ATOM     36  C   UNL     1     108.934 130.433 135.397  0.00  0.00    +0.000 C 
ENDBRANCH  32  36
ENDBRANCH  24  33
ENDBRANCH   1  24
TORSDOF 5
ENDMDL
MODEL 2
REMARK VINA RESULT:      -9.2      3.961      4.812
REMARK  Name = 131835071
REMARK  5 active torsions:
REMARK  status: ('A' for Active; 'I' for Inactive)
REMARK    1  A    between atoms: O_2  and  C_19
REMARK    2  A    between atoms: O_2  and  C_21
REMARK    3  A    between atoms: O_8  and  C_22
REMARK    4  A    between atoms: C_18  and  C_20
REMARK    5  A    between atoms: C_24  and  C_27
REMARK                            x       y       z     vdW  Elec       q    Type
REMARK                         _______ _______ _______ _____ _____    ______ ____
ROOT
ATOM      1  C   UNL     1     113.480 128.410 140.477  0.00  0.00    +0.000 A 
ATOM      2  C   UNL     1     113.840 127.671 140.534  0.00  0.00    +0.000 A 
ATOM      3  C   UNL     1     112.893 128.542 139.911  0.00  0.00    +0.000 A 
ATOM      4  C   UNL     1     113.029 127.192 139.459  0.00  0.00    +0.000 A 
ATOM      5  C   UNL     1     113.614 127.062 140.025  0.00  0.00    +0.000 A 
ATOM      6  C   UNL     1     112.668 127.932 139.402  0.00  0.00    +0.000 A 
ENDROOT
BRANCH   4  13
ATOM      7  O   UNL     1     113.312 126.339 138.349  0.00  0.00    +0.000 OA
ATOM      8  O   UNL     1     111.561 126.462 139.646  0.00  0.00    +0.000 OA
ATOM      9  O   UNL     1     111.110 125.244 138.629  0.00  0.00    +0.000 OA
ATOM     10  O   UNL     1     111.370 124.370 137.511  0.00  0.00    +0.000 OA
ATOM     11  O   UNL     1     112.403 123.862 136.274  0.00  0.00    +0.000 OA
ATOM     12  O   UNL     1     113.906 124.609 136.083  0.00  0.00    +0.000 OA
ATOM     13  C   UNL     1     112.803 126.583 138.951  0.00  0.00    +0.000 A 
ATOM     14  C   UNL     1     112.070 126.218 139.044  0.00  0.00    +0.000 A 
ATOM     15  C   UNL     1     112.352 125.365 137.933  0.00  0.00    +0.000 A 
ATOM     16  C   UNL     1     113.087 125.730 137.840  0.00  0.00    +0.000 A 
ATOM     17  C   UNL     1     111.844 125.609 138.535  0.00  0.00    +0.000 A 
ATOM     18  C   UNL     1     112.106 124.729 137.410  0.00  0.00    +0.000 A 
ATOM     19  C   UNL     1     113.625 125.484 137.216  0.00  0.00    +0.000 A 
ATOM     20  C   UNL     1     112.631 124.471 136.781  0.00  0.00    +0.000 A 
ATOM     21  C   UNL     1     113.396 124.851 136.683  0.00  0.00    +0.000 A 
ENDBRANCH   4  13
BRANCH   2  22
ATOM     22  O   UNL     1     114.426 127.539 141.100  0.00  0.00    +0.000 OA
ATOM     23  C   UNL     1     114.961 126.920 141.004  0.00  0.00    +0.000 C 
ENDBRANCH   2  22
BRANCH   1  24
ATOM     24  O   UNL     1     113.705 129.019 140.986  0.00  0.00    +0.000 OA
BRANCH  24  33
ATOM     25  O   UNL     1     112.605 128.938 141.894  0.00  0.00    +0.000 OA
ATOM     26  O   UNL     1     112.524 131.408 142.017  0.00  0.00    +0.000 OA
ATOM     27  O   UNL     1     111.452 130.504 142.884  0.00  0.00    +0.000 OA
ATOM     28  O   UNL     1     113.651 130.666 141.067  0.00  0.00    +0.000 OA
ATOM     29  C   UNL     1     112.551 130.585 141.976  0.00  0.00    +0.000 C 
ATOM     30  C   UNL     1     112.015 130.133 142.410  0.00  0.00    +0.000 C 
ATOM     31  C   UNL     1     113.115 130.214 141.501  0.00  0.00    +0.000 C 
ATOM     32  C   UNL     1     112.042 129.309 142.369  0.00  0.00    +0.000 C 
ATOM     33  C   UNL     1     113.142 129.391 141.460  0.00  0.00    +0.000 C 
BRANCH  32  36
ATOM     34  O   UNL     1     110.752 128.710 142.500  0.00  0.00    +0.000 OA
ATOM     35  O   UNL     1     111.723 128.550 143.537  0.00  0.00    +0.000 OA
ATOM     36  C   UNL     1     111.506 128.856 142.802  0.00  0.00    +0.000 C 
ENDBRANCH  32  36
ENDBRANCH  24  33
ENDBRANCH   1  24
TORSDOF 5
ENDMDL
MODEL 3
REMARK VINA RESULT:      -9.2      1.222      5.849
REMARK  Name = 131835071
REMARK  5 active torsions:
REMARK  status: ('A' for Active; 'I' for Inactive)
REMARK    1  A    between atoms: O_2  and  C_19
REMARK    2  A    between atoms: O_2  and  C_21
REMARK    3  A    between atoms: O_8  and  C_22
REMARK    4  A    between atoms: C_18  and  C_20
REMARK    5  A    between atoms: C_24  and  C_27
REMARK                            x       y       z     vdW  Elec       q    Type
REMARK                         _______ _______ _______ _____ _____    ______ ____
ROOT
ATOM      1  C   UNL     1     112.300 127.711 136.981  0.00  0.00    +0.000 A 
ATOM      2  C   UNL     1     111.924 128.164 137.558  0.00  0.00    +0.000 A 
ATOM      3  C   UNL     1     112.018 127.711 136.205  0.00  0.00    +0.000 A 
ATOM      4  C   UNL     1     110.981 128.619 136.585  0.00  0.00    +0.000 A 
ATOM      5  C   UNL     1     111.264 128.618 137.360  0.00  0.00    +0.000 A 
ATOM      6  C   UNL     1     111.358 128.165 136.008  0.00  0.00    +0.000 A 
ENDROOT
BRANCH   4  13
ATOM      7  O   UNL     1     110.405 129.881 136.244  0.00  0.00    +0.000 OA
ATOM      8  O   UNL     1     109.494 127.911 136.478  0.00  0.00    +0.000 OA
ATOM      9  O   UNL     1     108.174 128.819 136.083  0.00  0.00    +0.000 OA
ATOM     10  O   UNL     1     107.567 130.081 135.736  0.00  0.00    +0.000 OA
ATOM     11  O   UNL     1     107.726 131.737 135.439  0.00  0.00    +0.000 OA
ATOM     12  O   UNL     1     109.248 132.461 135.549  0.00  0.00    +0.000 OA
ATOM     13  C   UNL     1     110.321 129.073 136.388  0.00  0.00    +0.000 A 
ATOM     14  C   UNL     1     109.578 128.719 136.334  0.00  0.00    +0.000 A 
ATOM     15  C   UNL     1     109.001 129.981 135.993  0.00  0.00    +0.000 A 
ATOM     16  C   UNL     1     109.745 130.335 136.046  0.00  0.00    +0.000 A 
ATOM     17  C   UNL     1     108.918 129.173 136.137  0.00  0.00    +0.000 A 
ATOM     18  C   UNL     1     108.307 130.443 135.788  0.00  0.00    +0.000 A 
ATOM     19  C   UNL     1     109.844 131.176 135.898  0.00  0.00    +0.000 A 
ATOM     20  C   UNL     1     108.387 131.285 135.637  0.00  0.00    +0.000 A 
ATOM     21  C   UNL     1     109.161 131.654 135.692  0.00  0.00    +0.000 A 
ENDBRANCH   4  13
BRANCH   2  22
ATOM     22  O   UNL     1     112.207 128.164 138.333  0.00  0.00    +0.000 OA
ATOM     23  C   UNL     1     112.082 128.818 138.818  0.00  0.00    +0.000 C 
ENDBRANCH   2  22
BRANCH   1  24
ATOM     24  O   UNL     1     112.960 127.257 137.178  0.00  0.00    +0.000 OA
BRANCH  24  33
ATOM     25  O   UNL     1     112.317 125.981 137.171  0.00  0.00    +0.000 OA
ATOM     26  O   UNL     1     114.329 124.972 136.142  0.00  0.00    +0.000 OA
ATOM     27  O   UNL     1     113.016 124.033 136.478  0.00  0.00    +0.000 OA
ATOM     28  O   UNL     1     114.302 126.584 136.492  0.00  0.00    +0.000 OA
ATOM     29  C   UNL     1     113.658 125.308 136.485  0.00  0.00    +0.000 C 
ATOM     30  C   UNL     1     113.002 124.839 136.653  0.00  0.00    +0.000 C 
ATOM     31  C   UNL     1     113.645 126.115 136.660  0.00  0.00    +0.000 C 
ATOM     32  C   UNL     1     112.331 125.175 136.996  0.00  0.00    +0.000 C 
ATOM     33  C   UNL     1     112.975 126.451 137.003  0.00  0.00    +0.000 C 
BRANCH  32  36
ATOM     34  O   UNL     1     111.546 124.436 137.934  0.00  0.00    +0.000 OA
ATOM     35  O   UNL     1     111.145 124.505 136.563  0.00  0.00    +0.000 OA
ATOM     36  C   UNL     1     111.674 124.705 137.164  0.00  0.00    +0.000 C 
ENDBRANCH  32  36
ENDBRANCH  24  33
ENDBRANCH   1  24
TORSDOF 5
ENDMDL
MODEL 4
REMARK VINA RESULT:      -9.1      1.295      2.466
REMARK  Name = 131835071
REMARK  5 active torsions:
REMARK  status: ('A' for Active; 'I' for Inactive)
REMARK    1  A    between atoms: O_2  and  C_19
REMARK    2  A    between atoms: O_2  and  C_21
REMARK    3  A    between atoms: O_8  and  C_22
REMARK    4  A    between atoms: C_18  and  C_20
REMARK    5  A    between atoms: C_24  and  C_27
REMARK                            x       y       z     vdW  Elec       q    Type
REMARK                         _______ _______ _______ _____ _____    ______ ____
ROOT
ATOM      1  C   UNL     1     109.676 127.762 136.931  0.00  0.00    +0.000 A 
ATOM      2  C   UNL     1     109.828 127.324 137.613  0.00  0.00    +0.000 A 
ATOM      3  C   UNL     1     110.139 127.651 136.257  0.00  0.00    +0.000 A 
ATOM      4  C   UNL     1     110.906 126.661 136.948  0.00  0.00    +0.000 A 
ATOM      5  C   UNL     1     110.442 126.773 137.621  0.00  0.00    +0.000 A 
ATOM      6  C   UNL     1     110.754 127.100 136.266  0.00  0.00    +0.000 A 
ENDROOT
BRANCH   4  13
ATOM      7  O   UNL     1     112.231 126.294 137.334  0.00  0.00    +0.000 OA
ATOM      8  O   UNL     1     110.713 125.198 136.212  0.00  0.00    +0.000 OA
ATOM      9  O   UNL     1     111.942 124.097 136.229  0.00  0.00    +0.000 OA
ATOM     10  O   UNL     1     113.277 123.701 136.605  0.00  0.00    +0.000 OA
ATOM     11  O   UNL     1     114.738 124.061 137.374  0.00  0.00    +0.000 OA
ATOM     12  O   UNL     1     114.935 125.560 138.128  0.00  0.00    +0.000 OA
ATOM     13  C   UNL     1     111.520 126.111 136.957  0.00  0.00    +0.000 A 
ATOM     14  C   UNL     1     111.424 125.380 136.589  0.00  0.00    +0.000 A 
ATOM     15  C   UNL     1     112.750 125.011 136.974  0.00  0.00    +0.000 A 
ATOM     16  C   UNL     1     112.846 125.743 137.342  0.00  0.00    +0.000 A 
ATOM     17  C   UNL     1     112.039 124.830 136.597  0.00  0.00    +0.000 A 
ATOM     18  C   UNL     1     113.382 124.430 136.976  0.00  0.00    +0.000 A 
ATOM     19  C   UNL     1     113.582 125.944 137.738  0.00  0.00    +0.000 A 
ATOM     20  C   UNL     1     114.125 124.613 137.367  0.00  0.00    +0.000 A 
ATOM     21  C   UNL     1     114.226 125.375 137.751  0.00  0.00    +0.000 A 
ENDBRANCH   4  13
BRANCH   2  22
ATOM     22  O   UNL     1     109.365 127.435 138.287  0.00  0.00    +0.000 OA
ATOM     23  C   UNL     1     109.523 127.005 138.972  0.00  0.00    +0.000 C 
ENDBRANCH   2  22
BRANCH   1  24
ATOM     24  O   UNL     1     109.062 128.312 136.923  0.00  0.00    +0.000 OA
BRANCH  24  33
ATOM     25  O   UNL     1     109.838 129.511 136.904  0.00  0.00    +0.000 OA
ATOM     26  O   UNL     1     108.298 130.483 135.228  0.00  0.00    +0.000 OA
ATOM     27  O   UNL     1     109.588 131.357 135.768  0.00  0.00    +0.000 OA
ATOM     28  O   UNL     1     108.035 128.960 135.805  0.00  0.00    +0.000 OA
ATOM     29  C   UNL     1     108.812 130.159 135.786  0.00  0.00    +0.000 C 
ATOM     30  C   UNL     1     109.456 130.596 136.056  0.00  0.00    +0.000 C 
ATOM     31  C   UNL     1     108.679 129.397 136.075  0.00  0.00    +0.000 C 
ATOM     32  C   UNL     1     109.970 130.272 136.615  0.00  0.00    +0.000 C 
ATOM     33  C   UNL     1     109.193 129.073 136.633  0.00  0.00    +0.000 C 
BRANCH  32  36
ATOM     34  O   UNL     1     110.567 131.114 137.603  0.00  0.00    +0.000 OA
ATOM     35  O   UNL     1     111.307 130.743 136.438  0.00  0.00    +0.000 OA
ATOM     36  C   UNL     1     110.615 130.710 136.885  0.00  0.00    +0.000 C 
ENDBRANCH  32  36
ENDBRANCH  24  33
ENDBRANCH   1  24
TORSDOF 5
ENDMDL
MODEL 5
REMARK VINA RESULT:      -9.1      2.330      6.227
REMARK  Name = 131835071
REMARK  5 active torsions:
REMARK  status: ('A' for Active; 'I' for Inactive)
REMARK    1  A    between atoms: O_2  and  C_19
REMARK    2  A    between atoms: O_2  and  C_21
REMARK    3  A    between atoms: O_8  and  C_22
REMARK    4  A    between atoms: C_18  and  C_20
REMARK    5  A    between atoms: C_24  and  C_27
REMARK                            x       y       z     vdW  Elec       q    Type
REMARK                         _______ _______ _______ _____ _____    ______ ____
ROOT
ATOM      1  C   UNL     1     112.624 126.738 138.878  0.00  0.00    +0.000 A 
ATOM      2  C   UNL     1     112.073 126.828 139.484  0.00  0.00    +0.000 A 
ATOM      3  C   UNL     1     112.624 127.260 138.238  0.00  0.00    +0.000 A 
ATOM      4  C   UNL     1     111.519 127.961 138.813  0.00  0.00    +0.000 A 
ATOM      5  C   UNL     1     111.520 127.440 139.452  0.00  0.00    +0.000 A 
ATOM      6  C   UNL     1     112.071 127.871 138.205  0.00  0.00    +0.000 A 
ENDROOT
BRANCH   4  13
ATOM      7  O   UNL     1     111.093 129.267 139.207  0.00  0.00    +0.000 OA
ATOM      8  O   UNL     1     110.158 127.795 137.894  0.00  0.00    +0.000 OA
ATOM      9  O   UNL     1     109.052 129.018 137.829  0.00  0.00    +0.000 OA
ATOM     10  O   UNL     1     108.599 130.333 138.211  0.00  0.00    +0.000 OA
ATOM     11  O   UNL     1     108.849 131.760 139.081  0.00  0.00    +0.000 OA
ATOM     12  O   UNL     1     110.242 131.930 140.022  0.00  0.00    +0.000 OA
ATOM     13  C   UNL     1     110.966 128.573 138.780  0.00  0.00    +0.000 A 
ATOM     14  C   UNL     1     110.286 128.490 138.321  0.00  0.00    +0.000 A 
ATOM     15  C   UNL     1     109.860 129.795 138.715  0.00  0.00    +0.000 A 
ATOM     16  C   UNL     1     110.540 129.878 139.175  0.00  0.00    +0.000 A 
ATOM     17  C   UNL     1     109.733 129.101 138.288  0.00  0.00    +0.000 A 
ATOM     18  C   UNL     1     109.276 130.425 138.673  0.00  0.00    +0.000 A 
ATOM     19  C   UNL     1     110.684 130.597 139.624  0.00  0.00    +0.000 A 
ATOM     20  C   UNL     1     109.404 131.150 139.116  0.00  0.00    +0.000 A 
ATOM     21  C   UNL     1     110.111 131.237 139.594  0.00  0.00    +0.000 A 
ENDBRANCH   4  13
BRANCH   2  22
ATOM     22  O   UNL     1     112.074 126.307 140.124  0.00  0.00    +0.000 OA
ATOM     23  C   UNL     1     111.851 126.571 140.872  0.00  0.00    +0.000 C 
ENDBRANCH   2  22
BRANCH   1  24
ATOM     24  O   UNL     1     113.177 126.127 138.910  0.00  0.00    +0.000 OA
BRANCH  24  33
ATOM     25  O   UNL     1     112.607 125.282 137.909  0.00  0.00    +0.000 OA
ATOM     26  O   UNL     1     114.871 124.771 137.050  0.00  0.00    +0.000 OA
ATOM     27  O   UNL     1     113.546 124.097 136.336  0.00  0.00    +0.000 OA
ATOM     28  O   UNL     1     114.687 125.787 138.337  0.00  0.00    +0.000 OA
ATOM     29  C   UNL     1     114.117 124.941 137.336  0.00  0.00    +0.000 C 
ATOM     30  C   UNL     1     113.455 124.604 136.979  0.00  0.00    +0.000 C 
ATOM     31  C   UNL     1     114.025 125.449 137.980  0.00  0.00    +0.000 C 
ATOM     32  C   UNL     1     112.700 124.774 137.266  0.00  0.00    +0.000 C 
ATOM     33  C   UNL     1     113.270 125.620 138.267  0.00  0.00    +0.000 C 
BRANCH  32  36
ATOM     34  O   UNL     1     111.699 123.755 137.229  0.00  0.00    +0.000 OA
ATOM     35  O   UNL     1     111.712 124.781 136.233  0.00  0.00    +0.000 OA
ATOM     36  C   UNL     1     112.037 124.437 136.909  0.00  0.00    +0.000 C 
ENDBRANCH  32  36
ENDBRANCH  24  33
ENDBRANCH   1  24
TORSDOF 5
ENDMDL
MODEL 6
REMARK VINA RESULT:      -9.1      1.737      2.647
REMARK  Name = 131835071
REMARK  5 active torsions:
REMARK  status: ('A' for Active; 'I' for Inactive)
REMARK    1  A    between atoms: O_2  and  C_19
REMARK    2  A    between atoms: O_2  and  C_21
REMARK    3  A    between atoms: O_8  and  C_22
REMARK    4  A    between atoms: C_18  and  C_20
REMARK    5  A    between atoms: C_24  and  C_27
REMARK                            x       y       z     vdW  Elec       q    Type
REMARK                         _______ _______ _______ _____ _____    ______ ____
ROOT
ATOM      1  C   UNL     1     109.676 128.758 137.861  0.00  0.00    +0.000 A 
ATOM      2  C   UNL     1     109.623 128.387 137.127  0.00  0.00    +0.000 A 
ATOM      3  C   UNL     1     110.271 128.544 138.391  0.00  0.00    +0.000 A 
ATOM      4  C   UNL     1     110.761 127.584 137.451  0.00  0.00    +0.000 A 
ATOM      5  C   UNL     1     110.166 127.800 136.922  0.00  0.00    +0.000 A 
ATOM      6  C   UNL     1     110.813 127.957 138.186  0.00  0.00    +0.000 A 
ENDROOT
BRANCH   4  13
ATOM      7  O   UNL     1     111.112 126.203 137.358  0.00  0.00    +0.000 OA
ATOM      8  O   UNL     1     112.226 128.000 136.817  0.00  0.00    +0.000 OA
ATOM      9  O   UNL     1     113.311 126.827 136.407  0.00  0.00    +0.000 OA
ATOM     10  O   UNL     1     113.691 125.439 136.302  0.00  0.00    +0.000 OA
ATOM     11  O   UNL     1     113.312 123.807 136.526  0.00  0.00    +0.000 OA
ATOM     12  O   UNL     1     111.811 123.382 137.175  0.00  0.00    +0.000 OA
ATOM     13  C   UNL     1     111.303 126.998 137.246  0.00  0.00    +0.000 A 
ATOM     14  C   UNL     1     112.035 127.205 136.929  0.00  0.00    +0.000 A 
ATOM     15  C   UNL     1     112.388 125.824 136.836  0.00  0.00    +0.000 A 
ATOM     16  C   UNL     1     111.654 125.616 137.153  0.00  0.00    +0.000 A 
ATOM     17  C   UNL     1     112.578 126.619 136.724  0.00  0.00    +0.000 A 
ATOM     18  C   UNL     1     112.961 125.222 136.618  0.00  0.00    +0.000 A 
ATOM     19  C   UNL     1     111.444 124.791 137.274  0.00  0.00    +0.000 A 
ATOM     20  C   UNL     1     112.768 124.392 136.732  0.00  0.00    +0.000 A 
ATOM     21  C   UNL     1     112.005 124.175 137.062  0.00  0.00    +0.000 A 
ENDBRANCH   4  13
BRANCH   2  22
ATOM     22  O   UNL     1     109.028 128.601 136.597  0.00  0.00    +0.000 OA
ATOM     23  C   UNL     1     108.824 128.095 135.979  0.00  0.00    +0.000 C 
ENDBRANCH   2  22
BRANCH   1  24
ATOM     24  O   UNL     1     109.134 129.345 138.066  0.00  0.00    +0.000 OA
BRANCH  24  33
ATOM     25  O   UNL     1     109.985 130.491 137.989  0.00  0.00    +0.000 OA
ATOM     26  O   UNL     1     109.023 131.347 140.103  0.00  0.00    +0.000 OA
ATOM     27  O   UNL     1     110.194 132.206 139.322  0.00  0.00    +0.000 OA
ATOM     28  O   UNL     1     108.493 129.916 139.475  0.00  0.00    +0.000 OA
ATOM     29  C   UNL     1     109.343 131.061 139.398  0.00  0.00    +0.000 C 
ATOM     30  C   UNL     1     109.929 131.491 139.008  0.00  0.00    +0.000 C 
ATOM     31  C   UNL     1     109.078 130.346 139.085  0.00  0.00    +0.000 C 
ATOM     32  C   UNL     1     110.249 131.206 138.304  0.00  0.00    +0.000 C 
ATOM     33  C   UNL     1     109.398 130.060 138.380  0.00  0.00    +0.000 C 
BRANCH  32  36
ATOM     34  O   UNL     1     111.624 131.559 138.142  0.00  0.00    +0.000 OA
ATOM     35  O   UNL     1     110.632 132.141 137.293  0.00  0.00    +0.000 OA
ATOM     36  C   UNL     1     110.835 131.635 137.912  0.00  0.00    +0.000 C 
ENDBRANCH  32  36
ENDBRANCH  24  33
ENDBRANCH   1  24
TORSDOF 5
ENDMDL
MODEL 7
REMARK VINA RESULT:      -9.1      1.402      2.193
REMARK  Name = 131835071
REMARK  5 active torsions:
REMARK  status: ('A' for Active; 'I' for Inactive)
REMARK    1  A    between atoms: O_2  and  C_19
REMARK    2  A    between atoms: O_2  and  C_21
REMARK    3  A    between atoms: O_8  and  C_22
REMARK    4  A    between atoms: C_18  and  C_20
REMARK    5  A    between atoms: C_24  and  C_27
REMARK                            x       y       z     vdW  Elec       q    Type
REMARK                         _______ _______ _______ _____ _____    ______ ____
ROOT
ATOM      1  C   UNL     1     110.091 129.551 135.879  0.00  0.00    +0.000 A 
ATOM      2  C   UNL     1     110.875 129.363 136.046  0.00  0.00    +0.000 A 
ATOM      3  C   UNL     1     109.493 129.003 136.031  0.00  0.00    +0.000 A 
ATOM      4  C   UNL     1     110.467 128.078 136.519  0.00  0.00    +0.000 A 
ATOM      5  C   UNL     1     111.064 128.627 136.366  0.00  0.00    +0.000 A 
ATOM      6  C   UNL     1     109.681 128.266 136.351  0.00  0.00    +0.000 A 
ENDROOT
BRANCH   4  13
ATOM      7  O   UNL     1     110.899 126.727 136.344  0.00  0.00    +0.000 OA
ATOM      8  O   UNL     1     110.358 127.833 138.147  0.00  0.00    +0.000 OA
ATOM      9  O   UNL     1     110.734 126.360 138.787  0.00  0.00    +0.000 OA
ATOM     10  O   UNL     1     111.168 124.992 138.639  0.00  0.00    +0.000 OA
ATOM     11  O   UNL     1     111.668 123.726 137.638  0.00  0.00    +0.000 OA
ATOM     12  O   UNL     1     111.780 123.977 135.971  0.00  0.00    +0.000 OA
ATOM     13  C   UNL     1     110.656 127.341 136.839  0.00  0.00    +0.000 A 
ATOM     14  C   UNL     1     110.601 127.219 137.652  0.00  0.00    +0.000 A 
ATOM     15  C   UNL     1     111.033 125.868 137.479  0.00  0.00    +0.000 A 
ATOM     16  C   UNL     1     111.087 125.990 136.664  0.00  0.00    +0.000 A 
ATOM     17  C   UNL     1     110.789 126.482 137.972  0.00  0.00    +0.000 A 
ATOM     18  C   UNL     1     111.226 125.105 137.824  0.00  0.00    +0.000 A 
ATOM     19  C   UNL     1     111.340 125.357 136.139  0.00  0.00    +0.000 A 
ATOM     20  C   UNL     1     111.480 124.461 137.315  0.00  0.00    +0.000 A 
ATOM     21  C   UNL     1     111.537 124.588 136.467  0.00  0.00    +0.000 A 
ENDBRANCH   4  13
BRANCH   2  22
ATOM     22  O   UNL     1     111.473 129.911 135.894  0.00  0.00    +0.000 OA
ATOM     23  C   UNL     1     112.234 129.653 135.710  0.00  0.00    +0.000 C 
ENDBRANCH   2  22
BRANCH   1  24
ATOM     24  O   UNL     1     109.902 130.288 135.559  0.00  0.00    +0.000 OA
BRANCH  24  33
ATOM     25  O   UNL     1     109.310 130.917 136.696  0.00  0.00    +0.000 OA
ATOM     26  O   UNL     1     107.457 131.740 135.277  0.00  0.00    +0.000 OA
ATOM     27  O   UNL     1     107.483 132.095 136.887  0.00  0.00    +0.000 OA
ATOM     28  O   UNL     1     108.667 130.836 134.612  0.00  0.00    +0.000 OA
ATOM     29  C   UNL     1     108.075 131.466 135.750  0.00  0.00    +0.000 C 
ATOM     30  C   UNL     1     108.087 131.643 136.555  0.00  0.00    +0.000 C 
ATOM     31  C   UNL     1     108.679 131.014 135.417  0.00  0.00    +0.000 C 
ATOM     32  C   UNL     1     108.705 131.369 137.028  0.00  0.00    +0.000 C 
ATOM     33  C   UNL     1     109.297 130.739 135.890  0.00  0.00    +0.000 C 
BRANCH  32  36
ATOM     34  O   UNL     1     108.329 131.054 138.370  0.00  0.00    +0.000 OA
ATOM     35  O   UNL     1     109.119 132.215 138.103  0.00  0.00    +0.000 OA
ATOM     36  C   UNL     1     108.718 131.546 137.834  0.00  0.00    +0.000 C 
ENDBRANCH  32  36
ENDBRANCH  24  33
ENDBRANCH   1  24
TORSDOF 5
ENDMDL
MODEL 8
REMARK VINA RESULT:      -9.0      2.014      5.924
REMARK  Name = 131835071
REMARK  5 active torsions:
REMARK  status: ('A' for Active; 'I' for Inactive)
REMARK    1  A    between atoms: O_2  and  C_19
REMARK    2  A    between atoms: O_2  and  C_21
REMARK    3  A    between atoms: O_8  and  C_22
REMARK    4  A    between atoms: C_18  and  C_20
REMARK    5  A    between atoms: C_24  and  C_27
REMARK                            x       y       z     vdW  Elec       q    Type
REMARK                         _______ _______ _______ _____ _____    ______ ____
ROOT
ATOM      1  C   UNL     1     113.095 127.412 136.917  0.00  0.00    +0.000 A 
ATOM      2  C   UNL     1     112.748 128.048 136.522  0.00  0.00    +0.000 A 
ATOM      3  C   UNL     1     113.024 127.346 137.736  0.00  0.00    +0.000 A 
ATOM      4  C   UNL     1     112.257 128.552 137.766  0.00  0.00    +0.000 A 
ATOM      5  C   UNL     1     112.329 128.618 136.947  0.00  0.00    +0.000 A 
ATOM      6  C   UNL     1     112.605 127.916 138.161  0.00  0.00    +0.000 A 
ENDROOT
BRANCH   4  13
ATOM      7  O   UNL     1     111.015 129.083 138.231  0.00  0.00    +0.000 OA
ATOM      8  O   UNL     1     113.065 129.769 138.534  0.00  0.00    +0.000 OA
ATOM      9  O   UNL     1     112.227 130.908 139.383  0.00  0.00    +0.000 OA
ATOM     10  O   UNL     1     110.987 131.465 139.866  0.00  0.00    +0.000 OA
ATOM     11  O   UNL     1     109.301 131.397 139.957  0.00  0.00    +0.000 OA
ATOM     12  O   UNL     1     108.474 130.151 139.171  0.00  0.00    +0.000 OA
ATOM     13  C   UNL     1     111.838 129.122 138.191  0.00  0.00    +0.000 A 
ATOM     14  C   UNL     1     112.242 129.729 138.574  0.00  0.00    +0.000 A 
ATOM     15  C   UNL     1     111.000 130.261 139.040  0.00  0.00    +0.000 A 
ATOM     16  C   UNL     1     110.596 129.652 138.656  0.00  0.00    +0.000 A 
ATOM     17  C   UNL     1     111.823 130.299 138.999  0.00  0.00    +0.000 A 
ATOM     18  C   UNL     1     110.575 130.860 139.486  0.00  0.00    +0.000 A 
ATOM     19  C   UNL     1     109.738 129.602 138.692  0.00  0.00    +0.000 A 
ATOM     20  C   UNL     1     109.718 130.825 139.532  0.00  0.00    +0.000 A 
ATOM     21  C   UNL     1     109.297 130.192 139.132  0.00  0.00    +0.000 A 
ENDBRANCH   4  13
BRANCH   2  22
ATOM     22  O   UNL     1     112.819 128.114 135.703  0.00  0.00    +0.000 OA
ATOM     23  C   UNL     1     112.640 128.827 135.329  0.00  0.00    +0.000 C 
ENDBRANCH   2  22
BRANCH   1  24
ATOM     24  O   UNL     1     113.514 126.843 136.492  0.00  0.00    +0.000 OA
BRANCH  24  33
ATOM     25  O   UNL     1     112.601 125.748 136.589  0.00  0.00    +0.000 OA
ATOM     26  O   UNL     1     114.483 124.222 137.092  0.00  0.00    +0.000 OA
ATOM     27  O   UNL     1     112.943 123.637 137.022  0.00  0.00    +0.000 OA
ATOM     28  O   UNL     1     114.769 125.825 136.826  0.00  0.00    +0.000 OA
ATOM     29  C   UNL     1     113.856 124.731 136.924  0.00  0.00    +0.000 C 
ATOM     30  C   UNL     1     113.086 124.438 136.889  0.00  0.00    +0.000 C 
ATOM     31  C   UNL     1     113.999 125.532 136.792  0.00  0.00    +0.000 C 
ATOM     32  C   UNL     1     112.458 124.947 136.722  0.00  0.00    +0.000 C 
ATOM     33  C   UNL     1     113.372 126.041 136.624  0.00  0.00    +0.000 C 
BRANCH  32  36
ATOM     34  O   UNL     1     111.339 124.499 135.955  0.00  0.00    +0.000 OA
ATOM     35  O   UNL     1     111.266 124.518 137.383  0.00  0.00    +0.000 OA
ATOM     36  C   UNL     1     111.688 124.655 136.687  0.00  0.00    +0.000 C 
ENDBRANCH  32  36
ENDBRANCH  24  33
ENDBRANCH   1  24
TORSDOF 5
ENDMDL
MODEL 9
REMARK VINA RESULT:      -9.0      2.952      6.049
REMARK  Name = 131835071
REMARK  5 active torsions:
REMARK  status: ('A' for Active; 'I' for Inactive)
REMARK    1  A    between atoms: O_2  and  C_19
REMARK    2  A    between atoms: O_2  and  C_21
REMARK    3  A    between atoms: O_8  and  C_22
REMARK    4  A    between atoms: C_18  and  C_20
REMARK    5  A    between atoms: C_24  and  C_27
REMARK                            x       y       z     vdW  Elec       q    Type
REMARK                         _______ _______ _______ _____ _____    ______ ____
ROOT
ATOM      1  C   UNL     1     112.388 127.451 137.275  0.00  0.00    +0.000 A 
ATOM      2  C   UNL     1     112.598 128.228 137.095  0.00  0.00    +0.000 A 
ATOM      3  C   UNL     1     112.361 127.203 138.061  0.00  0.00    +0.000 A 
ATOM      4  C   UNL     1     112.754 128.510 138.487  0.00  0.00    +0.000 A 
ATOM      5  C   UNL     1     112.780 128.757 137.701  0.00  0.00    +0.000 A 
ATOM      6  C   UNL     1     112.544 127.732 138.667  0.00  0.00    +0.000 A 
ENDROOT
BRANCH   4  13
ATOM      7  O   UNL     1     113.721 129.256 139.227  0.00  0.00    +0.000 OA
ATOM      8  O   UNL     1     111.551 129.132 139.430  0.00  0.00    +0.000 OA
ATOM      9  O   UNL     1     111.917 130.190 140.642  0.00  0.00    +0.000 OA
ATOM     10  O   UNL     1     112.873 130.954 141.405  0.00  0.00    +0.000 OA
ATOM     11  O   UNL     1     114.475 131.409 141.690  0.00  0.00    +0.000 OA
ATOM     12  O   UNL     1     115.707 130.772 140.724  0.00  0.00    +0.000 OA
ATOM     13  C   UNL     1     112.937 129.039 139.093  0.00  0.00    +0.000 A 
ATOM     14  C   UNL     1     112.336 129.349 139.564  0.00  0.00    +0.000 A 
ATOM     15  C   UNL     1     113.303 130.097 140.305  0.00  0.00    +0.000 A 
ATOM     16  C   UNL     1     113.904 129.786 139.833  0.00  0.00    +0.000 A 
ATOM     17  C   UNL     1     112.519 129.878 140.170  0.00  0.00    +0.000 A 
ATOM     18  C   UNL     1     113.480 130.649 140.939  0.00  0.00    +0.000 A 
ATOM     19  C   UNL     1     114.725 130.005 139.963  0.00  0.00    +0.000 A 
ATOM     20  C   UNL     1     114.295 130.879 141.084  0.00  0.00    +0.000 A 
ATOM     21  C   UNL     1     114.922 130.556 140.593  0.00  0.00    +0.000 A 
ENDBRANCH   4  13
BRANCH   2  22
ATOM     22  O   UNL     1     112.625 128.477 136.308  0.00  0.00    +0.000 OA
ATOM     23  C   UNL     1     112.552 129.277 136.126  0.00  0.00    +0.000 C 
ENDBRANCH   2  22
BRANCH   1  24
ATOM     24  O   UNL     1     112.205 126.922 136.669  0.00  0.00    +0.000 OA
BRANCH  24  33
ATOM     25  O   UNL     1     113.327 126.044 136.773  0.00  0.00    +0.000 OA
ATOM     26  O   UNL     1     111.823 124.093 136.532  0.00  0.00    +0.000 OA
ATOM     27  O   UNL     1     113.445 123.865 136.716  0.00  0.00    +0.000 OA
ATOM     28  O   UNL     1     111.202 125.622 136.508  0.00  0.00    +0.000 OA
ATOM     29  C   UNL     1     112.324 124.743 136.612  0.00  0.00    +0.000 C 
ATOM     30  C   UNL     1     113.135 124.629 136.704  0.00  0.00    +0.000 C 
ATOM     31  C   UNL     1     112.013 125.508 136.600  0.00  0.00    +0.000 C 
ATOM     32  C   UNL     1     113.637 125.279 136.785  0.00  0.00    +0.000 C 
ATOM     33  C   UNL     1     112.515 126.158 136.681  0.00  0.00    +0.000 C 
BRANCH  32  36
ATOM     34  O   UNL     1     114.756 124.971 137.618  0.00  0.00    +0.000 OA
ATOM     35  O   UNL     1     114.953 125.246 136.230  0.00  0.00    +0.000 OA
ATOM     36  C   UNL     1     114.449 125.166 136.877  0.00  0.00    +0.000 C 
ENDBRANCH  32  36
ENDBRANCH  24  33
ENDBRANCH   1  24
TORSDOF 5
ENDMDL
MODEL 10
REMARK VINA RESULT:      -8.9      1.398      5.995
REMARK  Name = 131835071
REMARK  5 active torsions:
REMARK  status: ('A' for Active; 'I' for Inactive)
REMARK    1  A    between atoms: O_2  and  C_19
REMARK    2  A    between atoms: O_2  and  C_21
REMARK    3  A    between atoms: O_8  and  C_22
REMARK    4  A    between atoms: C_18  and  C_20
REMARK    5  A    between atoms: C_24  and  C_27
REMARK                            x       y       z     vdW  Elec       q    Type
REMARK                         _______ _______ _______ _____ _____    ______ ____
ROOT
ATOM      1  C   UNL     1     111.738 127.851 136.121  0.00  0.00    +0.000 A 
ATOM      2  C   UNL     1     112.291 128.460 136.165  0.00  0.00    +0.000 A 
ATOM      3  C   UNL     1     110.985 127.951 136.445  0.00  0.00    +0.000 A 
ATOM      4  C   UNL     1     111.341 129.273 136.857  0.00  0.00    +0.000 A 
ATOM      5  C   UNL     1     112.092 129.171 136.533  0.00  0.00    +0.000 A 
ATOM      6  C   UNL     1     110.787 128.662 136.813  0.00  0.00    +0.000 A 
ENDROOT
BRANCH   4  13
ATOM      7  O   UNL     1     110.969 130.650 136.768  0.00  0.00    +0.000 OA
ATOM      8  O   UNL     1     111.291 129.365 138.504  0.00  0.00    +0.000 OA
ATOM      9  O   UNL     1     110.894 130.787 139.239  0.00  0.00    +0.000 OA
ATOM     10  O   UNL     1     110.518 132.178 139.179  0.00  0.00    +0.000 OA
ATOM     11  O   UNL     1     110.160 133.548 138.256  0.00  0.00    +0.000 OA
ATOM     12  O   UNL     1     110.211 133.454 136.570  0.00  0.00    +0.000 OA
ATOM     13  C   UNL     1     111.142 129.984 137.225  0.00  0.00    +0.000 A 
ATOM     14  C   UNL     1     111.118 130.030 138.047  0.00  0.00    +0.000 A 
ATOM     15  C   UNL     1     110.745 131.407 137.960  0.00  0.00    +0.000 A 
ATOM     16  C   UNL     1     110.770 131.361 137.136  0.00  0.00    +0.000 A 
ATOM     17  C   UNL     1     110.919 130.741 138.415  0.00  0.00    +0.000 A 
ATOM     18  C   UNL     1     110.540 132.142 138.355  0.00  0.00    +0.000 A 
ATOM     19  C   UNL     1     110.591 132.048 136.651  0.00  0.00    +0.000 A 
ATOM     20  C   UNL     1     110.358 132.838 137.886  0.00  0.00    +0.000 A 
ATOM     21  C   UNL     1     110.384 132.791 137.029  0.00  0.00    +0.000 A 
ENDBRANCH   4  13
BRANCH   2  22
ATOM     22  O   UNL     1     113.043 128.360 135.841  0.00  0.00    +0.000 OA
ATOM     23  C   UNL     1     113.473 129.014 135.583  0.00  0.00    +0.000 C 
ENDBRANCH   2  22
BRANCH   1  24
ATOM     24  O   UNL     1     111.936 127.139 135.753  0.00  0.00    +0.000 OA
BRANCH  24  33
ATOM     25  O   UNL     1     112.102 126.299 136.897  0.00  0.00    +0.000 OA
ATOM     26  O   UNL     1     110.788 124.522 135.782  0.00  0.00    +0.000 OA
ATOM     27  O   UNL     1     111.392 124.275 137.296  0.00  0.00    +0.000 OA
ATOM     28  O   UNL     1     111.060 125.955 135.010  0.00  0.00    +0.000 OA
ATOM     29  C   UNL     1     111.226 125.114 136.154  0.00  0.00    +0.000 C 
ATOM     30  C   UNL     1     111.528 124.990 136.911  0.00  0.00    +0.000 C 
ATOM     31  C   UNL     1     111.362 125.831 135.767  0.00  0.00    +0.000 C 
ATOM     32  C   UNL     1     111.966 125.582 137.282  0.00  0.00    +0.000 C 
ATOM     33  C   UNL     1     111.800 126.423 136.139  0.00  0.00    +0.000 C 
BRANCH  32  36
ATOM     34  O   UNL     1     113.065 125.269 138.140  0.00  0.00    +0.000 OA
ATOM     35  O   UNL     1     111.774 125.525 138.697  0.00  0.00    +0.000 OA
ATOM     36  C   UNL     1     112.268 125.459 138.040  0.00  0.00    +0.000 C 
ENDBRANCH  32  36
ENDBRANCH  24  33
ENDBRANCH   1  24
TORSDOF 5
ENDMDL
