MODEL 1
REMARK VINA RESULT:      -9.5      0.000      0.000
REMARK  Name = 91312540
REMARK  4 active torsions:
REMARK  status: ('A' for Active; 'I' for Inactive)
REMARK    1  A    between atoms: O_2  and  C_15
REMARK    2  A    between atoms: O_2  and  C_19
REMARK    3  A    between atoms: C_16  and  C_17
REMARK    4  A    between atoms: C_18  and  C_20
REMARK                            x       y       z     vdW  Elec       q    Type
REMARK                         _______ _______ _______ _____ _____    ______ ____
ROOT
ATOM      1  C   UNL     1     109.778 126.981 135.560  0.00  0.00    +0.000 A 
ATOM      2  C   UNL     1     110.980 125.973 136.071  0.00  0.00    +0.000 A 
ATOM      3  C   UNL     1     110.322 126.679 135.018  0.00  0.00    +0.000 A 
ATOM      4  C   UNL     1     109.835 126.778 136.357  0.00  0.00    +0.000 A 
ATOM      5  C   UNL     1     110.923 126.175 135.273  0.00  0.00    +0.000 A 
ATOM      6  C   UNL     1     110.436 126.274 136.613  0.00  0.00    +0.000 A 
ENDROOT
BRANCH   2  11
ATOM      7  O   UNL     1     112.339 125.766 136.465  0.00  0.00    +0.000 OA
ATOM      8  O   UNL     1     111.870 123.362 136.819  0.00  0.00    +0.000 OA
ATOM      9  O   UNL     1     113.236 123.126 137.220  0.00  0.00    +0.000 OA
ATOM     10  O   UNL     1     115.110 125.365 137.264  0.00  0.00    +0.000 OA
ATOM     11  C   UNL     1     111.581 125.469 136.327  0.00  0.00    +0.000 C 
ATOM     12  C   UNL     1     111.425 124.667 136.445  0.00  0.00    +0.000 C 
ATOM     13  C   UNL     1     112.026 124.163 136.701  0.00  0.00    +0.000 C 
ATOM     14  C   UNL     1     112.783 124.461 136.838  0.00  0.00    +0.000 A 
ATOM     15  C   UNL     1     112.940 125.262 136.721  0.00  0.00    +0.000 A 
ATOM     16  C   UNL     1     113.401 123.925 137.105  0.00  0.00    +0.000 A 
ATOM     17  C   UNL     1     113.724 125.585 136.861  0.00  0.00    +0.000 A 
ATOM     18  C   UNL     1     114.354 125.064 137.127  0.00  0.00    +0.000 A 
ATOM     19  C   UNL     1     114.191 124.230 137.250  0.00  0.00    +0.000 A 
ENDBRANCH   2  11
BRANCH   1  20
ATOM     20  O   UNL     1     109.177 127.485 135.304  0.00  0.00    +0.000 OA
BRANCH  20  28
ATOM     21  O   UNL     1     109.951 128.685 135.335  0.00  0.00    +0.000 OA
ATOM     22  O   UNL     1     107.958 129.951 136.078  0.00  0.00    +0.000 OA
ATOM     23  O   UNL     1     107.848 128.328 135.799  0.00  0.00    +0.000 OA
ATOM     24  O   UNL     1     109.396 130.729 135.862  0.00  0.00    +0.000 OA
ATOM     25  C   UNL     1     108.622 129.529 135.830  0.00  0.00    +0.000 C 
ATOM     26  C   UNL     1     108.567 128.717 135.691  0.00  0.00    +0.000 C 
ATOM     27  C   UNL     1     109.341 129.918 135.722  0.00  0.00    +0.000 C 
ATOM     28  C   UNL     1     109.232 128.295 135.443  0.00  0.00    +0.000 C 
ATOM     29  C   UNL     1     110.006 129.496 135.475  0.00  0.00    +0.000 C 
BRANCH  29  32
ATOM     30  O   UNL     1     110.954 130.128 134.612  0.00  0.00    +0.000 OA
ATOM     31  O   UNL     1     111.215 130.033 136.014  0.00  0.00    +0.000 OA
ATOM     32  C   UNL     1     110.724 129.885 135.367  0.00  0.00    +0.000 C 
ENDBRANCH  29  32
ENDBRANCH  20  28
ENDBRANCH   1  20
TORSDOF 4
ENDMDL
MODEL 2
REMARK VINA RESULT:      -9.4      4.620      5.510
REMARK  Name = 91312540
REMARK  4 active torsions:
REMARK  status: ('A' for Active; 'I' for Inactive)
REMARK    1  A    between atoms: O_2  and  C_15
REMARK    2  A    between atoms: O_2  and  C_19
REMARK    3  A    between atoms: C_16  and  C_17
REMARK    4  A    between atoms: C_18  and  C_20
REMARK                            x       y       z     vdW  Elec       q    Type
REMARK                         _______ _______ _______ _____ _____    ______ ____
ROOT
ATOM      1  C   UNL     1     113.668 128.481 140.491  0.00  0.00    +0.000 A 
ATOM      2  C   UNL     1     113.313 127.255 139.445  0.00  0.00    +0.000 A 
ATOM      3  C   UNL     1     113.869 127.703 140.683  0.00  0.00    +0.000 A 
ATOM      4  C   UNL     1     113.290 128.644 139.777  0.00  0.00    +0.000 A 
ATOM      5  C   UNL     1     113.691 127.090 140.160  0.00  0.00    +0.000 A 
ATOM      6  C   UNL     1     113.112 128.032 139.254  0.00  0.00    +0.000 A 
ENDROOT
BRANCH   2  11
ATOM      7  O   UNL     1     113.688 126.411 138.354  0.00  0.00    +0.000 OA
ATOM      8  O   UNL     1     111.497 125.267 138.488  0.00  0.00    +0.000 OA
ATOM      9  O   UNL     1     111.851 124.402 137.388  0.00  0.00    +0.000 OA
ATOM     10  O   UNL     1     114.469 124.701 136.131  0.00  0.00    +0.000 OA
ATOM     11  C   UNL     1     113.135 126.643 138.922  0.00  0.00    +0.000 C 
ATOM     12  C   UNL     1     112.405 126.261 138.966  0.00  0.00    +0.000 C 
ATOM     13  C   UNL     1     112.228 125.648 138.443  0.00  0.00    +0.000 C 
ATOM     14  C   UNL     1     112.780 125.417 137.876  0.00  0.00    +0.000 A 
ATOM     15  C   UNL     1     113.510 125.799 137.831  0.00  0.00    +0.000 A 
ATOM     16  C   UNL     1     112.583 124.777 137.336  0.00  0.00    +0.000 A 
ATOM     17  C   UNL     1     114.094 125.567 137.244  0.00  0.00    +0.000 A 
ATOM     18  C   UNL     1     113.915 124.930 136.697  0.00  0.00    +0.000 A 
ATOM     19  C   UNL     1     113.154 124.532 136.743  0.00  0.00    +0.000 A 
ENDBRANCH   2  11
BRANCH   1  20
ATOM     20  O   UNL     1     113.846 129.094 141.015  0.00  0.00    +0.000 OA
BRANCH  20  28
ATOM     21  O   UNL     1     112.708 128.932 141.864  0.00  0.00    +0.000 OA
ATOM     22  O   UNL     1     112.552 131.389 142.121  0.00  0.00    +0.000 OA
ATOM     23  O   UNL     1     113.742 130.731 141.186  0.00  0.00    +0.000 OA
ATOM     24  O   UNL     1     111.467 130.409 142.884  0.00  0.00    +0.000 OA
ATOM     25  C   UNL     1     112.604 130.570 142.035  0.00  0.00    +0.000 C 
ATOM     26  C   UNL     1     113.199 130.241 141.567  0.00  0.00    +0.000 C 
ATOM     27  C   UNL     1     112.061 130.080 142.416  0.00  0.00    +0.000 C 
ATOM     28  C   UNL     1     113.251 129.422 141.482  0.00  0.00    +0.000 C 
ATOM     29  C   UNL     1     112.113 129.261 142.331  0.00  0.00    +0.000 C 
BRANCH  29  32
ATOM     30  O   UNL     1     110.863 128.570 142.340  0.00  0.00    +0.000 OA
ATOM     31  O   UNL     1     111.736 128.482 143.467  0.00  0.00    +0.000 OA
ATOM     32  C   UNL     1     111.571 128.771 142.712  0.00  0.00    +0.000 C 
ENDBRANCH  29  32
ENDBRANCH  20  28
ENDBRANCH   1  20
TORSDOF 4
ENDMDL
MODEL 3
REMARK VINA RESULT:      -9.4      4.216      5.310
REMARK  Name = 91312540
REMARK  4 active torsions:
REMARK  status: ('A' for Active; 'I' for Inactive)
REMARK    1  A    between atoms: O_2  and  C_15
REMARK    2  A    between atoms: O_2  and  C_19
REMARK    3  A    between atoms: C_16  and  C_17
REMARK    4  A    between atoms: C_18  and  C_20
REMARK                            x       y       z     vdW  Elec       q    Type
REMARK                         _______ _______ _______ _____ _____    ______ ____
ROOT
ATOM      1  C   UNL     1     113.095 127.765 140.733  0.00  0.00    +0.000 A 
ATOM      2  C   UNL     1     113.219 126.736 139.449  0.00  0.00    +0.000 A 
ATOM      3  C   UNL     1     113.675 127.177 140.729  0.00  0.00    +0.000 A 
ATOM      4  C   UNL     1     112.578 127.837 140.095  0.00  0.00    +0.000 A 
ATOM      5  C   UNL     1     113.737 126.663 140.087  0.00  0.00    +0.000 A 
ATOM      6  C   UNL     1     112.639 127.323 139.453  0.00  0.00    +0.000 A 
ENDROOT
BRANCH   2  11
ATOM      7  O   UNL     1     112.603 125.865 138.497  0.00  0.00    +0.000 OA
ATOM      8  O   UNL     1     114.819 125.391 137.500  0.00  0.00    +0.000 OA
ATOM      9  O   UNL     1     114.223 124.506 136.527  0.00  0.00    +0.000 OA
ATOM     10  O   UNL     1     111.333 124.093 136.566  0.00  0.00    +0.000 OA
ATOM     11  C   UNL     1     113.280 126.222 138.807  0.00  0.00    +0.000 C 
ATOM     12  C   UNL     1     114.018 126.063 138.474  0.00  0.00    +0.000 C 
ATOM     13  C   UNL     1     114.080 125.549 137.832  0.00  0.00    +0.000 C 
ATOM     14  C   UNL     1     113.404 125.193 137.523  0.00  0.00    +0.000 A 
ATOM     15  C   UNL     1     112.665 125.350 137.855  0.00  0.00    +0.000 A 
ATOM     16  C   UNL     1     113.481 124.658 136.854  0.00  0.00    +0.000 A 
ATOM     17  C   UNL     1     111.953 124.985 137.542  0.00  0.00    +0.000 A 
ATOM     18  C   UNL     1     112.011 124.449 136.874  0.00  0.00    +0.000 A 
ATOM     19  C   UNL     1     112.780 124.284 136.527  0.00  0.00    +0.000 A 
ENDBRANCH   2  11
BRANCH   1  20
ATOM     20  O   UNL     1     113.033 128.279 141.375  0.00  0.00    +0.000 OA
BRANCH  20  28
ATOM     21  O   UNL     1     113.962 129.235 140.859  0.00  0.00    +0.000 OA
ATOM     22  O   UNL     1     112.716 131.054 141.982  0.00  0.00    +0.000 OA
ATOM     23  O   UNL     1     112.202 129.492 142.124  0.00  0.00    +0.000 OA
ATOM     24  O   UNL     1     114.059 131.402 141.092  0.00  0.00    +0.000 OA
ATOM     25  C   UNL     1     113.131 130.447 141.607  0.00  0.00    +0.000 C 
ATOM     26  C   UNL     1     112.875 129.666 141.678  0.00  0.00    +0.000 C 
ATOM     27  C   UNL     1     113.803 130.621 141.162  0.00  0.00    +0.000 C 
ATOM     28  C   UNL     1     113.290 129.059 141.304  0.00  0.00    +0.000 C 
ATOM     29  C   UNL     1     114.219 130.015 140.788  0.00  0.00    +0.000 C 
BRANCH  29  32
ATOM     30  O   UNL     1     115.639 130.133 140.685  0.00  0.00    +0.000 OA
ATOM     31  O   UNL     1     114.814 130.420 139.554  0.00  0.00    +0.000 OA
ATOM     32  C   UNL     1     114.891 130.189 140.343  0.00  0.00    +0.000 C 
ENDBRANCH  29  32
ENDBRANCH  20  28
ENDBRANCH   1  20
TORSDOF 4
ENDMDL
MODEL 4
REMARK VINA RESULT:      -9.3      0.834      5.632
REMARK  Name = 91312540
REMARK  4 active torsions:
REMARK  status: ('A' for Active; 'I' for Inactive)
REMARK    1  A    between atoms: O_2  and  C_15
REMARK    2  A    between atoms: O_2  and  C_19
REMARK    3  A    between atoms: C_16  and  C_17
REMARK    4  A    between atoms: C_18  and  C_20
REMARK                            x       y       z     vdW  Elec       q    Type
REMARK                         _______ _______ _______ _____ _____    ______ ____
ROOT
ATOM      1  C   UNL     1     110.941 125.613 135.792  0.00  0.00    +0.000 A 
ATOM      2  C   UNL     1     110.191 127.081 135.856  0.00  0.00    +0.000 A 
ATOM      3  C   UNL     1     110.986 126.128 135.148  0.00  0.00    +0.000 A 
ATOM      4  C   UNL     1     110.521 125.833 136.467  0.00  0.00    +0.000 A 
ATOM      5  C   UNL     1     110.611 126.862 135.180  0.00  0.00    +0.000 A 
ATOM      6  C   UNL     1     110.146 126.567 136.499  0.00  0.00    +0.000 A 
ENDROOT
BRANCH   2  11
ATOM      7  O   UNL     1     110.259 128.501 136.009  0.00  0.00    +0.000 OA
ATOM      8  O   UNL     1     107.803 128.647 135.739  0.00  0.00    +0.000 OA
ATOM      9  O   UNL     1     107.843 130.082 135.891  0.00  0.00    +0.000 OA
ATOM     10  O   UNL     1     110.417 131.391 136.324  0.00  0.00    +0.000 OA
ATOM     11  C   UNL     1     109.815 127.815 135.887  0.00  0.00    +0.000 C 
ATOM     12  C   UNL     1     108.997 127.864 135.798  0.00  0.00    +0.000 C 
ATOM     13  C   UNL     1     108.622 128.598 135.829  0.00  0.00    +0.000 C 
ATOM     14  C   UNL     1     109.065 129.283 135.951  0.00  0.00    +0.000 A 
ATOM     15  C   UNL     1     109.884 129.235 136.041  0.00  0.00    +0.000 A 
ATOM     16  C   UNL     1     108.662 130.042 135.982  0.00  0.00    +0.000 A 
ATOM     17  C   UNL     1     110.357 129.941 136.168  0.00  0.00    +0.000 A 
ATOM     18  C   UNL     1     109.971 130.708 136.202  0.00  0.00    +0.000 A 
ATOM     19  C   UNL     1     109.119 130.759 136.109  0.00  0.00    +0.000 A 
ENDBRANCH   2  11
BRANCH   1  20
ATOM     20  O   UNL     1     111.317 124.879 135.760  0.00  0.00    +0.000 OA
BRANCH  20  28
ATOM     21  O   UNL     1     112.578 125.363 136.225  0.00  0.00    +0.000 OA
ATOM     22  O   UNL     1     113.017 123.181 137.307  0.00  0.00    +0.000 OA
ATOM     23  O   UNL     1     111.609 123.424 136.482  0.00  0.00    +0.000 OA
ATOM     24  O   UNL     1     114.132 124.392 137.411  0.00  0.00    +0.000 OA
ATOM     25  C   UNL     1     112.871 123.908 136.947  0.00  0.00    +0.000 C 
ATOM     26  C   UNL     1     112.166 124.030 136.534  0.00  0.00    +0.000 C 
ATOM     27  C   UNL     1     113.428 124.515 136.998  0.00  0.00    +0.000 C 
ATOM     28  C   UNL     1     112.020 124.758 136.173  0.00  0.00    +0.000 C 
ATOM     29  C   UNL     1     113.282 125.242 136.637  0.00  0.00    +0.000 C 
BRANCH  29  32
ATOM     30  O   UNL     1     113.796 126.397 137.303  0.00  0.00    +0.000 OA
ATOM     31  O   UNL     1     114.440 125.903 136.127  0.00  0.00    +0.000 OA
ATOM     32  C   UNL     1     113.839 125.847 136.689  0.00  0.00    +0.000 C 
ENDBRANCH  29  32
ENDBRANCH  20  28
ENDBRANCH   1  20
TORSDOF 4
ENDMDL
MODEL 5
REMARK VINA RESULT:      -9.2      8.984     11.280
REMARK  Name = 91312540
REMARK  4 active torsions:
REMARK  status: ('A' for Active; 'I' for Inactive)
REMARK    1  A    between atoms: O_2  and  C_15
REMARK    2  A    between atoms: O_2  and  C_19
REMARK    3  A    between atoms: C_16  and  C_17
REMARK    4  A    between atoms: C_18  and  C_20
REMARK                            x       y       z     vdW  Elec       q    Type
REMARK                         _______ _______ _______ _____ _____    ______ ____
ROOT
ATOM      1  C   UNL     1     106.299 127.515 144.294  0.00  0.00    +0.000 A 
ATOM      2  C   UNL     1     105.241 128.162 143.206  0.00  0.00    +0.000 A 
ATOM      3  C   UNL     1     106.401 127.377 143.487  0.00  0.00    +0.000 A 
ATOM      4  C   UNL     1     105.667 127.976 144.557  0.00  0.00    +0.000 A 
ATOM      5  C   UNL     1     105.872 127.701 142.943  0.00  0.00    +0.000 A 
ATOM      6  C   UNL     1     105.138 128.300 144.013  0.00  0.00    +0.000 A 
ENDROOT
BRANCH   2  11
ATOM      7  O   UNL     1     104.258 129.145 142.869  0.00  0.00    +0.000 OA
ATOM      8  O   UNL     1     104.030 128.141 140.617  0.00  0.00    +0.000 OA
ATOM      9  O   UNL     1     103.036 129.121 140.251  0.00  0.00    +0.000 OA
ATOM     10  O   UNL     1     102.259 131.153 142.198  0.00  0.00    +0.000 OA
ATOM     11  C   UNL     1     104.712 128.486 142.662  0.00  0.00    +0.000 C 
ATOM     12  C   UNL     1     104.635 128.152 141.912  0.00  0.00    +0.000 C 
ATOM     13  C   UNL     1     104.106 128.476 141.368  0.00  0.00    +0.000 C 
ATOM     14  C   UNL     1     103.654 129.133 141.574  0.00  0.00    +0.000 A 
ATOM     15  C   UNL     1     103.729 129.468 142.325  0.00  0.00    +0.000 A 
ATOM     16  C   UNL     1     103.105 129.462 140.998  0.00  0.00    +0.000 A 
ATOM     17  C   UNL     1     103.263 130.154 142.552  0.00  0.00    +0.000 A 
ATOM     18  C   UNL     1     102.711 130.495 141.989  0.00  0.00    +0.000 A 
ATOM     19  C   UNL     1     102.631 130.147 141.208  0.00  0.00    +0.000 A 
ENDBRANCH   2  11
BRANCH   1  20
ATOM     20  O   UNL     1     106.828 127.191 144.838  0.00  0.00    +0.000 OA
BRANCH  20  28
ATOM     21  O   UNL     1     106.201 125.909 144.908  0.00  0.00    +0.000 OA
ATOM     22  O   UNL     1     106.807 125.742 147.302  0.00  0.00    +0.000 OA
ATOM     23  O   UNL     1     107.232 127.080 146.434  0.00  0.00    +0.000 OA
ATOM     24  O   UNL     1     105.979 124.516 146.573  0.00  0.00    +0.000 OA
ATOM     25  C   UNL     1     106.605 125.798 146.504  0.00  0.00    +0.000 C 
ATOM     26  C   UNL     1     106.818 126.467 146.070  0.00  0.00    +0.000 C 
ATOM     27  C   UNL     1     106.191 125.185 146.139  0.00  0.00    +0.000 C 
ATOM     28  C   UNL     1     106.616 126.523 145.272  0.00  0.00    +0.000 C 
ATOM     29  C   UNL     1     105.989 125.240 145.341  0.00  0.00    +0.000 C 
BRANCH  29  32
ATOM     30  O   UNL     1     104.751 124.609 145.009  0.00  0.00    +0.000 OA
ATOM     31  O   UNL     1     105.985 124.031 144.581  0.00  0.00    +0.000 OA
ATOM     32  C   UNL     1     105.575 124.627 144.977  0.00  0.00    +0.000 C 
ENDBRANCH  29  32
ENDBRANCH  20  28
ENDBRANCH   1  20
TORSDOF 4
ENDMDL
MODEL 6
REMARK VINA RESULT:      -9.1      1.312      2.225
REMARK  Name = 91312540
REMARK  4 active torsions:
REMARK  status: ('A' for Active; 'I' for Inactive)
REMARK    1  A    between atoms: O_2  and  C_15
REMARK    2  A    between atoms: O_2  and  C_19
REMARK    3  A    between atoms: C_16  and  C_17
REMARK    4  A    between atoms: C_18  and  C_20
REMARK                            x       y       z     vdW  Elec       q    Type
REMARK                         _______ _______ _______ _____ _____    ______ ____
ROOT
ATOM      1  C   UNL     1     111.605 129.276 136.225  0.00  0.00    +0.000 A 
ATOM      2  C   UNL     1     112.032 127.686 136.345  0.00  0.00    +0.000 A 
ATOM      3  C   UNL     1     111.675 128.814 135.544  0.00  0.00    +0.000 A 
ATOM      4  C   UNL     1     111.749 128.941 136.965  0.00  0.00    +0.000 A 
ATOM      5  C   UNL     1     111.889 128.020 135.604  0.00  0.00    +0.000 A 
ATOM      6  C   UNL     1     111.963 128.147 137.025  0.00  0.00    +0.000 A 
ENDROOT
BRANCH   2  11
ATOM      7  O   UNL     1     113.008 126.686 136.648  0.00  0.00    +0.000 OA
ATOM      8  O   UNL     1     111.365 124.919 136.098  0.00  0.00    +0.000 OA
ATOM      9  O   UNL     1     112.330 123.889 136.398  0.00  0.00    +0.000 OA
ATOM     10  O   UNL     1     115.007 124.663 137.271  0.00  0.00    +0.000 OA
ATOM     11  C   UNL     1     112.246 126.892 136.405  0.00  0.00    +0.000 C 
ATOM     12  C   UNL     1     111.699 126.302 136.221  0.00  0.00    +0.000 C 
ATOM     13  C   UNL     1     111.913 125.508 136.281  0.00  0.00    +0.000 C 
ATOM     14  C   UNL     1     112.673 125.303 136.525  0.00  0.00    +0.000 A 
ATOM     15  C   UNL     1     113.221 125.892 136.708  0.00  0.00    +0.000 A 
ATOM     16  C   UNL     1     112.884 124.471 136.583  0.00  0.00    +0.000 A 
ATOM     17  C   UNL     1     114.017 125.691 136.963  0.00  0.00    +0.000 A 
ATOM     18  C   UNL     1     114.245 124.865 137.027  0.00  0.00    +0.000 A 
ATOM     19  C   UNL     1     113.675 124.251 136.836  0.00  0.00    +0.000 A 
ENDBRANCH   2  11
BRANCH   1  20
ATOM     20  O   UNL     1     111.391 130.070 136.165  0.00  0.00    +0.000 OA
BRANCH  20  28
ATOM     21  O   UNL     1     109.976 129.879 136.144  0.00  0.00    +0.000 OA
ATOM     22  O   UNL     1     109.681 131.901 137.540  0.00  0.00    +0.000 OA
ATOM     23  O   UNL     1     111.195 131.419 137.096  0.00  0.00    +0.000 OA
ATOM     24  O   UNL     1     108.364 131.036 137.053  0.00  0.00    +0.000 OA
ATOM     25  C   UNL     1     109.779 131.227 137.074  0.00  0.00    +0.000 C 
ATOM     26  C   UNL     1     110.537 130.985 136.852  0.00  0.00    +0.000 C 
ATOM     27  C   UNL     1     109.121 130.794 136.831  0.00  0.00    +0.000 C 
ATOM     28  C   UNL     1     110.635 130.311 136.387  0.00  0.00    +0.000 C 
ATOM     29  C   UNL     1     109.219 130.120 136.365  0.00  0.00    +0.000 C 
BRANCH  29  32
ATOM     30  O   UNL     1     108.285 129.061 136.582  0.00  0.00    +0.000 OA
ATOM     31  O   UNL     1     108.177 129.882 135.419  0.00  0.00    +0.000 OA
ATOM     32  C   UNL     1     108.561 129.688 136.122  0.00  0.00    +0.000 C 
ENDBRANCH  29  32
ENDBRANCH  20  28
ENDBRANCH   1  20
TORSDOF 4
ENDMDL
MODEL 7
REMARK VINA RESULT:      -9.0      1.438      2.344
REMARK  Name = 91312540
REMARK  4 active torsions:
REMARK  status: ('A' for Active; 'I' for Inactive)
REMARK    1  A    between atoms: O_2  and  C_15
REMARK    2  A    between atoms: O_2  and  C_19
REMARK    3  A    between atoms: C_16  and  C_17
REMARK    4  A    between atoms: C_18  and  C_20
REMARK                            x       y       z     vdW  Elec       q    Type
REMARK                         _______ _______ _______ _____ _____    ______ ____
ROOT
ATOM      1  C   UNL     1     109.150 129.265 135.382  0.00  0.00    +0.000 A 
ATOM      2  C   UNL     1     110.017 127.879 135.606  0.00  0.00    +0.000 A 
ATOM      3  C   UNL     1     108.898 128.705 135.934  0.00  0.00    +0.000 A 
ATOM      4  C   UNL     1     109.835 129.132 134.943  0.00  0.00    +0.000 A 
ATOM      5  C   UNL     1     109.332 128.012 136.046  0.00  0.00    +0.000 A 
ATOM      6  C   UNL     1     110.269 128.439 135.055  0.00  0.00    +0.000 A 
ENDROOT
BRANCH   2  11
ATOM      7  O   UNL     1     111.179 127.213 136.106  0.00  0.00    +0.000 OA
ATOM      8  O   UNL     1     110.298 125.055 135.275  0.00  0.00    +0.000 OA
ATOM      9  O   UNL     1     111.460 124.357 135.770  0.00  0.00    +0.000 OA
ATOM     10  O   UNL     1     113.551 125.872 137.133  0.00  0.00    +0.000 OA
ATOM     11  C   UNL     1     110.451 127.186 135.717  0.00  0.00    +0.000 C 
ATOM     12  C   UNL     1     110.158 126.467 135.440  0.00  0.00    +0.000 C 
ATOM     13  C   UNL     1     110.592 125.774 135.552  0.00  0.00    +0.000 C 
ATOM     14  C   UNL     1     111.318 125.801 135.941  0.00  0.00    +0.000 A 
ATOM     15  C   UNL     1     111.612 126.520 136.218  0.00  0.00    +0.000 A 
ATOM     16  C   UNL     1     111.761 125.072 136.051  0.00  0.00    +0.000 A 
ATOM     17  C   UNL     1     112.369 126.561 136.625  0.00  0.00    +0.000 A 
ATOM     18  C   UNL     1     112.824 125.843 136.744  0.00  0.00    +0.000 A 
ATOM     19  C   UNL     1     112.519 125.093 136.455  0.00  0.00    +0.000 A 
ENDBRANCH   2  11
BRANCH   1  20
ATOM     20  O   UNL     1     108.717 129.958 135.271  0.00  0.00    +0.000 OA
BRANCH  20  28
ATOM     21  O   UNL     1     109.489 130.810 136.119  0.00  0.00    +0.000 OA
ATOM     22  O   UNL     1     107.414 131.893 136.922  0.00  0.00    +0.000 OA
ATOM     23  O   UNL     1     107.333 130.680 135.806  0.00  0.00    +0.000 OA
ATOM     24  O   UNL     1     108.878 132.383 137.502  0.00  0.00    +0.000 OA
ATOM     25  C   UNL     1     108.106 131.532 136.655  0.00  0.00    +0.000 C 
ATOM     26  C   UNL     1     108.065 130.925 136.096  0.00  0.00    +0.000 C 
ATOM     27  C   UNL     1     108.838 131.777 136.944  0.00  0.00    +0.000 C 
ATOM     28  C   UNL     1     108.757 130.564 135.828  0.00  0.00    +0.000 C 
ATOM     29  C   UNL     1     109.530 131.416 136.677  0.00  0.00    +0.000 C 
BRANCH  29  32
ATOM     30  O   UNL     1     110.571 131.318 137.651  0.00  0.00    +0.000 OA
ATOM     31  O   UNL     1     110.685 132.250 136.573  0.00  0.00    +0.000 OA
ATOM     32  C   UNL     1     110.262 131.661 136.967  0.00  0.00    +0.000 C 
ENDBRANCH  29  32
ENDBRANCH  20  28
ENDBRANCH   1  20
TORSDOF 4
ENDMDL
MODEL 8
REMARK VINA RESULT:      -8.9      1.408      6.071
REMARK  Name = 91312540
REMARK  4 active torsions:
REMARK  status: ('A' for Active; 'I' for Inactive)
REMARK    1  A    between atoms: O_2  and  C_15
REMARK    2  A    between atoms: O_2  and  C_19
REMARK    3  A    between atoms: C_16  and  C_17
REMARK    4  A    between atoms: C_18  and  C_20
REMARK                            x       y       z     vdW  Elec       q    Type
REMARK                         _______ _______ _______ _____ _____    ______ ____
ROOT
ATOM      1  C   UNL     1     112.332 127.721 136.875  0.00  0.00    +0.000 A 
ATOM      2  C   UNL     1     111.002 128.642 136.548  0.00  0.00    +0.000 A 
ATOM      3  C   UNL     1     111.849 127.982 137.492  0.00  0.00    +0.000 A 
ATOM      4  C   UNL     1     112.149 127.920 136.096  0.00  0.00    +0.000 A 
ATOM      5  C   UNL     1     111.184 128.443 137.328  0.00  0.00    +0.000 A 
ATOM      6  C   UNL     1     111.484 128.380 135.932  0.00  0.00    +0.000 A 
ENDROOT
BRANCH   2  11
ATOM      7  O   UNL     1     110.403 129.925 136.351  0.00  0.00    +0.000 OA
ATOM      8  O   UNL     1     108.212 128.840 135.962  0.00  0.00    +0.000 OA
ATOM      9  O   UNL     1     107.582 130.123 135.758  0.00  0.00    +0.000 OA
ATOM     10  O   UNL     1     109.200 132.546 135.952  0.00  0.00    +0.000 OA
ATOM     11  C   UNL     1     110.338 129.102 136.385  0.00  0.00    +0.000 C 
ATOM     12  C   UNL     1     109.607 128.742 136.255  0.00  0.00    +0.000 C 
ATOM     13  C   UNL     1     108.943 129.202 136.091  0.00  0.00    +0.000 C 
ATOM     14  C   UNL     1     109.008 130.023 136.058  0.00  0.00    +0.000 A 
ATOM     15  C   UNL     1     109.738 130.385 136.187  0.00  0.00    +0.000 A 
ATOM     16  C   UNL     1     108.308 130.492 135.886  0.00  0.00    +0.000 A 
ATOM     17  C   UNL     1     109.820 131.240 136.155  0.00  0.00    +0.000 A 
ATOM     18  C   UNL     1     109.131 131.724 135.985  0.00  0.00    +0.000 A 
ATOM     19  C   UNL     1     108.370 131.349 135.850  0.00  0.00    +0.000 A 
ENDBRANCH   2  11
BRANCH   1  20
ATOM     20  O   UNL     1     112.997 127.260 137.038  0.00  0.00    +0.000 OA
BRANCH  20  28
ATOM     21  O   UNL     1     112.286 126.024 137.130  0.00  0.00    +0.000 OA
ATOM     22  O   UNL     1     114.249 124.828 136.212  0.00  0.00    +0.000 OA
ATOM     23  O   UNL     1     114.305 126.463 136.426  0.00  0.00    +0.000 OA
ATOM     24  O   UNL     1     112.885 123.991 136.609  0.00  0.00    +0.000 OA
ATOM     25  C   UNL     1     113.595 125.226 136.518  0.00  0.00    +0.000 C 
ATOM     26  C   UNL     1     113.623 126.045 136.625  0.00  0.00    +0.000 C 
ATOM     27  C   UNL     1     112.912 124.808 136.717  0.00  0.00    +0.000 C 
ATOM     28  C   UNL     1     112.968 126.443 136.931  0.00  0.00    +0.000 C 
ATOM     29  C   UNL     1     112.258 125.207 137.023  0.00  0.00    +0.000 C 
BRANCH  29  32
ATOM     30  O   UNL     1     111.000 124.641 136.649  0.00  0.00    +0.000 OA
ATOM     31  O   UNL     1     111.470 124.516 137.993  0.00  0.00    +0.000 OA
ATOM     32  C   UNL     1     111.576 124.788 137.222  0.00  0.00    +0.000 C 
ENDBRANCH  29  32
ENDBRANCH  20  28
ENDBRANCH   1  20
TORSDOF 4
ENDMDL
