MODEL 1
REMARK VINA RESULT:     -10.0      0.000      0.000
REMARK  Name = 44257844
REMARK  11 active torsions:
REMARK  status: ('A' for Active; 'I' for Inactive)
REMARK    1  A    between atoms: O_3  and  C_18
REMARK    2  A    between atoms: O_3  and  C_31
REMARK    3  A    between atoms: O_5  and  C_22
REMARK    4  A    between atoms: O_5  and  C_30
REMARK    5  A    between atoms: O_9  and  C_27
REMARK    6  A    between atoms: O_9  and  C_32
REMARK    7  A    between atoms: O_11  and  C_28
REMARK    8  A    between atoms: O_11  and  C_35
REMARK    9  A    between atoms: C_20  and  C_28
REMARK   10  A    between atoms: C_25  and  C_29
REMARK   11  A    between atoms: C_42  and  C_43
REMARK                            x       y       z     vdW  Elec       q    Type
REMARK                         _______ _______ _______ _____ _____    ______ ____
ROOT
ATOM      1  O   UNL     1     105.001 127.766 142.494  0.00  0.00    +0.000 OA
ATOM      2  O   UNL     1     107.859 127.644 142.899  0.00  0.00    +0.000 OA
ATOM      3  O   UNL     1     107.206 128.888 142.571  0.00  0.00    +0.000 OA
ATOM      4  C   UNL     1     106.310 126.029 143.006  0.00  0.00    +0.000 A 
ATOM      5  C   UNL     1     105.607 126.488 142.823  0.00  0.00    +0.000 A 
ATOM      6  C   UNL     1     107.075 126.418 143.032  0.00  0.00    +0.000 A 
ATOM      7  C   UNL     1     105.679 127.330 142.669  0.00  0.00    +0.000 A 
ATOM      8  C   UNL     1     106.414 127.705 142.695  0.00  0.00    +0.000 A 
ATOM      9  C   UNL     1     107.128 127.261 142.876  0.00  0.00    +0.000 A 
ATOM     10  C   UNL     1     105.058 128.576 142.345  0.00  0.00    +0.000 A 
ATOM     11  C   UNL     1     106.471 128.514 142.546  0.00  0.00    +0.000 A 
ATOM     12  C   UNL     1     105.793 128.949 142.371  0.00  0.00    +0.000 A 
ENDROOT
BRANCH  10  16
ATOM     13  C   UNL     1     103.023 129.884 141.821  0.00  0.00    +0.000 A 
ATOM     14  C   UNL     1     103.359 129.395 141.247  0.00  0.00    +0.000 A 
ATOM     15  C   UNL     1     103.366 129.936 142.570  0.00  0.00    +0.000 A 
ATOM     16  C   UNL     1     104.379 129.012 142.170  0.00  0.00    +0.000 A 
ATOM     17  C   UNL     1     104.037 128.959 141.421  0.00  0.00    +0.000 A 
ATOM     18  C   UNL     1     104.044 129.500 142.745  0.00  0.00    +0.000 A 
BRANCH  13  19
ATOM     19  O   UNL     1     102.345 130.320 141.646  0.00  0.00    +0.000 OA
BRANCH  19  28
ATOM     20  O   UNL     1     103.036 131.434 141.078  0.00  0.00    +0.000 OA
ATOM     21  O   UNL     1     102.567 133.566 141.095  0.00  0.00    +0.000 OA
ATOM     22  O   UNL     1     101.296 132.960 141.954  0.00  0.00    +0.000 OA
ATOM     23  O   UNL     1     101.185 131.337 142.230  0.00  0.00    +0.000 OA
ATOM     24  C   UNL     1     102.511 132.754 141.232  0.00  0.00    +0.000 C 
ATOM     25  C   UNL     1     101.876 132.451 141.662  0.00  0.00    +0.000 C 
ATOM     26  C   UNL     1     103.092 132.246 140.940  0.00  0.00    +0.000 C 
ATOM     27  C   UNL     1     101.821 131.639 141.800  0.00  0.00    +0.000 C 
ATOM     28  C   UNL     1     102.400 131.131 141.508  0.00  0.00    +0.000 C 
BRANCH  26  30
ATOM     29  O   UNL     1     103.888 132.261 139.754  0.00  0.00    +0.000 OA
ATOM     30  C   UNL     1     103.727 132.548 140.510  0.00  0.00    +0.000 C 
ENDBRANCH  26  30
ENDBRANCH  19  28
ENDBRANCH  13  19
ENDBRANCH  10  16
BRANCH   4  31
ATOM     31  O   UNL     1     106.250 125.219 143.155  0.00  0.00    +0.000 OA
BRANCH  31  39
ATOM     32  O   UNL     1     106.242 125.272 144.583  0.00  0.00    +0.000 OA
ATOM     33  O   UNL     1     104.496 123.520 144.637  0.00  0.00    +0.000 OA
ATOM     34  O   UNL     1     105.086 124.051 143.191  0.00  0.00    +0.000 OA
ATOM     35  C   UNL     1     105.364 124.423 145.324  0.00  0.00    +0.000 C 
ATOM     36  C   UNL     1     105.077 124.104 144.619  0.00  0.00    +0.000 C 
ATOM     37  C   UNL     1     105.947 125.007 145.305  0.00  0.00    +0.000 C 
ATOM     38  C   UNL     1     105.373 124.370 143.896  0.00  0.00    +0.000 C 
ATOM     39  C   UNL     1     105.955 124.954 143.877  0.00  0.00    +0.000 C 
BRANCH  35  40
ATOM     40  O   UNL     1     105.069 124.157 146.047  0.00  0.00    +0.000 OA
BRANCH  40  42
ATOM     41  O   UNL     1     103.981 125.073 146.180  0.00  0.00    +0.000 OA
ATOM     42  C   UNL     1     104.286 124.310 146.254  0.00  0.00    +0.000 C 
ATOM     43  C   UNL     1     103.806 123.700 146.534  0.00  0.00    +0.000 C 
ENDBRANCH  40  42
ENDBRANCH  35  40
BRANCH  37  44
ATOM     44  C   UNL     1     106.233 125.325 146.011  0.00  0.00    +0.000 C 
BRANCH  44  45
ATOM     45  O   UNL     1     107.005 125.614 146.050  0.00  0.00    +0.000 OA
BRANCH  45  47
ATOM     46  O   UNL     1     107.776 125.486 147.247  0.00  0.00    +0.000 OA
ATOM     47  C   UNL     1     107.289 125.936 146.754  0.00  0.00    +0.000 C 
ATOM     48  C   UNL     1     107.089 126.707 146.966  0.00  0.00    +0.000 C 
ENDBRANCH  45  47
ENDBRANCH  44  45
ENDBRANCH  37  44
ENDBRANCH  31  39
ENDBRANCH   4  31
TORSDOF 11
ENDMDL
MODEL 2
REMARK VINA RESULT:      -9.6      7.164      8.997
REMARK  Name = 44257844
REMARK  11 active torsions:
REMARK  status: ('A' for Active; 'I' for Inactive)
REMARK    1  A    between atoms: O_3  and  C_18
REMARK    2  A    between atoms: O_3  and  C_31
REMARK    3  A    between atoms: O_5  and  C_22
REMARK    4  A    between atoms: O_5  and  C_30
REMARK    5  A    between atoms: O_9  and  C_27
REMARK    6  A    between atoms: O_9  and  C_32
REMARK    7  A    between atoms: O_11  and  C_28
REMARK    8  A    between atoms: O_11  and  C_35
REMARK    9  A    between atoms: C_20  and  C_28
REMARK   10  A    between atoms: C_25  and  C_29
REMARK   11  A    between atoms: C_42  and  C_43
REMARK                            x       y       z     vdW  Elec       q    Type
REMARK                         _______ _______ _______ _____ _____    ______ ____
ROOT
ATOM      1  O   UNL     1     110.620 127.959 136.024  0.00  0.00    +0.000 OA
ATOM      2  O   UNL     1     110.061 125.263 135.147  0.00  0.00    +0.000 OA
ATOM      3  O   UNL     1     109.161 126.348 134.839  0.00  0.00    +0.000 OA
ATOM      4  C   UNL     1     111.784 126.075 136.325  0.00  0.00    +0.000 A 
ATOM      5  C   UNL     1     111.560 126.904 136.361  0.00  0.00    +0.000 A 
ATOM      6  C   UNL     1     111.278 125.516 135.914  0.00  0.00    +0.000 A 
ATOM      7  C   UNL     1     110.831 127.162 135.986  0.00  0.00    +0.000 A 
ATOM      8  C   UNL     1     110.344 126.625 135.591  0.00  0.00    +0.000 A 
ATOM      9  C   UNL     1     110.553 125.793 135.544  0.00  0.00    +0.000 A 
ATOM     10  C   UNL     1     109.923 128.218 135.667  0.00  0.00    +0.000 A 
ATOM     11  C   UNL     1     109.647 126.885 135.234  0.00  0.00    +0.000 A 
ATOM     12  C   UNL     1     109.437 127.681 135.272  0.00  0.00    +0.000 A 
ENDROOT
BRANCH  10  16
ATOM     13  C   UNL     1     109.291 130.608 135.780  0.00  0.00    +0.000 A 
ATOM     14  C   UNL     1     108.800 130.035 136.113  0.00  0.00    +0.000 A 
ATOM     15  C   UNL     1     109.994 130.385 135.410  0.00  0.00    +0.000 A 
ATOM     16  C   UNL     1     109.712 129.015 135.705  0.00  0.00    +0.000 A 
ATOM     17  C   UNL     1     109.010 129.239 136.075  0.00  0.00    +0.000 A 
ATOM     18  C   UNL     1     110.205 129.588 135.372  0.00  0.00    +0.000 A 
BRANCH  13  19
ATOM     19  O   UNL     1     109.080 131.405 135.818  0.00  0.00    +0.000 OA
BRANCH  19  28
ATOM     20  O   UNL     1     109.390 131.662 137.190  0.00  0.00    +0.000 OA
ATOM     21  O   UNL     1     110.399 133.352 138.133  0.00  0.00    +0.000 OA
ATOM     22  O   UNL     1     110.439 133.811 136.549  0.00  0.00    +0.000 OA
ATOM     23  O   UNL     1     109.779 132.837 135.392  0.00  0.00    +0.000 OA
ATOM     24  C   UNL     1     110.069 132.865 137.555  0.00  0.00    +0.000 C 
ATOM     25  C   UNL     1     110.089 133.094 136.762  0.00  0.00    +0.000 C 
ATOM     26  C   UNL     1     109.720 132.149 137.768  0.00  0.00    +0.000 C 
ATOM     27  C   UNL     1     109.759 132.607 136.184  0.00  0.00    +0.000 C 
ATOM     28  C   UNL     1     109.410 131.892 136.397  0.00  0.00    +0.000 C 
BRANCH  26  30
ATOM     29  O   UNL     1     108.980 131.738 138.920  0.00  0.00    +0.000 OA
ATOM     30  C   UNL     1     109.700 131.919 138.560  0.00  0.00    +0.000 C 
ENDBRANCH  26  30
ENDBRANCH  19  28
ENDBRANCH  13  19
ENDBRANCH  10  16
BRANCH   4  31
ATOM     31  O   UNL     1     112.482 125.818 136.683  0.00  0.00    +0.000 OA
BRANCH  31  39
ATOM     32  O   UNL     1     111.961 125.960 138.005  0.00  0.00    +0.000 OA
ATOM     33  O   UNL     1     114.253 126.296 138.873  0.00  0.00    +0.000 OA
ATOM     34  O   UNL     1     114.011 126.042 137.261  0.00  0.00    +0.000 OA
ATOM     35  C   UNL     1     112.846 126.199 139.100  0.00  0.00    +0.000 C 
ATOM     36  C   UNL     1     113.490 126.184 138.584  0.00  0.00    +0.000 C 
ATOM     37  C   UNL     1     112.082 126.087 138.811  0.00  0.00    +0.000 C 
ATOM     38  C   UNL     1     113.368 126.057 137.777  0.00  0.00    +0.000 C 
ATOM     39  C   UNL     1     112.604 125.945 137.488  0.00  0.00    +0.000 C 
BRANCH  35  40
ATOM     40  O   UNL     1     112.968 126.326 139.907  0.00  0.00    +0.000 OA
BRANCH  40  42
ATOM     41  O   UNL     1     112.863 127.751 139.895  0.00  0.00    +0.000 OA
ATOM     42  C   UNL     1     113.224 127.063 140.174  0.00  0.00    +0.000 C 
ATOM     43  C   UNL     1     113.840 127.113 140.720  0.00  0.00    +0.000 C 
ENDBRANCH  40  42
ENDBRANCH  35  40
BRANCH  37  44
ATOM     44  C   UNL     1     111.439 126.102 139.328  0.00  0.00    +0.000 C 
BRANCH  44  45
ATOM     45  O   UNL     1     110.781 125.627 139.183  0.00  0.00    +0.000 OA
BRANCH  45  47
ATOM     46  O   UNL     1     110.033 125.356 140.371  0.00  0.00    +0.000 OA
ATOM     47  C   UNL     1     110.096 125.722 139.633  0.00  0.00    +0.000 C 
ATOM     48  C   UNL     1     109.474 126.181 139.347  0.00  0.00    +0.000 C 
ENDBRANCH  45  47
ENDBRANCH  44  45
ENDBRANCH  37  44
ENDBRANCH  31  39
ENDBRANCH   4  31
TORSDOF 11
ENDMDL
MODEL 3
REMARK VINA RESULT:      -9.6      8.465     11.467
REMARK  Name = 44257844
REMARK  11 active torsions:
REMARK  status: ('A' for Active; 'I' for Inactive)
REMARK    1  A    between atoms: O_3  and  C_18
REMARK    2  A    between atoms: O_3  and  C_31
REMARK    3  A    between atoms: O_5  and  C_22
REMARK    4  A    between atoms: O_5  and  C_30
REMARK    5  A    between atoms: O_9  and  C_27
REMARK    6  A    between atoms: O_9  and  C_32
REMARK    7  A    between atoms: O_11  and  C_28
REMARK    8  A    between atoms: O_11  and  C_35
REMARK    9  A    between atoms: C_20  and  C_28
REMARK   10  A    between atoms: C_25  and  C_29
REMARK   11  A    between atoms: C_42  and  C_43
REMARK                            x       y       z     vdW  Elec       q    Type
REMARK                         _______ _______ _______ _____ _____    ______ ____
ROOT
ATOM      1  O   UNL     1     112.318 129.105 137.313  0.00  0.00    +0.000 OA
ATOM      2  O   UNL     1     112.833 131.928 136.982  0.00  0.00    +0.000 OA
ATOM      3  O   UNL     1     113.784 130.941 136.534  0.00  0.00    +0.000 OA
ATOM      4  C   UNL     1     111.077 130.872 137.885  0.00  0.00    +0.000 A 
ATOM      5  C   UNL     1     111.327 130.056 137.782  0.00  0.00    +0.000 A 
ATOM      6  C   UNL     1     111.585 131.509 137.615  0.00  0.00    +0.000 A 
ATOM      7  C   UNL     1     112.083 129.889 137.409  0.00  0.00    +0.000 A 
ATOM      8  C   UNL     1     112.572 130.501 137.149  0.00  0.00    +0.000 A 
ATOM      9  C   UNL     1     112.338 131.323 137.245  0.00  0.00    +0.000 A 
ATOM     10  C   UNL     1     113.042 128.932 136.957  0.00  0.00    +0.000 A 
ATOM     11  C   UNL     1     113.296 130.329 136.793  0.00  0.00    +0.000 A 
ATOM     12  C   UNL     1     113.531 129.544 136.697  0.00  0.00    +0.000 A 
ENDROOT
BRANCH  10  16
ATOM     13  C   UNL     1     113.748 126.578 136.668  0.00  0.00    +0.000 A 
ATOM     14  C   UNL     1     113.660 127.066 136.009  0.00  0.00    +0.000 A 
ATOM     15  C   UNL     1     113.601 126.874 137.424  0.00  0.00    +0.000 A 
ATOM     16  C   UNL     1     113.278 128.147 136.860  0.00  0.00    +0.000 A 
ATOM     17  C   UNL     1     113.425 127.851 136.104  0.00  0.00    +0.000 A 
ATOM     18  C   UNL     1     113.366 127.659 137.520  0.00  0.00    +0.000 A 
BRANCH  13  19
ATOM     19  O   UNL     1     113.984 125.793 136.571  0.00  0.00    +0.000 OA
BRANCH  19  28
ATOM     20  O   UNL     1     112.657 125.288 136.404  0.00  0.00    +0.000 OA
ATOM     21  O   UNL     1     111.788 123.356 136.929  0.00  0.00    +0.000 OA
ATOM     22  O   UNL     1     113.342 123.147 137.442  0.00  0.00    +0.000 OA
ATOM     23  O   UNL     1     114.440 124.366 137.263  0.00  0.00    +0.000 OA
ATOM     24  C   UNL     1     112.337 123.965 136.840  0.00  0.00    +0.000 C 
ATOM     25  C   UNL     1     113.114 123.861 137.096  0.00  0.00    +0.000 C 
ATOM     26  C   UNL     1     112.108 124.679 136.494  0.00  0.00    +0.000 C 
ATOM     27  C   UNL     1     113.663 124.471 137.006  0.00  0.00    +0.000 C 
ATOM     28  C   UNL     1     113.435 125.184 136.661  0.00  0.00    +0.000 C 
BRANCH  26  30
ATOM     29  O   UNL     1     111.181 125.028 135.464  0.00  0.00    +0.000 OA
ATOM     30  C   UNL     1     111.331 124.783 136.237  0.00  0.00    +0.000 C 
ENDBRANCH  26  30
ENDBRANCH  19  28
ENDBRANCH  13  19
ENDBRANCH  10  16
BRANCH   4  31
ATOM     31  O   UNL     1     110.351 131.042 138.241  0.00  0.00    +0.000 OA
BRANCH  31  39
ATOM     32  O   UNL     1     109.518 130.465 137.234  0.00  0.00    +0.000 OA
ATOM     33  O   UNL     1     107.886 132.300 137.533  0.00  0.00    +0.000 OA
ATOM     34  O   UNL     1     109.263 132.266 138.441  0.00  0.00    +0.000 OA
ATOM     35  C   UNL     1     108.285 131.094 136.881  0.00  0.00    +0.000 C 
ATOM     36  C   UNL     1     108.429 131.688 137.434  0.00  0.00    +0.000 C 
ATOM     37  C   UNL     1     108.830 130.482 136.781  0.00  0.00    +0.000 C 
ATOM     38  C   UNL     1     109.119 131.671 137.888  0.00  0.00    +0.000 C 
ATOM     39  C   UNL     1     109.663 131.059 137.788  0.00  0.00    +0.000 C 
BRANCH  35  40
ATOM     40  O   UNL     1     107.596 131.111 136.427  0.00  0.00    +0.000 OA
BRANCH  40  42
ATOM     41  O   UNL     1     108.161 131.898 135.376  0.00  0.00    +0.000 OA
ATOM     42  C   UNL     1     107.509 131.673 135.831  0.00  0.00    +0.000 C 
ATOM     43  C   UNL     1     106.771 132.013 135.688  0.00  0.00    +0.000 C 
ENDBRANCH  40  42
ENDBRANCH  35  40
BRANCH  37  44
ATOM     44  C   UNL     1     108.685 129.887 136.227  0.00  0.00    +0.000 C 
BRANCH  44  45
ATOM     45  O   UNL     1     108.867 129.103 136.406  0.00  0.00    +0.000 OA
BRANCH  45  47
ATOM     46  O   UNL     1     108.018 128.165 135.741  0.00  0.00    +0.000 OA
ATOM     47  C   UNL     1     108.760 128.515 135.838  0.00  0.00    +0.000 C 
ATOM     48  C   UNL     1     109.393 128.275 135.367  0.00  0.00    +0.000 C 
ENDBRANCH  45  47
ENDBRANCH  44  45
ENDBRANCH  37  44
ENDBRANCH  31  39
ENDBRANCH   4  31
TORSDOF 11
ENDMDL
MODEL 4
REMARK VINA RESULT:      -9.5      7.466      9.929
REMARK  Name = 44257844
REMARK  11 active torsions:
REMARK  status: ('A' for Active; 'I' for Inactive)
REMARK    1  A    between atoms: O_3  and  C_18
REMARK    2  A    between atoms: O_3  and  C_31
REMARK    3  A    between atoms: O_5  and  C_22
REMARK    4  A    between atoms: O_5  and  C_30
REMARK    5  A    between atoms: O_9  and  C_27
REMARK    6  A    between atoms: O_9  and  C_32
REMARK    7  A    between atoms: O_11  and  C_28
REMARK    8  A    between atoms: O_11  and  C_35
REMARK    9  A    between atoms: C_20  and  C_28
REMARK   10  A    between atoms: C_25  and  C_29
REMARK   11  A    between atoms: C_42  and  C_43
REMARK                            x       y       z     vdW  Elec       q    Type
REMARK                         _______ _______ _______ _____ _____    ______ ____
ROOT
ATOM      1  O   UNL     1     112.887 128.262 138.907  0.00  0.00    +0.000 OA
ATOM      2  O   UNL     1     112.386 129.521 136.355  0.00  0.00    +0.000 OA
ATOM      3  O   UNL     1     112.028 130.174 137.590  0.00  0.00    +0.000 OA
ATOM      4  C   UNL     1     113.311 127.539 136.836  0.00  0.00    +0.000 A 
ATOM      5  C   UNL     1     113.267 127.560 137.694  0.00  0.00    +0.000 A 
ATOM      6  C   UNL     1     113.013 128.202 136.379  0.00  0.00    +0.000 A 
ATOM      7  C   UNL     1     112.926 128.246 138.083  0.00  0.00    +0.000 A 
ATOM      8  C   UNL     1     112.640 128.884 137.644  0.00  0.00    +0.000 A 
ATOM      9  C   UNL     1     112.675 128.879 136.786  0.00  0.00    +0.000 A 
ATOM     10  C   UNL     1     112.561 128.915 139.292  0.00  0.00    +0.000 A 
ATOM     11  C   UNL     1     112.314 129.537 138.029  0.00  0.00    +0.000 A 
ATOM     12  C   UNL     1     112.275 129.553 138.853  0.00  0.00    +0.000 A 
ENDROOT
BRANCH  10  16
ATOM     13  C   UNL     1     112.443 128.963 141.763  0.00  0.00    +0.000 A 
ATOM     14  C   UNL     1     113.118 129.237 141.377  0.00  0.00    +0.000 A 
ATOM     15  C   UNL     1     111.806 128.674 141.325  0.00  0.00    +0.000 A 
ATOM     16  C   UNL     1     112.522 128.932 140.116  0.00  0.00    +0.000 A 
ATOM     17  C   UNL     1     113.158 129.221 140.554  0.00  0.00    +0.000 A 
ATOM     18  C   UNL     1     111.846 128.658 140.501  0.00  0.00    +0.000 A 
BRANCH  13  19
ATOM     19  O   UNL     1     112.403 128.980 142.587  0.00  0.00    +0.000 OA
BRANCH  19  28
ATOM     20  O   UNL     1     112.042 130.355 142.734  0.00  0.00    +0.000 OA
ATOM     21  O   UNL     1     110.655 131.328 144.110  0.00  0.00    +0.000 OA
ATOM     22  O   UNL     1     110.504 129.753 144.578  0.00  0.00    +0.000 OA
ATOM     23  O   UNL     1     111.378 128.580 143.816  0.00  0.00    +0.000 OA
ATOM     24  C   UNL     1     111.092 130.741 143.729  0.00  0.00    +0.000 C 
ATOM     25  C   UNL     1     111.017 129.953 143.963  0.00  0.00    +0.000 C 
ATOM     26  C   UNL     1     111.605 130.942 143.114  0.00  0.00    +0.000 C 
ATOM     27  C   UNL     1     111.454 129.366 143.582  0.00  0.00    +0.000 C 
ATOM     28  C   UNL     1     111.966 129.567 142.968  0.00  0.00    +0.000 C 
BRANCH  26  30
ATOM     29  O   UNL     1     111.348 131.982 142.169  0.00  0.00    +0.000 OA
ATOM     30  C   UNL     1     111.680 131.729 142.880  0.00  0.00    +0.000 C 
ENDBRANCH  26  30
ENDBRANCH  19  28
ENDBRANCH  13  19
ENDBRANCH  10  16
BRANCH   4  31
ATOM     31  O   UNL     1     113.637 126.883 136.453  0.00  0.00    +0.000 OA
BRANCH  31  39
ATOM     32  O   UNL     1     112.436 126.143 136.230  0.00  0.00    +0.000 OA
ATOM     33  O   UNL     1     113.604 124.056 136.861  0.00  0.00    +0.000 OA
ATOM     34  O   UNL     1     114.417 125.491 136.874  0.00  0.00    +0.000 OA
ATOM     35  C   UNL     1     112.420 124.729 136.433  0.00  0.00    +0.000 C 
ATOM     36  C   UNL     1     113.215 124.751 136.650  0.00  0.00    +0.000 C 
ATOM     37  C   UNL     1     112.030 125.425 136.223  0.00  0.00    +0.000 C 
ATOM     38  C   UNL     1     113.621 125.470 136.657  0.00  0.00    +0.000 C 
ATOM     39  C   UNL     1     113.231 126.166 136.447  0.00  0.00    +0.000 C 
BRANCH  35  40
ATOM     40  O   UNL     1     112.013 124.010 136.427  0.00  0.00    +0.000 OA
BRANCH  40  42
ATOM     41  O   UNL     1     111.548 124.059 137.777  0.00  0.00    +0.000 OA
ATOM     42  C   UNL     1     111.841 123.628 137.136  0.00  0.00    +0.000 C 
ATOM     43  C   UNL     1     111.960 122.815 137.207  0.00  0.00    +0.000 C 
ENDBRANCH  40  42
ENDBRANCH  35  40
BRANCH  37  44
ATOM     44  C   UNL     1     111.234 125.402 136.006  0.00  0.00    +0.000 C 
BRANCH  44  45
ATOM     45  O   UNL     1     110.933 125.961 135.480  0.00  0.00    +0.000 OA
BRANCH  45  47
ATOM     46  O   UNL     1     109.822 125.454 134.737  0.00  0.00    +0.000 OA
ATOM     47  C   UNL     1     110.127 125.972 135.304  0.00  0.00    +0.000 C 
ATOM     48  C   UNL     1     109.626 126.497 135.694  0.00  0.00    +0.000 C 
ENDBRANCH  45  47
ENDBRANCH  44  45
ENDBRANCH  37  44
ENDBRANCH  31  39
ENDBRANCH   4  31
TORSDOF 11
ENDMDL
MODEL 5
REMARK VINA RESULT:      -9.4      1.739      3.021
REMARK  Name = 44257844
REMARK  11 active torsions:
REMARK  status: ('A' for Active; 'I' for Inactive)
REMARK    1  A    between atoms: O_3  and  C_18
REMARK    2  A    between atoms: O_3  and  C_31
REMARK    3  A    between atoms: O_5  and  C_22
REMARK    4  A    between atoms: O_5  and  C_30
REMARK    5  A    between atoms: O_9  and  C_27
REMARK    6  A    between atoms: O_9  and  C_32
REMARK    7  A    between atoms: O_11  and  C_28
REMARK    8  A    between atoms: O_11  and  C_35
REMARK    9  A    between atoms: C_20  and  C_28
REMARK   10  A    between atoms: C_25  and  C_29
REMARK   11  A    between atoms: C_42  and  C_43
REMARK                            x       y       z     vdW  Elec       q    Type
REMARK                         _______ _______ _______ _____ _____    ______ ____
ROOT
ATOM      1  O   UNL     1     104.881 128.030 142.912  0.00  0.00    +0.000 OA
ATOM      2  O   UNL     1     107.431 127.993 144.271  0.00  0.00    +0.000 OA
ATOM      3  O   UNL     1     106.757 129.237 143.987  0.00  0.00    +0.000 OA
ATOM      4  C   UNL     1     106.177 126.306 143.500  0.00  0.00    +0.000 A 
ATOM      5  C   UNL     1     105.517 126.750 143.174  0.00  0.00    +0.000 A 
ATOM      6  C   UNL     1     106.827 126.725 143.872  0.00  0.00    +0.000 A 
ATOM      7  C   UNL     1     105.517 127.608 143.226  0.00  0.00    +0.000 A 
ATOM      8  C   UNL     1     106.142 128.011 143.584  0.00  0.00    +0.000 A 
ATOM      9  C   UNL     1     106.810 127.582 143.915  0.00  0.00    +0.000 A 
ATOM     10  C   UNL     1     104.871 128.853 142.956  0.00  0.00    +0.000 A 
ATOM     11  C   UNL     1     106.132 128.835 143.628  0.00  0.00    +0.000 A 
ATOM     12  C   UNL     1     105.496 129.255 143.314  0.00  0.00    +0.000 A 
ENDROOT
BRANCH  10  16
ATOM     13  C   UNL     1     102.964 130.118 142.014  0.00  0.00    +0.000 A 
ATOM     14  C   UNL     1     103.165 130.207 142.809  0.00  0.00    +0.000 A 
ATOM     15  C   UNL     1     103.398 129.608 141.533  0.00  0.00    +0.000 A 
ATOM     16  C   UNL     1     104.235 129.275 142.642  0.00  0.00    +0.000 A 
ATOM     17  C   UNL     1     103.801 129.786 143.123  0.00  0.00    +0.000 A 
ATOM     18  C   UNL     1     104.034 129.186 141.847  0.00  0.00    +0.000 A 
BRANCH  13  19
ATOM     19  O   UNL     1     102.328 130.540 141.700  0.00  0.00    +0.000 OA
BRANCH  19  28
ATOM     20  O   UNL     1     103.080 131.628 141.157  0.00  0.00    +0.000 OA
ATOM     21  O   UNL     1     102.639 133.763 141.065  0.00  0.00    +0.000 OA
ATOM     22  O   UNL     1     101.292 133.200 141.833  0.00  0.00    +0.000 OA
ATOM     23  O   UNL     1     101.137 131.589 142.150  0.00  0.00    +0.000 OA
ATOM     24  C   UNL     1     102.562 132.957 141.223  0.00  0.00    +0.000 C 
ATOM     25  C   UNL     1     101.888 132.676 141.607  0.00  0.00    +0.000 C 
ATOM     26  C   UNL     1     103.158 132.433 140.998  0.00  0.00    +0.000 C 
ATOM     27  C   UNL     1     101.811 131.870 141.766  0.00  0.00    +0.000 C 
ATOM     28  C   UNL     1     102.406 131.346 141.541  0.00  0.00    +0.000 C 
BRANCH  26  30
ATOM     29  O   UNL     1     104.068 132.381 139.897  0.00  0.00    +0.000 OA
ATOM     30  C   UNL     1     103.831 132.714 140.614  0.00  0.00    +0.000 C 
ENDBRANCH  26  30
ENDBRANCH  19  28
ENDBRANCH  13  19
ENDBRANCH  10  16
BRANCH   4  31
ATOM     31  O   UNL     1     106.185 125.481 143.454  0.00  0.00    +0.000 OA
BRANCH  31  39
ATOM     32  O   UNL     1     106.875 125.296 142.217  0.00  0.00    +0.000 OA
ATOM     33  O   UNL     1     105.189 123.621 141.528  0.00  0.00    +0.000 OA
ATOM     34  O   UNL     1     105.060 124.365 142.995  0.00  0.00    +0.000 OA
ATOM     35  C   UNL     1     106.376 124.366 141.254  0.00  0.00    +0.000 C 
ATOM     36  C   UNL     1     105.750 124.179 141.757  0.00  0.00    +0.000 C 
ATOM     37  C   UNL     1     106.938 124.924 141.484  0.00  0.00    +0.000 C 
ATOM     38  C   UNL     1     105.686 124.551 142.492  0.00  0.00    +0.000 C 
ATOM     39  C   UNL     1     106.249 125.110 142.721  0.00  0.00    +0.000 C 
BRANCH  35  40
ATOM     40  O   UNL     1     106.440 123.993 140.520  0.00  0.00    +0.000 OA
BRANCH  40  42
ATOM     41  O   UNL     1     105.751 124.924 139.682  0.00  0.00    +0.000 OA
ATOM     42  C   UNL     1     105.886 124.148 139.930  0.00  0.00    +0.000 C 
ATOM     43  C   UNL     1     105.465 123.527 139.587  0.00  0.00    +0.000 C 
ENDBRANCH  40  42
ENDBRANCH  35  40
BRANCH  37  44
ATOM     44  C   UNL     1     107.564 125.110 140.979  0.00  0.00    +0.000 C 
BRANCH  44  45
ATOM     45  O   UNL     1     108.278 125.382 141.290  0.00  0.00    +0.000 OA
BRANCH  45  47
ATOM     46  O   UNL     1     109.475 124.984 140.616  0.00  0.00    +0.000 OA
ATOM     47  C   UNL     1     108.907 125.559 140.786  0.00  0.00    +0.000 C 
ATOM     48  C   UNL     1     108.969 126.311 140.451  0.00  0.00    +0.000 C 
ENDBRANCH  45  47
ENDBRANCH  44  45
ENDBRANCH  37  44
ENDBRANCH  31  39
ENDBRANCH   4  31
TORSDOF 11
ENDMDL
MODEL 6
REMARK VINA RESULT:      -9.3      5.748      8.821
REMARK  Name = 44257844
REMARK  11 active torsions:
REMARK  status: ('A' for Active; 'I' for Inactive)
REMARK    1  A    between atoms: O_3  and  C_18
REMARK    2  A    between atoms: O_3  and  C_31
REMARK    3  A    between atoms: O_5  and  C_22
REMARK    4  A    between atoms: O_5  and  C_30
REMARK    5  A    between atoms: O_9  and  C_27
REMARK    6  A    between atoms: O_9  and  C_32
REMARK    7  A    between atoms: O_11  and  C_28
REMARK    8  A    between atoms: O_11  and  C_35
REMARK    9  A    between atoms: C_20  and  C_28
REMARK   10  A    between atoms: C_25  and  C_29
REMARK   11  A    between atoms: C_42  and  C_43
REMARK                            x       y       z     vdW  Elec       q    Type
REMARK                         _______ _______ _______ _____ _____    ______ ____
ROOT
ATOM      1  O   UNL     1     109.175 126.648 138.849  0.00  0.00    +0.000 OA
ATOM      2  O   UNL     1     111.223 125.389 137.245  0.00  0.00    +0.000 OA
ATOM      3  O   UNL     1     111.147 125.162 138.668  0.00  0.00    +0.000 OA
ATOM      4  C   UNL     1     109.572 126.782 136.654  0.00  0.00    +0.000 A 
ATOM      5  C   UNL     1     109.206 126.910 137.421  0.00  0.00    +0.000 A 
ATOM      6  C   UNL     1     110.256 126.267 136.591  0.00  0.00    +0.000 A 
ATOM      7  C   UNL     1     109.530 126.521 138.115  0.00  0.00    +0.000 A 
ATOM      8  C   UNL     1     110.188 126.026 138.055  0.00  0.00    +0.000 A 
ATOM      9  C   UNL     1     110.566 125.886 137.296  0.00  0.00    +0.000 A 
ATOM     10  C   UNL     1     109.477 126.279 139.522  0.00  0.00    +0.000 A 
ATOM     11  C   UNL     1     110.490 125.657 138.728  0.00  0.00    +0.000 A 
ATOM     12  C   UNL     1     110.135 125.784 139.462  0.00  0.00    +0.000 A 
ENDROOT
BRANCH  10  16
ATOM     13  C   UNL     1     108.412 126.658 141.724  0.00  0.00    +0.000 A 
ATOM     14  C   UNL     1     108.962 127.200 141.432  0.00  0.00    +0.000 A 
ATOM     15  C   UNL     1     108.218 125.990 141.281  0.00  0.00    +0.000 A 
ATOM     16  C   UNL     1     109.122 126.406 140.256  0.00  0.00    +0.000 A 
ATOM     17  C   UNL     1     109.317 127.075 140.699  0.00  0.00    +0.000 A 
ATOM     18  C   UNL     1     108.573 125.863 140.547  0.00  0.00    +0.000 A 
BRANCH  13  19
ATOM     19  O   UNL     1     108.058 126.785 142.458  0.00  0.00    +0.000 OA
BRANCH  19  28
ATOM     20  O   UNL     1     106.972 127.612 142.030  0.00  0.00    +0.000 OA
ATOM     21  O   UNL     1     104.873 127.633 142.626  0.00  0.00    +0.000 OA
ATOM     22  O   UNL     1     105.450 126.405 143.564  0.00  0.00    +0.000 OA
ATOM     23  O   UNL     1     107.042 125.981 143.480  0.00  0.00    +0.000 OA
ATOM     24  C   UNL     1     105.669 127.421 142.584  0.00  0.00    +0.000 C 
ATOM     25  C   UNL     1     105.958 126.807 143.053  0.00  0.00    +0.000 C 
ATOM     26  C   UNL     1     106.176 127.823 142.072  0.00  0.00    +0.000 C 
ATOM     27  C   UNL     1     106.754 126.595 143.011  0.00  0.00    +0.000 C 
ATOM     28  C   UNL     1     107.261 126.997 142.500  0.00  0.00    +0.000 C 
BRANCH  26  30
ATOM     29  O   UNL     1     106.363 129.092 141.441  0.00  0.00    +0.000 OA
ATOM     30  C   UNL     1     105.888 128.437 141.603  0.00  0.00    +0.000 C 
ENDBRANCH  26  30
ENDBRANCH  19  28
ENDBRANCH  13  19
ENDBRANCH  10  16
BRANCH   4  31
ATOM     31  O   UNL     1     109.267 127.152 135.981  0.00  0.00    +0.000 OA
BRANCH  31  39
ATOM     32  O   UNL     1     110.229 128.189 135.777  0.00  0.00    +0.000 OA
ATOM     33  O   UNL     1     108.400 129.829 135.486  0.00  0.00    +0.000 OA
ATOM     34  O   UNL     1     108.047 128.246 135.787  0.00  0.00    +0.000 OA
ATOM     35  C   UNL     1     109.795 129.527 135.530  0.00  0.00    +0.000 C 
ATOM     36  C   UNL     1     109.009 129.283 135.583  0.00  0.00    +0.000 C 
ATOM     37  C   UNL     1     110.405 128.980 135.627  0.00  0.00    +0.000 C 
ATOM     38  C   UNL     1     108.833 128.490 135.734  0.00  0.00    +0.000 C 
ATOM     39  C   UNL     1     109.443 127.943 135.831  0.00  0.00    +0.000 C 
BRANCH  35  40
ATOM     40  O   UNL     1     109.971 130.320 135.379  0.00  0.00    +0.000 OA
BRANCH  40  42
ATOM     41  O   UNL     1     110.034 130.786 136.728  0.00  0.00    +0.000 OA
ATOM     42  C   UNL     1     109.799 130.894 135.944  0.00  0.00    +0.000 C 
ATOM     43  C   UNL     1     109.393 131.579 135.727  0.00  0.00    +0.000 C 
ENDBRANCH  40  42
ENDBRANCH  35  40
BRANCH  37  44
ATOM     44  C   UNL     1     111.191 129.226 135.574  0.00  0.00    +0.000 C 
BRANCH  44  45
ATOM     45  O   UNL     1     111.774 128.695 135.335  0.00  0.00    +0.000 OA
BRANCH  45  47
ATOM     46  O   UNL     1     112.846 129.306 134.612  0.00  0.00    +0.000 OA
ATOM     47  C   UNL     1     112.562 128.937 135.294  0.00  0.00    +0.000 C 
ATOM     48  C   UNL     1     113.066 128.810 135.934  0.00  0.00    +0.000 C 
ENDBRANCH  45  47
ENDBRANCH  44  45
ENDBRANCH  37  44
ENDBRANCH  31  39
ENDBRANCH   4  31
TORSDOF 11
ENDMDL
MODEL 7
REMARK VINA RESULT:      -9.3      6.591      8.667
REMARK  Name = 44257844
REMARK  11 active torsions:
REMARK  status: ('A' for Active; 'I' for Inactive)
REMARK    1  A    between atoms: O_3  and  C_18
REMARK    2  A    between atoms: O_3  and  C_31
REMARK    3  A    between atoms: O_5  and  C_22
REMARK    4  A    between atoms: O_5  and  C_30
REMARK    5  A    between atoms: O_9  and  C_27
REMARK    6  A    between atoms: O_9  and  C_32
REMARK    7  A    between atoms: O_11  and  C_28
REMARK    8  A    between atoms: O_11  and  C_35
REMARK    9  A    between atoms: C_20  and  C_28
REMARK   10  A    between atoms: C_25  and  C_29
REMARK   11  A    between atoms: C_42  and  C_43
REMARK                            x       y       z     vdW  Elec       q    Type
REMARK                         _______ _______ _______ _____ _____    ______ ____
ROOT
ATOM      1  O   UNL     1     112.409 129.813 139.310  0.00  0.00    +0.000 OA
ATOM      2  O   UNL     1     114.788 130.523 140.787  0.00  0.00    +0.000 OA
ATOM      3  O   UNL     1     114.632 130.898 139.403  0.00  0.00    +0.000 OA
ATOM      4  C   UNL     1     112.964 129.395 141.433  0.00  0.00    +0.000 A 
ATOM      5  C   UNL     1     112.515 129.410 140.701  0.00  0.00    +0.000 A 
ATOM      6  C   UNL     1     113.735 129.772 141.466  0.00  0.00    +0.000 A 
ATOM      7  C   UNL     1     112.844 129.802 140.010  0.00  0.00    +0.000 A 
ATOM      8  C   UNL     1     113.585 130.164 140.041  0.00  0.00    +0.000 A 
ATOM      9  C   UNL     1     114.048 130.158 140.766  0.00  0.00    +0.000 A 
ATOM     10  C   UNL     1     112.714 130.186 138.640  0.00  0.00    +0.000 A 
ATOM     11  C   UNL     1     113.891 130.537 139.372  0.00  0.00    +0.000 A 
ATOM     12  C   UNL     1     113.455 130.548 138.672  0.00  0.00    +0.000 A 
ENDROOT
BRANCH  10  16
ATOM     13  C   UNL     1     111.410 130.220 136.538  0.00  0.00    +0.000 A 
ATOM     14  C   UNL     1     111.267 130.785 137.121  0.00  0.00    +0.000 A 
ATOM     15  C   UNL     1     111.987 129.643 136.655  0.00  0.00    +0.000 A 
ATOM     16  C   UNL     1     112.279 130.198 137.939  0.00  0.00    +0.000 A 
ATOM     17  C   UNL     1     111.702 130.775 137.822  0.00  0.00    +0.000 A 
ATOM     18  C   UNL     1     112.422 129.631 137.356  0.00  0.00    +0.000 A 
BRANCH  13  19
ATOM     19  O   UNL     1     110.974 130.231 135.837  0.00  0.00    +0.000 OA
BRANCH  19  28
ATOM     20  O   UNL     1     110.067 129.157 136.094  0.00  0.00    +0.000 OA
ATOM     21  O   UNL     1     107.914 128.999 135.775  0.00  0.00    +0.000 OA
ATOM     22  O   UNL     1     108.198 130.529 135.229  0.00  0.00    +0.000 OA
ATOM     23  O   UNL     1     109.728 131.145 135.261  0.00  0.00    +0.000 OA
ATOM     24  C   UNL     1     108.679 129.307 135.790  0.00  0.00    +0.000 C 
ATOM     25  C   UNL     1     108.821 130.072 135.518  0.00  0.00    +0.000 C 
ATOM     26  C   UNL     1     109.302 128.849 136.079  0.00  0.00    +0.000 C 
ATOM     27  C   UNL     1     109.587 130.380 135.533  0.00  0.00    +0.000 C 
ATOM     28  C   UNL     1     110.209 129.923 135.821  0.00  0.00    +0.000 C 
BRANCH  26  30
ATOM     29  O   UNL     1     109.188 127.921 137.160  0.00  0.00    +0.000 OA
ATOM     30  C   UNL     1     109.161 128.084 136.351  0.00  0.00    +0.000 C 
ENDBRANCH  26  30
ENDBRANCH  19  28
ENDBRANCH  13  19
ENDBRANCH  10  16
BRANCH   4  31
ATOM     31  O   UNL     1     112.655 129.021 142.102  0.00  0.00    +0.000 OA
BRANCH  31  39
ATOM     32  O   UNL     1     112.068 130.183 142.691  0.00  0.00    +0.000 OA
ATOM     33  O   UNL     1     110.158 128.821 143.475  0.00  0.00    +0.000 OA
ATOM     34  O   UNL     1     111.381 128.113 142.625  0.00  0.00    +0.000 OA
ATOM     35  C   UNL     1     110.820 130.083 143.377  0.00  0.00    +0.000 C 
ATOM     36  C   UNL     1     110.794 129.275 143.214  0.00  0.00    +0.000 C 
ATOM     37  C   UNL     1     111.457 130.537 143.115  0.00  0.00    +0.000 C 
ATOM     38  C   UNL     1     111.407 128.921 142.788  0.00  0.00    +0.000 C 
ATOM     39  C   UNL     1     112.044 129.375 142.527  0.00  0.00    +0.000 C 
BRANCH  35  40
ATOM     40  O   UNL     1     110.207 130.437 143.803  0.00  0.00    +0.000 OA
BRANCH  40  42
ATOM     41  O   UNL     1     109.382 130.867 142.719  0.00  0.00    +0.000 OA
ATOM     42  C   UNL     1     109.461 130.517 143.462  0.00  0.00    +0.000 C 
ATOM     43  C   UNL     1     108.793 130.246 143.863  0.00  0.00    +0.000 C 
ENDBRANCH  40  42
ENDBRANCH  35  40
BRANCH  37  44
ATOM     44  C   UNL     1     111.481 131.346 143.279  0.00  0.00    +0.000 C 
BRANCH  44  45
ATOM     45  O   UNL     1     112.204 131.718 143.417  0.00  0.00    +0.000 OA
BRANCH  45  47
ATOM     46  O   UNL     1     111.898 133.040 142.966  0.00  0.00    +0.000 OA
ATOM     47  C   UNL     1     112.234 132.535 143.527  0.00  0.00    +0.000 C 
ATOM     48  C   UNL     1     112.598 132.848 144.197  0.00  0.00    +0.000 C 
ENDBRANCH  45  47
ENDBRANCH  44  45
ENDBRANCH  37  44
ENDBRANCH  31  39
ENDBRANCH   4  31
TORSDOF 11
ENDMDL
MODEL 8
REMARK VINA RESULT:      -9.3      1.541      7.764
REMARK  Name = 44257844
REMARK  11 active torsions:
REMARK  status: ('A' for Active; 'I' for Inactive)
REMARK    1  A    between atoms: O_3  and  C_18
REMARK    2  A    between atoms: O_3  and  C_31
REMARK    3  A    between atoms: O_5  and  C_22
REMARK    4  A    between atoms: O_5  and  C_30
REMARK    5  A    between atoms: O_9  and  C_27
REMARK    6  A    between atoms: O_9  and  C_32
REMARK    7  A    between atoms: O_11  and  C_28
REMARK    8  A    between atoms: O_11  and  C_35
REMARK    9  A    between atoms: C_20  and  C_28
REMARK   10  A    between atoms: C_25  and  C_29
REMARK   11  A    between atoms: C_42  and  C_43
REMARK                            x       y       z     vdW  Elec       q    Type
REMARK                         _______ _______ _______ _____ _____    ______ ____
ROOT
ATOM      1  O   UNL     1     104.350 129.174 143.215  0.00  0.00    +0.000 OA
ATOM      2  O   UNL     1     103.296 129.199 140.525  0.00  0.00    +0.000 OA
ATOM      3  O   UNL     1     104.316 128.257 140.916  0.00  0.00    +0.000 OA
ATOM      4  C   UNL     1     102.790 130.481 142.291  0.00  0.00    +0.000 A 
ATOM      5  C   UNL     1     103.324 130.144 142.874  0.00  0.00    +0.000 A 
ATOM      6  C   UNL     1     102.778 130.162 141.493  0.00  0.00    +0.000 A 
ATOM      7  C   UNL     1     103.839 129.493 142.651  0.00  0.00    +0.000 A 
ATOM      8  C   UNL     1     103.828 129.187 141.885  0.00  0.00    +0.000 A 
ATOM      9  C   UNL     1     103.301 129.512 141.289  0.00  0.00    +0.000 A 
ATOM     10  C   UNL     1     104.849 128.549 143.013  0.00  0.00    +0.000 A 
ATOM     11  C   UNL     1     104.327 128.562 141.683  0.00  0.00    +0.000 A 
ATOM     12  C   UNL     1     104.837 128.244 142.247  0.00  0.00    +0.000 A 
ENDROOT
BRANCH  10  16
ATOM     13  C   UNL     1     106.380 127.591 144.705  0.00  0.00    +0.000 A 
ATOM     14  C   UNL     1     106.573 127.551 143.904  0.00  0.00    +0.000 A 
ATOM     15  C   UNL     1     105.676 127.950 144.942  0.00  0.00    +0.000 A 
ATOM     16  C   UNL     1     105.359 128.230 143.577  0.00  0.00    +0.000 A 
ATOM     17  C   UNL     1     106.063 127.870 143.339  0.00  0.00    +0.000 A 
ATOM     18  C   UNL     1     105.166 128.270 144.378  0.00  0.00    +0.000 A 
BRANCH  13  19
ATOM     19  O   UNL     1     106.891 127.272 145.269  0.00  0.00    +0.000 OA
BRANCH  19  28
ATOM     20  O   UNL     1     106.343 125.951 145.261  0.00  0.00    +0.000 OA
ATOM     21  O   UNL     1     106.054 124.516 146.879  0.00  0.00    +0.000 OA
ATOM     22  O   UNL     1     106.730 125.777 147.699  0.00  0.00    +0.000 OA
ATOM     23  O   UNL     1     107.148 127.155 146.894  0.00  0.00    +0.000 OA
ATOM     24  C   UNL     1     106.263 125.204 146.476  0.00  0.00    +0.000 C 
ATOM     25  C   UNL     1     106.601 125.836 146.886  0.00  0.00    +0.000 C 
ATOM     26  C   UNL     1     106.134 125.262 145.663  0.00  0.00    +0.000 C 
ATOM     27  C   UNL     1     106.810 126.525 146.483  0.00  0.00    +0.000 C 
ATOM     28  C   UNL     1     106.681 126.583 145.671  0.00  0.00    +0.000 C 
BRANCH  26  30
ATOM     29  O   UNL     1     106.201 124.284 144.624  0.00  0.00    +0.000 OA
ATOM     30  C   UNL     1     105.796 124.632 145.253  0.00  0.00    +0.000 C 
ENDBRANCH  26  30
ENDBRANCH  19  28
ENDBRANCH  13  19
ENDBRANCH  10  16
BRANCH   4  31
ATOM     31  O   UNL     1     102.292 131.106 142.496  0.00  0.00    +0.000 OA
BRANCH  31  39
ATOM     32  O   UNL     1     103.244 132.167 142.395  0.00  0.00    +0.000 OA
ATOM     33  O   UNL     1     101.528 133.605 141.340  0.00  0.00    +0.000 OA
ATOM     34  O   UNL     1     101.148 132.065 141.793  0.00  0.00    +0.000 OA
ATOM     35  C   UNL     1     102.861 133.416 141.817  0.00  0.00    +0.000 C 
ATOM     36  C   UNL     1     102.100 133.126 141.691  0.00  0.00    +0.000 C 
ATOM     37  C   UNL     1     103.433 132.937 142.168  0.00  0.00    +0.000 C 
ATOM     38  C   UNL     1     101.910 132.355 141.918  0.00  0.00    +0.000 C 
ATOM     39  C   UNL     1     102.482 131.876 142.270  0.00  0.00    +0.000 C 
BRANCH  35  40
ATOM     40  O   UNL     1     103.051 134.187 141.590  0.00  0.00    +0.000 OA
BRANCH  40  42
ATOM     41  O   UNL     1     103.488 133.905 140.259  0.00  0.00    +0.000 OA
ATOM     42  C   UNL     1     103.079 134.386 140.791  0.00  0.00    +0.000 C 
ATOM     43  C   UNL     1     102.699 135.067 140.521  0.00  0.00    +0.000 C 
ENDBRANCH  40  42
ENDBRANCH  35  40
BRANCH  37  44
ATOM     44  C   UNL     1     104.195 133.228 142.293  0.00  0.00    +0.000 C 
BRANCH  44  45
ATOM     45  O   UNL     1     104.618 133.006 142.965  0.00  0.00    +0.000 OA
BRANCH  45  47
ATOM     46  O   UNL     1     105.981 132.934 142.543  0.00  0.00    +0.000 OA
ATOM     47  C   UNL     1     105.405 133.235 143.053  0.00  0.00    +0.000 C 
ATOM     48  C   UNL     1     105.618 133.763 143.649  0.00  0.00    +0.000 C 
ENDBRANCH  45  47
ENDBRANCH  44  45
ENDBRANCH  37  44
ENDBRANCH  31  39
ENDBRANCH   4  31
TORSDOF 11
ENDMDL
MODEL 9
REMARK VINA RESULT:      -9.3      7.449     10.591
REMARK  Name = 44257844
REMARK  11 active torsions:
REMARK  status: ('A' for Active; 'I' for Inactive)
REMARK    1  A    between atoms: O_3  and  C_18
REMARK    2  A    between atoms: O_3  and  C_31
REMARK    3  A    between atoms: O_5  and  C_22
REMARK    4  A    between atoms: O_5  and  C_30
REMARK    5  A    between atoms: O_9  and  C_27
REMARK    6  A    between atoms: O_9  and  C_32
REMARK    7  A    between atoms: O_11  and  C_28
REMARK    8  A    between atoms: O_11  and  C_35
REMARK    9  A    between atoms: C_20  and  C_28
REMARK   10  A    between atoms: C_25  and  C_29
REMARK   11  A    between atoms: C_42  and  C_43
REMARK                            x       y       z     vdW  Elec       q    Type
REMARK                         _______ _______ _______ _____ _____    ______ ____
ROOT
ATOM      1  O   UNL     1     113.087 127.549 138.574  0.00  0.00    +0.000 OA
ATOM      2  O   UNL     1     114.129 125.556 136.760  0.00  0.00    +0.000 OA
ATOM      3  O   UNL     1     114.045 125.301 138.177  0.00  0.00    +0.000 OA
ATOM      4  C   UNL     1     113.352 127.617 136.356  0.00  0.00    +0.000 A 
ATOM      5  C   UNL     1     113.149 127.858 137.156  0.00  0.00    +0.000 A 
ATOM      6  C   UNL     1     113.684 126.838 136.218  0.00  0.00    +0.000 A 
ATOM      7  C   UNL     1     113.283 127.314 137.808  0.00  0.00    +0.000 A 
ATOM      8  C   UNL     1     113.602 126.564 137.676  0.00  0.00    +0.000 A 
ATOM      9  C   UNL     1     113.810 126.308 136.883  0.00  0.00    +0.000 A 
ATOM     10  C   UNL     1     113.210 127.035 139.208  0.00  0.00    +0.000 A 
ATOM     11  C   UNL     1     113.726 126.050 138.310  0.00  0.00    +0.000 A 
ATOM     12  C   UNL     1     113.530 126.286 139.075  0.00  0.00    +0.000 A 
ENDROOT
BRANCH  10  16
ATOM     13  C   UNL     1     112.622 127.741 141.506  0.00  0.00    +0.000 A 
ATOM     14  C   UNL     1     113.408 127.764 141.255  0.00  0.00    +0.000 A 
ATOM     15  C   UNL     1     112.032 127.482 140.990  0.00  0.00    +0.000 A 
ATOM     16  C   UNL     1     113.015 127.270 139.974  0.00  0.00    +0.000 A 
ATOM     17  C   UNL     1     113.604 127.529 140.489  0.00  0.00    +0.000 A 
ATOM     18  C   UNL     1     112.228 127.247 140.224  0.00  0.00    +0.000 A 
BRANCH  13  19
ATOM     19  O   UNL     1     112.426 127.976 142.272  0.00  0.00    +0.000 OA
BRANCH  19  28
ATOM     20  O   UNL     1     112.437 129.386 142.037  0.00  0.00    +0.000 OA
ATOM     21  O   UNL     1     111.145 130.970 142.801  0.00  0.00    +0.000 OA
ATOM     22  O   UNL     1     110.484 129.649 143.535  0.00  0.00    +0.000 OA
ATOM     23  O   UNL     1     111.125 128.152 143.271  0.00  0.00    +0.000 OA
ATOM     24  C   UNL     1     111.465 130.222 142.669  0.00  0.00    +0.000 C 
ATOM     25  C   UNL     1     111.135 129.561 143.036  0.00  0.00    +0.000 C 
ATOM     26  C   UNL     1     112.116 130.135 142.169  0.00  0.00    +0.000 C 
ATOM     27  C   UNL     1     111.456 128.812 142.903  0.00  0.00    +0.000 C 
ATOM     28  C   UNL     1     112.106 128.725 142.404  0.00  0.00    +0.000 C 
BRANCH  26  30
ATOM     29  O   UNL     1     113.234 130.994 141.942  0.00  0.00    +0.000 OA
ATOM     30  C   UNL     1     112.446 130.795 141.802  0.00  0.00    +0.000 C 
ENDBRANCH  26  30
ENDBRANCH  19  28
ENDBRANCH  13  19
ENDBRANCH  10  16
BRANCH   4  31
ATOM     31  O   UNL     1     113.227 128.134 135.724  0.00  0.00    +0.000 OA
BRANCH  31  39
ATOM     32  O   UNL     1     111.884 127.730 135.451  0.00  0.00    +0.000 OA
ATOM     33  O   UNL     1     111.302 130.061 134.862  0.00  0.00    +0.000 OA
ATOM     34  O   UNL     1     112.839 129.689 135.331  0.00  0.00    +0.000 OA
ATOM     35  C   UNL     1     110.922 128.694 135.020  0.00  0.00    +0.000 C 
ATOM     36  C   UNL     1     111.496 129.285 135.058  0.00  0.00    +0.000 C 
ATOM     37  C   UNL     1     111.116 127.916 135.217  0.00  0.00    +0.000 C 
ATOM     38  C   UNL     1     112.265 129.098 135.293  0.00  0.00    +0.000 C 
ATOM     39  C   UNL     1     112.459 128.320 135.489  0.00  0.00    +0.000 C 
BRANCH  35  40
ATOM     40  O   UNL     1     110.153 128.881 134.785  0.00  0.00    +0.000 OA
BRANCH  40  42
ATOM     41  O   UNL     1     109.567 129.179 136.054  0.00  0.00    +0.000 OA
ATOM     42  C   UNL     1     109.684 129.366 135.258  0.00  0.00    +0.000 C 
ATOM     43  C   UNL     1     109.331 130.039 134.938  0.00  0.00    +0.000 C 
ENDBRANCH  40  42
ENDBRANCH  35  40
BRANCH  37  44
ATOM     44  C   UNL     1     110.540 127.326 135.179  0.00  0.00    +0.000 C 
BRANCH  44  45
ATOM     45  O   UNL     1     110.760 126.544 135.036  0.00  0.00    +0.000 OA
BRANCH  45  47
ATOM     46  O   UNL     1     110.217 125.596 135.957  0.00  0.00    +0.000 OA
ATOM     47  C   UNL     1     110.234 125.930 135.202  0.00  0.00    +0.000 C 
ATOM     48  C   UNL     1     109.726 125.651 134.616  0.00  0.00    +0.000 C 
ENDBRANCH  45  47
ENDBRANCH  44  45
ENDBRANCH  37  44
ENDBRANCH  31  39
ENDBRANCH   4  31
TORSDOF 11
ENDMDL
MODEL 10
REMARK VINA RESULT:      -9.2      7.138      8.656
REMARK  Name = 44257844
REMARK  11 active torsions:
REMARK  status: ('A' for Active; 'I' for Inactive)
REMARK    1  A    between atoms: O_3  and  C_18
REMARK    2  A    between atoms: O_3  and  C_31
REMARK    3  A    between atoms: O_5  and  C_22
REMARK    4  A    between atoms: O_5  and  C_30
REMARK    5  A    between atoms: O_9  and  C_27
REMARK    6  A    between atoms: O_9  and  C_32
REMARK    7  A    between atoms: O_11  and  C_28
REMARK    8  A    between atoms: O_11  and  C_35
REMARK    9  A    between atoms: C_20  and  C_28
REMARK   10  A    between atoms: C_25  and  C_29
REMARK   11  A    between atoms: C_42  and  C_43
REMARK                            x       y       z     vdW  Elec       q    Type
REMARK                         _______ _______ _______ _____ _____    ______ ____
ROOT
ATOM      1  O   UNL     1     111.704 128.313 138.855  0.00  0.00    +0.000 OA
ATOM      2  O   UNL     1     113.889 126.525 139.469  0.00  0.00    +0.000 OA
ATOM      3  O   UNL     1     113.510 126.794 138.104  0.00  0.00    +0.000 OA
ATOM      4  C   UNL     1     112.541 127.685 140.829  0.00  0.00    +0.000 A 
ATOM      5  C   UNL     1     112.045 128.076 140.246  0.00  0.00    +0.000 A 
ATOM      6  C   UNL     1     113.167 127.158 140.569  0.00  0.00    +0.000 A 
ATOM      7  C   UNL     1     112.183 127.935 139.410  0.00  0.00    +0.000 A 
ATOM      8  C   UNL     1     112.785 127.428 139.159  0.00  0.00    +0.000 A 
ATOM      9  C   UNL     1     113.290 127.029 139.729  0.00  0.00    +0.000 A 
ATOM     10  C   UNL     1     111.827 128.184 138.049  0.00  0.00    +0.000 A 
ATOM     11  C   UNL     1     112.908 127.300 138.354  0.00  0.00    +0.000 A 
ATOM     12  C   UNL     1     112.429 127.678 137.799  0.00  0.00    +0.000 A 
ENDROOT
BRANCH  10  16
ATOM     13  C   UNL     1     110.392 129.318 136.382  0.00  0.00    +0.000 A 
ATOM     14  C   UNL     1     110.088 128.700 136.836  0.00  0.00    +0.000 A 
ATOM     15  C   UNL     1     111.175 129.558 136.484  0.00  0.00    +0.000 A 
ATOM     16  C   UNL     1     111.349 128.562 137.493  0.00  0.00    +0.000 A 
ATOM     17  C   UNL     1     110.566 128.322 137.392  0.00  0.00    +0.000 A 
ATOM     18  C   UNL     1     111.654 129.181 137.039  0.00  0.00    +0.000 A 
BRANCH  13  19
ATOM     19  O   UNL     1     109.913 129.696 135.826  0.00  0.00    +0.000 OA
BRANCH  19  28
ATOM     20  O   UNL     1     109.575 130.864 136.578  0.00  0.00    +0.000 OA
ATOM     21  O   UNL     1     107.675 131.912 136.812  0.00  0.00    +0.000 OA
ATOM     22  O   UNL     1     107.232 130.685 135.802  0.00  0.00    +0.000 OA
ATOM     23  O   UNL     1     108.351 129.577 135.310  0.00  0.00    +0.000 OA
ATOM     24  C   UNL     1     108.235 131.358 136.566  0.00  0.00    +0.000 C 
ATOM     25  C   UNL     1     108.013 130.744 136.061  0.00  0.00    +0.000 C 
ATOM     26  C   UNL     1     109.016 131.418 136.825  0.00  0.00    +0.000 C 
ATOM     27  C   UNL     1     108.573 130.190 135.815  0.00  0.00    +0.000 C 
ATOM     28  C   UNL     1     109.353 130.250 136.073  0.00  0.00    +0.000 C 
BRANCH  26  30
ATOM     29  O   UNL     1     109.848 132.543 137.114  0.00  0.00    +0.000 OA
ATOM     30  C   UNL     1     109.238 132.031 137.329  0.00  0.00    +0.000 C 
ENDBRANCH  26  30
ENDBRANCH  19  28
ENDBRANCH  13  19
ENDBRANCH  10  16
BRANCH   4  31
ATOM     31  O   UNL     1     112.416 127.815 141.635  0.00  0.00    +0.000 OA
BRANCH  31  39
ATOM     32  O   UNL     1     112.925 129.150 141.623  0.00  0.00    +0.000 OA
ATOM     33  O   UNL     1     111.367 129.761 143.445  0.00  0.00    +0.000 OA
ATOM     34  O   UNL     1     111.376 128.223 142.850  0.00  0.00    +0.000 OA
ATOM     35  C   UNL     1     112.401 130.123 142.528  0.00  0.00    +0.000 C 
ATOM     36  C   UNL     1     111.886 129.558 142.838  0.00  0.00    +0.000 C 
ATOM     37  C   UNL     1     112.920 129.919 141.921  0.00  0.00    +0.000 C 
ATOM     38  C   UNL     1     111.891 128.788 142.540  0.00  0.00    +0.000 C 
ATOM     39  C   UNL     1     112.411 128.584 141.933  0.00  0.00    +0.000 C 
BRANCH  35  40
ATOM     40  O   UNL     1     112.395 130.893 142.826  0.00  0.00    +0.000 OA
BRANCH  40  42
ATOM     41  O   UNL     1     111.447 131.485 141.937  0.00  0.00    +0.000 OA
ATOM     42  C   UNL     1     111.742 131.379 142.701  0.00  0.00    +0.000 C 
ATOM     43  C   UNL     1     111.382 131.759 143.338  0.00  0.00    +0.000 C 
ENDBRANCH  40  42
ENDBRANCH  35  40
BRANCH  37  44
ATOM     44  C   UNL     1     113.435 130.485 141.611  0.00  0.00    +0.000 C 
BRANCH  44  45
ATOM     45  O   UNL     1     114.171 130.258 141.318  0.00  0.00    +0.000 OA
BRANCH  45  47
ATOM     46  O   UNL     1     114.912 131.480 141.265  0.00  0.00    +0.000 OA
ATOM     47  C   UNL     1     114.631 130.796 140.895  0.00  0.00    +0.000 C 
ATOM     48  C   UNL     1     114.812 130.653 140.103  0.00  0.00    +0.000 C 
ENDBRANCH  45  47
ENDBRANCH  44  45
ENDBRANCH  37  44
ENDBRANCH  31  39
ENDBRANCH   4  31
TORSDOF 11
ENDMDL
