MODEL 1
REMARK VINA RESULT:      -9.7      0.000      0.000
REMARK  Name = 10456395
REMARK  4 active torsions:
REMARK  status: ('A' for Active; 'I' for Inactive)
REMARK    1  A    between atoms: O_2  and  C_16
REMARK    2  A    between atoms: O_2  and  C_19
REMARK    3  A    between atoms: C_15  and  C_17
REMARK    4  A    between atoms: C_18  and  C_27
REMARK                            x       y       z     vdW  Elec       q    Type
REMARK                         _______ _______ _______ _____ _____    ______ ____
ROOT
ATOM      1  O   UNL     1     112.074 126.679 136.249  0.00  0.00    +0.000 OA
ATOM      2  O   UNL     1     111.883 124.504 136.224  0.00  0.00    +0.000 OA
ATOM      3  O   UNL     1     109.615 125.958 134.915  0.00  0.00    +0.000 OA
ATOM      4  O   UNL     1     110.500 124.948 135.442  0.00  0.00    +0.000 OA
ATOM      5  C   UNL     1     112.241 125.880 136.371  0.00  0.00    +0.000 C 
ATOM      6  C   UNL     1     110.501 127.973 135.331  0.00  0.00    +0.000 A 
ATOM      7  C   UNL     1     111.716 125.303 136.102  0.00  0.00    +0.000 C 
ATOM      8  C   UNL     1     111.383 126.901 135.859  0.00  0.00    +0.000 A 
ATOM      9  C   UNL     1     110.858 126.324 135.589  0.00  0.00    +0.000 A 
ATOM     10  C   UNL     1     111.219 127.736 135.738  0.00  0.00    +0.000 A 
ATOM     11  C   UNL     1     111.025 125.525 135.711  0.00  0.00    +0.000 C 
ATOM     12  C   UNL     1     109.954 127.372 135.051  0.00  0.00    +0.000 A 
ATOM     13  C   UNL     1     110.134 126.542 135.181  0.00  0.00    +0.000 A 
ENDROOT
BRANCH   5  15
ATOM     14  O   UNL     1     115.008 124.994 137.936  0.00  0.00    +0.000 OA
ATOM     15  C   UNL     1     112.932 125.658 136.762  0.00  0.00    +0.000 A 
ATOM     16  C   UNL     1     112.949 125.627 137.587  0.00  0.00    +0.000 A 
ATOM     17  C   UNL     1     113.608 125.468 136.329  0.00  0.00    +0.000 A 
ATOM     18  C   UNL     1     113.640 125.406 137.977  0.00  0.00    +0.000 A 
ATOM     19  C   UNL     1     114.301 125.246 136.720  0.00  0.00    +0.000 A 
ATOM     20  C   UNL     1     114.316 125.215 137.544  0.00  0.00    +0.000 A 
ENDBRANCH   5  15
BRANCH   6  21
ATOM     21  O   UNL     1     110.337 128.773 135.211  0.00  0.00    +0.000 OA
BRANCH  21  30
ATOM     22  O   UNL     1     109.921 129.083 136.543  0.00  0.00    +0.000 OA
ATOM     23  O   UNL     1     108.139 130.549 135.644  0.00  0.00    +0.000 OA
ATOM     24  O   UNL     1     108.317 130.370 137.275  0.00  0.00    +0.000 OA
ATOM     25  O   UNL     1     109.149 129.750 134.612  0.00  0.00    +0.000 OA
ATOM     26  C   UNL     1     108.733 130.060 135.944  0.00  0.00    +0.000 C 
ATOM     27  C   UNL     1     108.822 129.970 136.759  0.00  0.00    +0.000 C 
ATOM     28  C   UNL     1     109.238 129.661 135.428  0.00  0.00    +0.000 C 
ATOM     29  C   UNL     1     109.415 129.482 137.058  0.00  0.00    +0.000 C 
ATOM     30  C   UNL     1     109.832 129.172 135.727  0.00  0.00    +0.000 C 
BRANCH  29  32
ATOM     31  O   UNL     1     109.275 128.690 138.239  0.00  0.00    +0.000 OA
ATOM     32  C   UNL     1     109.504 129.393 137.874  0.00  0.00    +0.000 C 
ENDBRANCH  29  32
ENDBRANCH  21  30
ENDBRANCH   6  21
TORSDOF 4
ENDMDL
MODEL 2
REMARK VINA RESULT:      -9.4      1.505      1.759
REMARK  Name = 10456395
REMARK  4 active torsions:
REMARK  status: ('A' for Active; 'I' for Inactive)
REMARK    1  A    between atoms: O_2  and  C_16
REMARK    2  A    between atoms: O_2  and  C_19
REMARK    3  A    between atoms: C_15  and  C_17
REMARK    4  A    between atoms: C_18  and  C_27
REMARK                            x       y       z     vdW  Elec       q    Type
REMARK                         _______ _______ _______ _____ _____    ______ ____
ROOT
ATOM      1  O   UNL     1     111.658 126.169 136.902  0.00  0.00    +0.000 OA
ATOM      2  O   UNL     1     111.811 124.971 138.721  0.00  0.00    +0.000 OA
ATOM      3  O   UNL     1     109.162 126.317 138.348  0.00  0.00    +0.000 OA
ATOM      4  O   UNL     1     110.268 125.539 138.850  0.00  0.00    +0.000 OA
ATOM      5  C   UNL     1     111.967 125.675 137.487  0.00  0.00    +0.000 C 
ATOM      6  C   UNL     1     109.774 127.266 136.413  0.00  0.00    +0.000 A 
ATOM      7  C   UNL     1     111.503 125.465 138.136  0.00  0.00    +0.000 C 
ATOM      8  C   UNL     1     110.887 126.453 136.967  0.00  0.00    +0.000 A 
ATOM      9  C   UNL     1     110.424 126.243 137.616  0.00  0.00    +0.000 A 
ATOM     10  C   UNL     1     110.577 126.967 136.351  0.00  0.00    +0.000 A 
ATOM     11  C   UNL     1     110.732 125.749 138.201  0.00  0.00    +0.000 C 
ATOM     12  C   UNL     1     109.291 127.047 137.089  0.00  0.00    +0.000 A 
ATOM     13  C   UNL     1     109.618 126.533 137.695  0.00  0.00    +0.000 A 
ENDROOT
BRANCH   5  15
ATOM     14  O   UNL     1     115.054 124.539 137.227  0.00  0.00    +0.000 OA
ATOM     15  C   UNL     1     112.738 125.391 137.422  0.00  0.00    +0.000 A 
ATOM     16  C   UNL     1     112.891 124.704 136.991  0.00  0.00    +0.000 A 
ATOM     17  C   UNL     1     113.358 125.794 137.788  0.00  0.00    +0.000 A 
ATOM     18  C   UNL     1     113.662 124.420 136.926  0.00  0.00    +0.000 A 
ATOM     19  C   UNL     1     114.131 125.510 137.723  0.00  0.00    +0.000 A 
ATOM     20  C   UNL     1     114.282 124.823 137.292  0.00  0.00    +0.000 A 
ENDBRANCH   5  15
BRANCH   6  21
ATOM     21  O   UNL     1     109.469 127.760 135.826  0.00  0.00    +0.000 OA
BRANCH  21  30
ATOM     22  O   UNL     1     110.057 129.010 136.192  0.00  0.00    +0.000 OA
ATOM     23  O   UNL     1     107.857 130.118 135.935  0.00  0.00    +0.000 OA
ATOM     24  O   UNL     1     109.177 130.999 136.386  0.00  0.00    +0.000 OA
ATOM     25  O   UNL     1     108.003 128.498 135.655  0.00  0.00    +0.000 OA
ATOM     26  C   UNL     1     108.591 129.748 136.021  0.00  0.00    +0.000 C 
ATOM     27  C   UNL     1     109.251 130.189 136.246  0.00  0.00    +0.000 C 
ATOM     28  C   UNL     1     108.663 128.939 135.881  0.00  0.00    +0.000 C 
ATOM     29  C   UNL     1     109.983 129.820 136.332  0.00  0.00    +0.000 C 
ATOM     30  C   UNL     1     109.397 128.569 135.966  0.00  0.00    +0.000 C 
BRANCH  29  32
ATOM     31  O   UNL     1     111.343 130.208 136.124  0.00  0.00    +0.000 OA
ATOM     32  C   UNL     1     110.643 130.261 136.557  0.00  0.00    +0.000 C 
ENDBRANCH  29  32
ENDBRANCH  21  30
ENDBRANCH   6  21
TORSDOF 4
ENDMDL
MODEL 3
REMARK VINA RESULT:      -9.4      1.962      3.353
REMARK  Name = 10456395
REMARK  4 active torsions:
REMARK  status: ('A' for Active; 'I' for Inactive)
REMARK    1  A    between atoms: O_2  and  C_16
REMARK    2  A    between atoms: O_2  and  C_19
REMARK    3  A    between atoms: C_15  and  C_17
REMARK    4  A    between atoms: C_18  and  C_27
REMARK                            x       y       z     vdW  Elec       q    Type
REMARK                         _______ _______ _______ _____ _____    ______ ____
ROOT
ATOM      1  O   UNL     1     110.289 128.203 135.989  0.00  0.00    +0.000 OA
ATOM      2  O   UNL     1     108.559 126.898 135.727  0.00  0.00    +0.000 OA
ATOM      3  O   UNL     1     107.904 129.820 135.790  0.00  0.00    +0.000 OA
ATOM      4  O   UNL     1     107.836 128.381 135.714  0.00  0.00    +0.000 OA
ATOM      5  C   UNL     1     109.833 127.520 135.904  0.00  0.00    +0.000 C 
ATOM      6  C   UNL     1     110.043 130.422 136.065  0.00  0.00    +0.000 A 
ATOM      7  C   UNL     1     109.015 127.580 135.812  0.00  0.00    +0.000 C 
ATOM      8  C   UNL     1     109.928 128.944 135.982  0.00  0.00    +0.000 A 
ATOM      9  C   UNL     1     109.110 129.004 135.890  0.00  0.00    +0.000 A 
ATOM     10  C   UNL     1     110.414 129.648 136.072  0.00  0.00    +0.000 A 
ATOM     11  C   UNL     1     108.654 128.321 135.805  0.00  0.00    +0.000 C 
ATOM     12  C   UNL     1     109.192 130.484 135.970  0.00  0.00    +0.000 A 
ATOM     13  C   UNL     1     108.722 129.770 135.882  0.00  0.00    +0.000 A 
ENDROOT
BRANCH   5  15
ATOM     14  O   UNL     1     111.280 124.555 135.930  0.00  0.00    +0.000 OA
ATOM     15  C   UNL     1     110.194 126.780 135.911  0.00  0.00    +0.000 A 
ATOM     16  C   UNL     1     110.409 126.418 135.200  0.00  0.00    +0.000 A 
ATOM     17  C   UNL     1     110.342 126.399 136.627  0.00  0.00    +0.000 A 
ATOM     18  C   UNL     1     110.770 125.677 135.207  0.00  0.00    +0.000 A 
ATOM     19  C   UNL     1     110.704 125.657 136.634  0.00  0.00    +0.000 A 
ATOM     20  C   UNL     1     110.918 125.296 135.924  0.00  0.00    +0.000 A 
ENDBRANCH   5  15
BRANCH   6  21
ATOM     21  O   UNL     1     110.503 131.103 136.151  0.00  0.00    +0.000 OA
BRANCH  21  30
ATOM     22  O   UNL     1     110.516 131.175 137.578  0.00  0.00    +0.000 OA
ATOM     23  O   UNL     1     110.192 133.627 137.456  0.00  0.00    +0.000 OA
ATOM     24  O   UNL     1     110.314 132.883 138.923  0.00  0.00    +0.000 OA
ATOM     25  O   UNL     1     110.287 132.737 136.069  0.00  0.00    +0.000 OA
ATOM     26  C   UNL     1     110.300 132.809 137.497  0.00  0.00    +0.000 C 
ATOM     27  C   UNL     1     110.361 132.437 138.230  0.00  0.00    +0.000 C 
ATOM     28  C   UNL     1     110.347 132.365 136.803  0.00  0.00    +0.000 C 
ATOM     29  C   UNL     1     110.469 131.621 138.271  0.00  0.00    +0.000 C 
ATOM     30  C   UNL     1     110.455 131.547 136.844  0.00  0.00    +0.000 C 
BRANCH  29  32
ATOM     31  O   UNL     1     111.232 130.875 139.221  0.00  0.00    +0.000 OA
ATOM     32  C   UNL     1     110.529 131.249 139.005  0.00  0.00    +0.000 C 
ENDBRANCH  29  32
ENDBRANCH  21  30
ENDBRANCH   6  21
TORSDOF 4
ENDMDL
MODEL 4
REMARK VINA RESULT:      -9.2      7.224      8.543
REMARK  Name = 10456395
REMARK  4 active torsions:
REMARK  status: ('A' for Active; 'I' for Inactive)
REMARK    1  A    between atoms: O_2  and  C_16
REMARK    2  A    between atoms: O_2  and  C_19
REMARK    3  A    between atoms: C_15  and  C_17
REMARK    4  A    between atoms: C_18  and  C_27
REMARK                            x       y       z     vdW  Elec       q    Type
REMARK                         _______ _______ _______ _____ _____    ______ ____
ROOT
ATOM      1  O   UNL     1     105.045 124.847 140.127  0.00  0.00    +0.000 OA
ATOM      2  O   UNL     1     105.306 122.739 139.619  0.00  0.00    +0.000 OA
ATOM      3  O   UNL     1     107.469 123.869 141.357  0.00  0.00    +0.000 OA
ATOM      4  O   UNL     1     106.641 123.004 140.553  0.00  0.00    +0.000 OA
ATOM      5  C   UNL     1     104.909 124.100 139.801  0.00  0.00    +0.000 C 
ATOM      6  C   UNL     1     106.534 125.904 141.413  0.00  0.00    +0.000 A 
ATOM      7  C   UNL     1     105.441 123.486 139.944  0.00  0.00    +0.000 C 
ATOM      8  C   UNL     1     105.711 124.979 140.593  0.00  0.00    +0.000 A 
ATOM      9  C   UNL     1     106.243 124.364 140.735  0.00  0.00    +0.000 A 
ATOM     10  C   UNL     1     105.841 125.761 140.926  0.00  0.00    +0.000 A 
ATOM     11  C   UNL     1     106.108 123.618 140.411  0.00  0.00    +0.000 C 
ATOM     12  C   UNL     1     107.088 125.265 141.561  0.00  0.00    +0.000 A 
ATOM     13  C   UNL     1     106.942 124.490 141.220  0.00  0.00    +0.000 A 
ENDROOT
BRANCH   5  15
ATOM     14  O   UNL     1     102.241 123.572 137.934  0.00  0.00    +0.000 OA
ATOM     15  C   UNL     1     104.243 123.968 139.335  0.00  0.00    +0.000 A 
ATOM     16  C   UNL     1     104.245 124.187 138.539  0.00  0.00    +0.000 A 
ATOM     17  C   UNL     1     103.572 123.616 139.663  0.00  0.00    +0.000 A 
ATOM     18  C   UNL     1     103.578 124.056 138.073  0.00  0.00    +0.000 A 
ATOM     19  C   UNL     1     102.904 123.484 139.196  0.00  0.00    +0.000 A 
ATOM     20  C   UNL     1     102.908 123.704 138.401  0.00  0.00    +0.000 A 
ENDBRANCH   5  15
BRANCH   6  21
ATOM     21  O   UNL     1     106.667 126.652 141.736  0.00  0.00    +0.000 OA
BRANCH  21  30
ATOM     22  O   UNL     1     106.333 126.352 143.093  0.00  0.00    +0.000 OA
ATOM     23  O   UNL     1     105.160 128.524 143.284  0.00  0.00    +0.000 OA
ATOM     24  O   UNL     1     105.217 127.500 144.577  0.00  0.00    +0.000 OA
ATOM     25  O   UNL     1     105.885 128.099 141.863  0.00  0.00    +0.000 OA
ATOM     26  C   UNL     1     105.551 127.799 143.220  0.00  0.00    +0.000 C 
ATOM     27  C   UNL     1     105.580 127.287 143.867  0.00  0.00    +0.000 C 
ATOM     28  C   UNL     1     105.913 127.588 142.510  0.00  0.00    +0.000 C 
ATOM     29  C   UNL     1     105.970 126.564 143.803  0.00  0.00    +0.000 C 
ATOM     30  C   UNL     1     106.304 126.863 142.446  0.00  0.00    +0.000 C 
BRANCH  29  32
ATOM     31  O   UNL     1     106.723 125.760 144.713  0.00  0.00    +0.000 OA
ATOM     32  C   UNL     1     105.999 126.053 144.449  0.00  0.00    +0.000 C 
ENDBRANCH  29  32
ENDBRANCH  21  30
ENDBRANCH   6  21
TORSDOF 4
ENDMDL
MODEL 5
REMARK VINA RESULT:      -9.2      1.703      5.304
REMARK  Name = 10456395
REMARK  4 active torsions:
REMARK  status: ('A' for Active; 'I' for Inactive)
REMARK    1  A    between atoms: O_2  and  C_16
REMARK    2  A    between atoms: O_2  and  C_19
REMARK    3  A    between atoms: C_15  and  C_17
REMARK    4  A    between atoms: C_18  and  C_27
REMARK                            x       y       z     vdW  Elec       q    Type
REMARK                         _______ _______ _______ _____ _____    ______ ____
ROOT
ATOM      1  O   UNL     1     110.094 130.134 136.614  0.00  0.00    +0.000 OA
ATOM      2  O   UNL     1     108.151 131.112 136.801  0.00  0.00    +0.000 OA
ATOM      3  O   UNL     1     108.045 128.371 135.596  0.00  0.00    +0.000 OA
ATOM      4  O   UNL     1     107.713 129.673 136.121  0.00  0.00    +0.000 OA
ATOM      5  C   UNL     1     109.519 130.700 136.790  0.00  0.00    +0.000 C 
ATOM      6  C   UNL     1     110.261 128.084 135.743  0.00  0.00    +0.000 A 
ATOM      7  C   UNL     1     108.726 130.546 136.625  0.00  0.00    +0.000 C 
ATOM      8  C   UNL     1     109.875 129.416 136.275  0.00  0.00    +0.000 A 
ATOM      9  C   UNL     1     109.082 129.262 136.110  0.00  0.00    +0.000 A 
ATOM     10  C   UNL     1     110.483 128.834 136.097  0.00  0.00    +0.000 A 
ATOM     11  C   UNL     1     108.507 129.827 136.286  0.00  0.00    +0.000 C 
ATOM     12  C   UNL     1     109.435 127.924 135.572  0.00  0.00    +0.000 A 
ATOM     13  C   UNL     1     108.841 128.516 135.757  0.00  0.00    +0.000 A 
ENDROOT
BRANCH   5  15
ATOM     14  O   UNL     1     110.396 133.576 138.149  0.00  0.00    +0.000 OA
ATOM     15  C   UNL     1     109.738 131.419 137.129  0.00  0.00    +0.000 A 
ATOM     16  C   UNL     1     109.772 131.495 137.950  0.00  0.00    +0.000 A 
ATOM     17  C   UNL     1     109.924 132.063 136.648  0.00  0.00    +0.000 A 
ATOM     18  C   UNL     1     109.991 132.213 138.290  0.00  0.00    +0.000 A 
ATOM     19  C   UNL     1     110.144 132.782 136.988  0.00  0.00    +0.000 A 
ATOM     20  C   UNL     1     110.177 132.857 137.809  0.00  0.00    +0.000 A 
ENDBRANCH   5  15
BRANCH   6  21
ATOM     21  O   UNL     1     110.839 127.520 135.569  0.00  0.00    +0.000 OA
BRANCH  21  30
ATOM     22  O   UNL     1     110.952 126.921 136.861  0.00  0.00    +0.000 OA
ATOM     23  O   UNL     1     111.060 124.681 135.813  0.00  0.00    +0.000 OA
ATOM     24  O   UNL     1     111.137 124.828 137.454  0.00  0.00    +0.000 OA
ATOM     25  O   UNL     1     110.911 126.027 134.870  0.00  0.00    +0.000 OA
ATOM     26  C   UNL     1     111.024 125.428 136.163  0.00  0.00    +0.000 C 
ATOM     27  C   UNL     1     111.062 125.502 136.983  0.00  0.00    +0.000 C 
ATOM     28  C   UNL     1     110.949 126.101 135.691  0.00  0.00    +0.000 C 
ATOM     29  C   UNL     1     111.026 126.248 137.332  0.00  0.00    +0.000 C 
ATOM     30  C   UNL     1     110.913 126.848 136.041  0.00  0.00    +0.000 C 
BRANCH  29  32
ATOM     31  O   UNL     1     111.619 126.826 138.497  0.00  0.00    +0.000 OA
ATOM     32  C   UNL     1     111.065 126.321 138.153  0.00  0.00    +0.000 C 
ENDBRANCH  29  32
ENDBRANCH  21  30
ENDBRANCH   6  21
TORSDOF 4
ENDMDL
MODEL 6
REMARK VINA RESULT:      -9.1      1.392      2.196
REMARK  Name = 10456395
REMARK  4 active torsions:
REMARK  status: ('A' for Active; 'I' for Inactive)
REMARK    1  A    between atoms: O_2  and  C_16
REMARK    2  A    between atoms: O_2  and  C_19
REMARK    3  A    between atoms: C_15  and  C_17
REMARK    4  A    between atoms: C_18  and  C_27
REMARK                            x       y       z     vdW  Elec       q    Type
REMARK                         _______ _______ _______ _____ _____    ______ ____
ROOT
ATOM      1  O   UNL     1     111.555 126.923 136.170  0.00  0.00    +0.000 OA
ATOM      2  O   UNL     1     113.587 126.315 136.686  0.00  0.00    +0.000 OA
ATOM      3  O   UNL     1     113.353 129.135 135.704  0.00  0.00    +0.000 OA
ATOM      4  O   UNL     1     113.840 127.873 136.203  0.00  0.00    +0.000 OA
ATOM      5  C   UNL     1     112.190 126.460 136.423  0.00  0.00    +0.000 C 
ATOM      6  C   UNL     1     111.137 128.984 135.414  0.00  0.00    +0.000 A 
ATOM      7  C   UNL     1     112.952 126.777 136.434  0.00  0.00    +0.000 C 
ATOM      8  C   UNL     1     111.681 127.701 135.928  0.00  0.00    +0.000 A 
ATOM      9  C   UNL     1     112.443 128.018 135.939  0.00  0.00    +0.000 A 
ATOM     10  C   UNL     1     111.011 128.173 135.667  0.00  0.00    +0.000 A 
ATOM     11  C   UNL     1     113.078 127.556 136.192  0.00  0.00    +0.000 C 
ATOM     12  C   UNL     1     111.930 129.313 135.426  0.00  0.00    +0.000 A 
ATOM     13  C   UNL     1     112.588 128.827 135.690  0.00  0.00    +0.000 A 
ENDROOT
BRANCH   5  15
ATOM     14  O   UNL     1     111.683 123.346 137.388  0.00  0.00    +0.000 OA
ATOM     15  C   UNL     1     112.064 125.683 136.664  0.00  0.00    +0.000 A 
ATOM     16  C   UNL     1     112.113 125.067 136.117  0.00  0.00    +0.000 A 
ATOM     17  C   UNL     1     111.888 125.519 137.453  0.00  0.00    +0.000 A 
ATOM     18  C   UNL     1     111.986 124.289 136.358  0.00  0.00    +0.000 A 
ATOM     19  C   UNL     1     111.761 124.740 137.695  0.00  0.00    +0.000 A 
ATOM     20  C   UNL     1     111.810 124.125 137.147  0.00  0.00    +0.000 A 
ENDBRANCH   5  15
BRANCH   6  21
ATOM     21  O   UNL     1     110.500 129.443 135.162  0.00  0.00    +0.000 OA
BRANCH  21  30
ATOM     22  O   UNL     1     110.271 130.192 136.358  0.00  0.00    +0.000 OA
ATOM     23  O   UNL     1     107.831 129.871 136.090  0.00  0.00    +0.000 OA
ATOM     24  O   UNL     1     108.415 130.726 137.375  0.00  0.00    +0.000 OA
ATOM     25  O   UNL     1     108.873 129.230 134.984  0.00  0.00    +0.000 OA
ATOM     26  C   UNL     1     108.645 129.978 136.180  0.00  0.00    +0.000 C 
ATOM     27  C   UNL     1     108.936 130.406 136.822  0.00  0.00    +0.000 C 
ATOM     28  C   UNL     1     109.165 129.657 135.626  0.00  0.00    +0.000 C 
ATOM     29  C   UNL     1     109.749 130.512 136.911  0.00  0.00    +0.000 C 
ATOM     30  C   UNL     1     109.979 129.764 135.716  0.00  0.00    +0.000 C 
BRANCH  29  32
ATOM     31  O   UNL     1     110.580 131.552 137.431  0.00  0.00    +0.000 OA
ATOM     32  C   UNL     1     110.041 130.940 137.554  0.00  0.00    +0.000 C 
ENDBRANCH  29  32
ENDBRANCH  21  30
ENDBRANCH   6  21
TORSDOF 4
ENDMDL
MODEL 7
REMARK VINA RESULT:      -9.1      7.512     10.227
REMARK  Name = 10456395
REMARK  4 active torsions:
REMARK  status: ('A' for Active; 'I' for Inactive)
REMARK    1  A    between atoms: O_2  and  C_16
REMARK    2  A    between atoms: O_2  and  C_19
REMARK    3  A    between atoms: C_15  and  C_17
REMARK    4  A    between atoms: C_18  and  C_27
REMARK                            x       y       z     vdW  Elec       q    Type
REMARK                         _______ _______ _______ _____ _____    ______ ____
ROOT
ATOM      1  O   UNL     1     104.921 127.695 142.416  0.00  0.00    +0.000 OA
ATOM      2  O   UNL     1     105.788 129.510 141.565  0.00  0.00    +0.000 OA
ATOM      3  O   UNL     1     107.788 127.385 142.242  0.00  0.00    +0.000 OA
ATOM      4  O   UNL     1     107.142 128.598 141.803  0.00  0.00    +0.000 OA
ATOM      5  C   UNL     1     104.984 128.453 142.092  0.00  0.00    +0.000 C 
ATOM      6  C   UNL     1     106.221 125.974 142.998  0.00  0.00    +0.000 A 
ATOM      7  C   UNL     1     105.724 128.753 141.888  0.00  0.00    +0.000 C 
ATOM      8  C   UNL     1     105.597 127.240 142.534  0.00  0.00    +0.000 A 
ATOM      9  C   UNL     1     106.338 127.541 142.330  0.00  0.00    +0.000 A 
ATOM     10  C   UNL     1     105.519 126.453 142.872  0.00  0.00    +0.000 A 
ATOM     11  C   UNL     1     106.402 128.297 142.007  0.00  0.00    +0.000 C 
ATOM     12  C   UNL     1     106.992 126.287 142.786  0.00  0.00    +0.000 A 
ATOM     13  C   UNL     1     107.051 127.076 142.450  0.00  0.00    +0.000 A 
ENDROOT
BRANCH   5  15
ATOM     14  O   UNL     1     102.274 130.275 141.617  0.00  0.00    +0.000 OA
ATOM     15  C   UNL     1     104.307 128.908 141.973  0.00  0.00    +0.000 A 
ATOM     16  C   UNL     1     104.047 129.424 142.562  0.00  0.00    +0.000 A 
ATOM     17  C   UNL     1     103.888 128.847 141.265  0.00  0.00    +0.000 A 
ATOM     18  C   UNL     1     103.371 129.879 142.444  0.00  0.00    +0.000 A 
ATOM     19  C   UNL     1     103.210 129.303 141.146  0.00  0.00    +0.000 A 
ATOM     20  C   UNL     1     102.952 129.819 141.736  0.00  0.00    +0.000 A 
ENDBRANCH   5  15
BRANCH   6  21
ATOM     21  O   UNL     1     106.154 125.218 143.322  0.00  0.00    +0.000 OA
BRANCH  21  30
ATOM     22  O   UNL     1     106.363 125.614 144.679  0.00  0.00    +0.000 OA
ATOM     23  O   UNL     1     104.767 123.876 145.430  0.00  0.00    +0.000 OA
ATOM     24  O   UNL     1     105.507 124.850 146.537  0.00  0.00    +0.000 OA
ATOM     25  O   UNL     1     105.091 124.059 143.822  0.00  0.00    +0.000 OA
ATOM     26  C   UNL     1     105.299 124.455 145.179  0.00  0.00    +0.000 C 
ATOM     27  C   UNL     1     105.669 124.943 145.733  0.00  0.00    +0.000 C 
ATOM     28  C   UNL     1     105.461 124.547 144.376  0.00  0.00    +0.000 C 
ATOM     29  C   UNL     1     106.200 125.521 145.483  0.00  0.00    +0.000 C 
ATOM     30  C   UNL     1     105.993 125.126 144.125  0.00  0.00    +0.000 C 
BRANCH  29  32
ATOM     31  O   UNL     1     107.390 125.987 146.123  0.00  0.00    +0.000 OA
ATOM     32  C   UNL     1     106.570 126.009 146.036  0.00  0.00    +0.000 C 
ENDBRANCH  29  32
ENDBRANCH  21  30
ENDBRANCH   6  21
TORSDOF 4
ENDMDL
MODEL 8
REMARK VINA RESULT:      -9.1      9.419     11.675
REMARK  Name = 10456395
REMARK  4 active torsions:
REMARK  status: ('A' for Active; 'I' for Inactive)
REMARK    1  A    between atoms: O_2  and  C_16
REMARK    2  A    between atoms: O_2  and  C_19
REMARK    3  A    between atoms: C_15  and  C_17
REMARK    4  A    between atoms: C_18  and  C_27
REMARK                            x       y       z     vdW  Elec       q    Type
REMARK                         _______ _______ _______ _____ _____    ______ ____
ROOT
ATOM      1  O   UNL     1     105.446 126.324 144.176  0.00  0.00    +0.000 OA
ATOM      2  O   UNL     1     106.754 128.072 144.127  0.00  0.00    +0.000 OA
ATOM      3  O   UNL     1     107.221 126.244 146.454  0.00  0.00    +0.000 OA
ATOM      4  O   UNL     1     107.283 127.324 145.499  0.00  0.00    +0.000 OA
ATOM      5  C   UNL     1     105.794 127.032 143.931  0.00  0.00    +0.000 C 
ATOM      6  C   UNL     1     105.613 124.821 145.820  0.00  0.00    +0.000 A 
ATOM      7  C   UNL     1     106.406 127.365 144.372  0.00  0.00    +0.000 C 
ATOM      8  C   UNL     1     105.711 125.951 144.861  0.00  0.00    +0.000 A 
ATOM      9  C   UNL     1     106.323 126.284 145.303  0.00  0.00    +0.000 A 
ATOM     10  C   UNL     1     105.341 125.214 145.107  0.00  0.00    +0.000 A 
ATOM     11  C   UNL     1     106.671 126.991 145.058  0.00  0.00    +0.000 C 
ATOM     12  C   UNL     1     106.250 125.167 146.279  0.00  0.00    +0.000 A 
ATOM     13  C   UNL     1     106.608 125.904 146.019  0.00  0.00    +0.000 A 
ENDROOT
BRANCH   5  15
ATOM     14  O   UNL     1     104.733 128.527 141.187  0.00  0.00    +0.000 OA
ATOM     15  C   UNL     1     105.529 127.405 143.245  0.00  0.00    +0.000 A 
ATOM     16  C   UNL     1     105.020 128.053 143.298  0.00  0.00    +0.000 A 
ATOM     17  C   UNL     1     105.772 127.132 142.506  0.00  0.00    +0.000 A 
ATOM     18  C   UNL     1     104.755 128.427 142.613  0.00  0.00    +0.000 A 
ATOM     19  C   UNL     1     105.507 127.506 141.819  0.00  0.00    +0.000 A 
ATOM     20  C   UNL     1     104.998 128.153 141.873  0.00  0.00    +0.000 A 
ENDBRANCH   5  15
BRANCH   6  21
ATOM     21  O   UNL     1     105.263 124.113 146.062  0.00  0.00    +0.000 OA
BRANCH  21  30
ATOM     22  O   UNL     1     104.243 124.692 146.880  0.00  0.00    +0.000 OA
ATOM     23  O   UNL     1     102.652 122.951 146.125  0.00  0.00    +0.000 OA
ATOM     24  O   UNL     1     102.163 124.109 147.194  0.00  0.00    +0.000 OA
ATOM     25  O   UNL     1     104.202 122.953 145.560  0.00  0.00    +0.000 OA
ATOM     26  C   UNL     1     103.183 123.532 146.377  0.00  0.00    +0.000 C 
ATOM     27  C   UNL     1     102.938 124.111 146.911  0.00  0.00    +0.000 C 
ATOM     28  C   UNL     1     103.957 123.532 146.094  0.00  0.00    +0.000 C 
ATOM     29  C   UNL     1     103.468 124.690 147.162  0.00  0.00    +0.000 C 
ATOM     30  C   UNL     1     104.488 124.113 146.345  0.00  0.00    +0.000 C 
BRANCH  29  32
ATOM     31  O   UNL     1     103.638 125.384 148.400  0.00  0.00    +0.000 OA
ATOM     32  C   UNL     1     103.223 125.269 147.697  0.00  0.00    +0.000 C 
ENDBRANCH  29  32
ENDBRANCH  21  30
ENDBRANCH   6  21
TORSDOF 4
ENDMDL
MODEL 9
REMARK VINA RESULT:      -9.1      3.648      4.870
REMARK  Name = 10456395
REMARK  4 active torsions:
REMARK  status: ('A' for Active; 'I' for Inactive)
REMARK    1  A    between atoms: O_2  and  C_16
REMARK    2  A    between atoms: O_2  and  C_19
REMARK    3  A    between atoms: C_15  and  C_17
REMARK    4  A    between atoms: C_18  and  C_27
REMARK                            x       y       z     vdW  Elec       q    Type
REMARK                         _______ _______ _______ _____ _____    ______ ____
ROOT
ATOM      1  O   UNL     1     113.434 126.326 138.885  0.00  0.00    +0.000 OA
ATOM      2  O   UNL     1     112.122 125.362 137.429  0.00  0.00    +0.000 OA
ATOM      3  O   UNL     1     110.715 126.407 139.858  0.00  0.00    +0.000 OA
ATOM      4  O   UNL     1     111.034 125.796 138.591  0.00  0.00    +0.000 OA
ATOM      5  C   UNL     1     113.178 125.932 138.205  0.00  0.00    +0.000 C 
ATOM      6  C   UNL     1     112.606 127.182 140.775  0.00  0.00    +0.000 A 
ATOM      7  C   UNL     1     112.378 125.756 138.108  0.00  0.00    +0.000 C 
ATOM      8  C   UNL     1     112.890 126.543 139.465  0.00  0.00    +0.000 A 
ATOM      9  C   UNL     1     112.090 126.367 139.367  0.00  0.00    +0.000 A 
ATOM     10  C   UNL     1     113.168 126.953 140.167  0.00  0.00    +0.000 A 
ATOM     11  C   UNL     1     111.834 125.973 138.689  0.00  0.00    +0.000 C 
ATOM     12  C   UNL     1     111.773 126.998 140.674  0.00  0.00    +0.000 A 
ATOM     13  C   UNL     1     111.513 126.588 139.965  0.00  0.00    +0.000 A 
ENDROOT
BRANCH   5  15
ATOM     14  O   UNL     1     115.356 125.064 135.884  0.00  0.00    +0.000 OA
ATOM     15  C   UNL     1     113.722 125.715 137.626  0.00  0.00    +0.000 A 
ATOM     16  C   UNL     1     114.127 124.999 137.686  0.00  0.00    +0.000 A 
ATOM     17  C   UNL     1     113.863 126.215 136.984  0.00  0.00    +0.000 A 
ATOM     18  C   UNL     1     114.671 124.782 137.106  0.00  0.00    +0.000 A 
ATOM     19  C   UNL     1     114.407 125.998 136.403  0.00  0.00    +0.000 A 
ATOM     20  C   UNL     1     114.811 125.281 136.464  0.00  0.00    +0.000 A 
ENDBRANCH   5  15
BRANCH   6  21
ATOM     21  O   UNL     1     112.865 127.576 141.453  0.00  0.00    +0.000 OA
BRANCH  21  30
ATOM     22  O   UNL     1     113.207 128.849 140.902  0.00  0.00    +0.000 OA
ATOM     23  O   UNL     1     112.013 129.972 142.757  0.00  0.00    +0.000 OA
ATOM     24  O   UNL     1     112.754 130.871 141.588  0.00  0.00    +0.000 OA
ATOM     25  O   UNL     1     112.069 128.324 142.689  0.00  0.00    +0.000 OA
ATOM     26  C   UNL     1     112.412 129.597 142.138  0.00  0.00    +0.000 C 
ATOM     27  C   UNL     1     112.782 130.047 141.554  0.00  0.00    +0.000 C 
ATOM     28  C   UNL     1     112.439 128.774 142.105  0.00  0.00    +0.000 C 
ATOM     29  C   UNL     1     113.179 129.673 140.936  0.00  0.00    +0.000 C 
ATOM     30  C   UNL     1     112.837 128.399 141.486  0.00  0.00    +0.000 C 
BRANCH  29  32
ATOM     31  O   UNL     1     114.347 130.002 140.181  0.00  0.00    +0.000 OA
ATOM     32  C   UNL     1     113.549 130.122 140.352  0.00  0.00    +0.000 C 
ENDBRANCH  29  32
ENDBRANCH  21  30
ENDBRANCH   6  21
TORSDOF 4
ENDMDL
MODEL 10
REMARK VINA RESULT:      -9.0      2.203      2.976
REMARK  Name = 10456395
REMARK  4 active torsions:
REMARK  status: ('A' for Active; 'I' for Inactive)
REMARK    1  A    between atoms: O_2  and  C_16
REMARK    2  A    between atoms: O_2  and  C_19
REMARK    3  A    between atoms: C_15  and  C_17
REMARK    4  A    between atoms: C_18  and  C_27
REMARK                            x       y       z     vdW  Elec       q    Type
REMARK                         _______ _______ _______ _____ _____    ______ ____
ROOT
ATOM      1  O   UNL     1     112.079 126.560 136.271  0.00  0.00    +0.000 OA
ATOM      2  O   UNL     1     110.388 125.406 135.511  0.00  0.00    +0.000 OA
ATOM      3  O   UNL     1     110.437 128.263 134.613  0.00  0.00    +0.000 OA
ATOM      4  O   UNL     1     110.092 126.880 134.831  0.00  0.00    +0.000 OA
ATOM      5  C   UNL     1     111.565 125.929 136.131  0.00  0.00    +0.000 C 
ATOM      6  C   UNL     1     112.324 128.714 135.733  0.00  0.00    +0.000 A 
ATOM      7  C   UNL     1     110.903 126.036 135.651  0.00  0.00    +0.000 C 
ATOM      8  C   UNL     1     111.931 127.296 135.931  0.00  0.00    +0.000 A 
ATOM      9  C   UNL     1     111.268 127.403 135.451  0.00  0.00    +0.000 A 
ATOM     10  C   UNL     1     112.473 127.945 136.084  0.00  0.00    +0.000 A 
ATOM     11  C   UNL     1     110.754 126.773 135.311  0.00  0.00    +0.000 C 
ATOM     12  C   UNL     1     111.634 128.826 135.233  0.00  0.00    +0.000 A 
ATOM     13  C   UNL     1     111.102 128.166 135.091  0.00  0.00    +0.000 A 
ENDROOT
BRANCH   5  15
ATOM     14  O   UNL     1     112.161 122.982 137.490  0.00  0.00    +0.000 OA
ATOM     15  C   UNL     1     111.714 125.193 136.470  0.00  0.00    +0.000 A 
ATOM     16  C   UNL     1     112.188 124.644 136.077  0.00  0.00    +0.000 A 
ATOM     17  C   UNL     1     111.389 125.004 137.205  0.00  0.00    +0.000 A 
ATOM     18  C   UNL     1     112.337 123.908 136.416  0.00  0.00    +0.000 A 
ATOM     19  C   UNL     1     111.537 124.267 137.545  0.00  0.00    +0.000 A 
ATOM     20  C   UNL     1     112.012 123.719 137.151  0.00  0.00    +0.000 A 
ENDBRANCH   5  15
BRANCH   6  21
ATOM     21  O   UNL     1     112.840 129.343 135.875  0.00  0.00    +0.000 OA
BRANCH  21  30
ATOM     22  O   UNL     1     112.091 129.934 136.939  0.00  0.00    +0.000 OA
ATOM     23  O   UNL     1     114.201 130.541 138.084  0.00  0.00    +0.000 OA
ATOM     24  O   UNL     1     112.750 130.930 138.767  0.00  0.00    +0.000 OA
ATOM     25  O   UNL     1     114.246 129.748 136.638  0.00  0.00    +0.000 OA
ATOM     26  C   UNL     1     113.497 130.339 137.702  0.00  0.00    +0.000 C 
ATOM     27  C   UNL     1     112.772 130.533 138.043  0.00  0.00    +0.000 C 
ATOM     28  C   UNL     1     113.520 129.942 136.979  0.00  0.00    +0.000 C 
ATOM     29  C   UNL     1     112.069 130.331 137.662  0.00  0.00    +0.000 C 
ATOM     30  C   UNL     1     112.817 129.740 136.597  0.00  0.00    +0.000 C 
BRANCH  29  32
ATOM     31  O   UNL     1     110.786 130.954 137.572  0.00  0.00    +0.000 OA
ATOM     32  C   UNL     1     111.344 130.525 138.003  0.00  0.00    +0.000 C 
ENDBRANCH  29  32
ENDBRANCH  21  30
ENDBRANCH   6  21
TORSDOF 4
ENDMDL
