MODEL 1
REMARK VINA RESULT:      -8.9      0.000      0.000
REMARK  Name = 14034285
REMARK  2 active torsions:
REMARK  status: ('A' for Active; 'I' for Inactive)
REMARK    1  A    between atoms: O_4  and  C_18
REMARK    2  A    between atoms: C_8  and  C_11
REMARK                            x       y       z     vdW  Elec       q    Type
REMARK                         _______ _______ _______ _____ _____    ______ ____
ROOT
ATOM      1  O   UNL     1     104.470 123.539 137.933  0.00  0.00    +0.000 OA
ATOM      2  O   UNL     1     101.945 123.602 138.111  0.00  0.00    +0.000 OA
ATOM      3  O   UNL     1     101.860 123.216 136.723  0.00  0.00    +0.000 OA
ATOM      4  O   UNL     1     104.216 122.771 135.168  0.00  0.00    +0.000 OA
ATOM      5  C   UNL     1     104.106 123.750 138.683  0.00  0.00    +0.000 C 
ATOM      6  C   UNL     1     103.248 123.772 138.747  0.00  0.00    +0.000 C 
ATOM      7  C   UNL     1     103.149 123.375 137.319  0.00  0.00    +0.000 A 
ATOM      8  C   UNL     1     102.768 123.583 138.059  0.00  0.00    +0.000 C 
ATOM      9  C   UNL     1     103.973 123.354 137.258  0.00  0.00    +0.000 A 
ATOM     10  C   UNL     1     102.683 123.195 136.662  0.00  0.00    +0.000 A 
ATOM     11  C   UNL     1     104.328 123.152 136.541  0.00  0.00    +0.000 A 
ATOM     12  C   UNL     1     103.038 122.994 135.946  0.00  0.00    +0.000 A 
ATOM     13  C   UNL     1     103.861 122.972 135.885  0.00  0.00    +0.000 A 
ENDROOT
BRANCH   5  16
ATOM     14  O   UNL     1     105.577 122.900 140.980  0.00  0.00    +0.000 OA
ATOM     15  O   UNL     1     105.983 124.467 141.300  0.00  0.00    +0.000 OA
ATOM     16  C   UNL     1     104.575 123.929 139.337  0.00  0.00    +0.000 A 
ATOM     17  C   UNL     1     104.842 123.325 139.832  0.00  0.00    +0.000 A 
ATOM     18  C   UNL     1     104.777 124.713 139.497  0.00  0.00    +0.000 A 
ATOM     19  C   UNL     1     105.311 123.504 140.485  0.00  0.00    +0.000 A 
ATOM     20  C   UNL     1     105.247 124.892 140.152  0.00  0.00    +0.000 A 
ATOM     21  C   UNL     1     105.514 124.288 140.646  0.00  0.00    +0.000 A 
ENDBRANCH   5  16
BRANCH  12  22
ATOM     22  O   UNL     1     102.571 122.813 135.290  0.00  0.00    +0.000 OA
ATOM     23  C   UNL     1     102.532 123.338 134.655  0.00  0.00    +0.000 C 
ENDBRANCH  12  22
TORSDOF 2
ENDMDL
MODEL 2
REMARK VINA RESULT:      -8.6      1.062      4.906
REMARK  Name = 14034285
REMARK  2 active torsions:
REMARK  status: ('A' for Active; 'I' for Inactive)
REMARK    1  A    between atoms: O_4  and  C_18
REMARK    2  A    between atoms: C_8  and  C_11
REMARK                            x       y       z     vdW  Elec       q    Type
REMARK                         _______ _______ _______ _____ _____    ______ ____
ROOT
ATOM      1  O   UNL     1     104.424 124.668 139.335  0.00  0.00    +0.000 OA
ATOM      2  O   UNL     1     105.871 122.833 140.309  0.00  0.00    +0.000 OA
ATOM      3  O   UNL     1     106.458 123.803 141.203  0.00  0.00    +0.000 OA
ATOM      4  O   UNL     1     105.645 126.542 141.152  0.00  0.00    +0.000 OA
ATOM      5  C   UNL     1     104.353 123.868 139.029  0.00  0.00    +0.000 C 
ATOM      6  C   UNL     1     104.843 123.243 139.358  0.00  0.00    +0.000 C 
ATOM      7  C   UNL     1     105.454 124.232 140.282  0.00  0.00    +0.000 A 
ATOM      8  C   UNL     1     105.397 123.427 139.988  0.00  0.00    +0.000 C 
ATOM      9  C   UNL     1     104.983 124.832 139.966  0.00  0.00    +0.000 A 
ATOM     10  C   UNL     1     105.988 124.402 140.887  0.00  0.00    +0.000 A 
ATOM     11  C   UNL     1     105.047 125.602 140.256  0.00  0.00    +0.000 A 
ATOM     12  C   UNL     1     106.052 125.171 141.177  0.00  0.00    +0.000 A 
ATOM     13  C   UNL     1     105.581 125.772 140.861  0.00  0.00    +0.000 A 
ENDROOT
BRANCH   5  16
ATOM     14  O   UNL     1     101.661 123.612 138.106  0.00  0.00    +0.000 OA
ATOM     15  O   UNL     1     102.213 123.199 136.607  0.00  0.00    +0.000 OA
ATOM     16  C   UNL     1     103.818 123.701 138.423  0.00  0.00    +0.000 A 
ATOM     17  C   UNL     1     103.007 123.740 138.567  0.00  0.00    +0.000 A 
ATOM     18  C   UNL     1     104.095 123.494 137.674  0.00  0.00    +0.000 A 
ATOM     19  C   UNL     1     102.472 123.573 137.962  0.00  0.00    +0.000 A 
ATOM     20  C   UNL     1     103.559 123.327 137.068  0.00  0.00    +0.000 A 
ATOM     21  C   UNL     1     102.749 123.366 137.212  0.00  0.00    +0.000 A 
ENDBRANCH   5  16
BRANCH  12  22
ATOM     22  O   UNL     1     106.585 125.342 141.783  0.00  0.00    +0.000 OA
ATOM     23  C   UNL     1     106.315 125.448 142.554  0.00  0.00    +0.000 C 
ENDBRANCH  12  22
TORSDOF 2
ENDMDL
MODEL 3
REMARK VINA RESULT:      -8.6      8.136      9.666
REMARK  Name = 14034285
REMARK  2 active torsions:
REMARK  status: ('A' for Active; 'I' for Inactive)
REMARK    1  A    between atoms: O_4  and  C_18
REMARK    2  A    between atoms: C_8  and  C_11
REMARK                            x       y       z     vdW  Elec       q    Type
REMARK                         _______ _______ _______ _____ _____    ______ ____
ROOT
ATOM      1  O   UNL     1     105.261 124.203 147.147  0.00  0.00    +0.000 OA
ATOM      2  O   UNL     1     103.524 125.555 148.398  0.00  0.00    +0.000 OA
ATOM      3  O   UNL     1     102.519 125.066 147.484  0.00  0.00    +0.000 OA
ATOM      4  O   UNL     1     103.198 123.272 145.365  0.00  0.00    +0.000 OA
ATOM      5  C   UNL     1     105.502 124.676 147.824  0.00  0.00    +0.000 C 
ATOM      6  C   UNL     1     104.914 125.136 148.250  0.00  0.00    +0.000 C 
ATOM      7  C   UNL     1     103.872 124.639 147.316  0.00  0.00    +0.000 A 
ATOM      8  C   UNL     1     104.094 125.117 147.994  0.00  0.00    +0.000 C 
ATOM      9  C   UNL     1     104.437 124.197 146.906  0.00  0.00    +0.000 A 
ATOM     10  C   UNL     1     103.083 124.625 147.075  0.00  0.00    +0.000 A 
ATOM     11  C   UNL     1     104.211 123.742 146.256  0.00  0.00    +0.000 A 
ATOM     12  C   UNL     1     102.858 124.170 146.425  0.00  0.00    +0.000 A 
ATOM     13  C   UNL     1     103.423 123.728 146.015  0.00  0.00    +0.000 A 
ENDROOT
BRANCH   5  16
ATOM     14  O   UNL     1     108.213 125.453 147.366  0.00  0.00    +0.000 OA
ATOM     15  O   UNL     1     108.661 124.725 148.777  0.00  0.00    +0.000 OA
ATOM     16  C   UNL     1     106.292 124.688 148.062  0.00  0.00    +0.000 A 
ATOM     17  C   UNL     1     106.858 125.065 147.595  0.00  0.00    +0.000 A 
ATOM     18  C   UNL     1     106.515 124.324 148.768  0.00  0.00    +0.000 A 
ATOM     19  C   UNL     1     107.647 125.077 147.833  0.00  0.00    +0.000 A 
ATOM     20  C   UNL     1     107.305 124.336 149.006  0.00  0.00    +0.000 A 
ATOM     21  C   UNL     1     107.871 124.712 148.539  0.00  0.00    +0.000 A 
ENDBRANCH   5  16
BRANCH  12  22
ATOM     22  O   UNL     1     102.069 124.155 146.184  0.00  0.00    +0.000 OA
ATOM     23  C   UNL     1     101.586 123.519 146.389  0.00  0.00    +0.000 C 
ENDBRANCH  12  22
TORSDOF 2
ENDMDL
MODEL 4
REMARK VINA RESULT:      -8.3      6.618      8.520
REMARK  Name = 14034285
REMARK  2 active torsions:
REMARK  status: ('A' for Active; 'I' for Inactive)
REMARK    1  A    between atoms: O_4  and  C_18
REMARK    2  A    between atoms: C_8  and  C_11
REMARK                            x       y       z     vdW  Elec       q    Type
REMARK                         _______ _______ _______ _____ _____    ______ ____
ROOT
ATOM      1  O   UNL     1     103.014 130.449 142.269  0.00  0.00    +0.000 OA
ATOM      2  O   UNL     1     102.963 129.144 140.100  0.00  0.00    +0.000 OA
ATOM      3  O   UNL     1     103.898 128.204 140.670  0.00  0.00    +0.000 OA
ATOM      4  O   UNL     1     104.879 128.528 143.335  0.00  0.00    +0.000 OA
ATOM      5  C   UNL     1     102.520 130.727 141.622  0.00  0.00    +0.000 C 
ATOM      6  C   UNL     1     102.501 130.285 140.884  0.00  0.00    +0.000 C 
ATOM      7  C   UNL     1     103.463 129.312 141.461  0.00  0.00    +0.000 A 
ATOM      8  C   UNL     1     102.976 129.574 140.804  0.00  0.00    +0.000 C 
ATOM      9  C   UNL     1     103.481 129.735 142.170  0.00  0.00    +0.000 A 
ATOM     10  C   UNL     1     103.916 128.627 141.378  0.00  0.00    +0.000 A 
ATOM     11  C   UNL     1     103.954 129.474 142.794  0.00  0.00    +0.000 A 
ATOM     12  C   UNL     1     104.388 128.366 142.002  0.00  0.00    +0.000 A 
ATOM     13  C   UNL     1     104.407 128.790 142.710  0.00  0.00    +0.000 A 
ENDROOT
BRANCH   5  16
ATOM     14  O   UNL     1     102.268 133.566 141.426  0.00  0.00    +0.000 OA
ATOM     15  O   UNL     1     100.713 133.465 141.967  0.00  0.00    +0.000 OA
ATOM     16  C   UNL     1     102.068 131.411 141.709  0.00  0.00    +0.000 A 
ATOM     17  C   UNL     1     102.394 132.146 141.525  0.00  0.00    +0.000 A 
ATOM     18  C   UNL     1     101.290 131.360 141.979  0.00  0.00    +0.000 A 
ATOM     19  C   UNL     1     101.942 132.831 141.611  0.00  0.00    +0.000 A 
ATOM     20  C   UNL     1     100.838 132.046 142.065  0.00  0.00    +0.000 A 
ATOM     21  C   UNL     1     101.164 132.780 141.881  0.00  0.00    +0.000 A 
ENDBRANCH   5  16
BRANCH  12  22
ATOM     22  O   UNL     1     104.841 127.682 141.919  0.00  0.00    +0.000 OA
ATOM     23  C   UNL     1     105.661 127.736 141.853  0.00  0.00    +0.000 C 
ENDBRANCH  12  22
TORSDOF 2
ENDMDL
MODEL 5
REMARK VINA RESULT:      -8.3      8.040      9.835
REMARK  Name = 14034285
REMARK  2 active torsions:
REMARK  status: ('A' for Active; 'I' for Inactive)
REMARK    1  A    between atoms: O_4  and  C_18
REMARK    2  A    between atoms: C_8  and  C_11
REMARK                            x       y       z     vdW  Elec       q    Type
REMARK                         _______ _______ _______ _____ _____    ______ ____
ROOT
ATOM      1  O   UNL     1     104.654 124.285 147.244  0.00  0.00    +0.000 OA
ATOM      2  O   UNL     1     106.119 124.803 145.245  0.00  0.00    +0.000 OA
ATOM      3  O   UNL     1     107.157 125.238 146.148  0.00  0.00    +0.000 OA
ATOM      4  O   UNL     1     106.776 125.171 148.980  0.00  0.00    +0.000 OA
ATOM      5  C   UNL     1     104.351 124.143 146.452  0.00  0.00    +0.000 C 
ATOM      6  C   UNL     1     104.847 124.318 145.771  0.00  0.00    +0.000 C 
ATOM      7  C   UNL     1     105.922 124.768 146.691  0.00  0.00    +0.000 A 
ATOM      8  C   UNL     1     105.637 124.633 145.893  0.00  0.00    +0.000 C 
ATOM      9  C   UNL     1     105.446 124.600 147.345  0.00  0.00    +0.000 A 
ATOM     10  C   UNL     1     106.682 125.070 146.802  0.00  0.00    +0.000 A 
ATOM     11  C   UNL     1     105.732 124.734 148.108  0.00  0.00    +0.000 A 
ATOM     12  C   UNL     1     106.967 125.204 147.563  0.00  0.00    +0.000 A 
ATOM     13  C   UNL     1     106.491 125.036 148.217  0.00  0.00    +0.000 A 
ENDROOT
BRANCH   5  16
ATOM     14  O   UNL     1     101.521 124.407 146.740  0.00  0.00    +0.000 OA
ATOM     15  O   UNL     1     101.311 122.935 146.026  0.00  0.00    +0.000 OA
ATOM     16  C   UNL     1     103.591 123.840 146.345  0.00  0.00    +0.000 A 
ATOM     17  C   UNL     1     102.936 124.274 146.596  0.00  0.00    +0.000 A 
ATOM     18  C   UNL     1     103.486 123.104 145.988  0.00  0.00    +0.000 A 
ATOM     19  C   UNL     1     102.176 123.973 146.490  0.00  0.00    +0.000 A 
ATOM     20  C   UNL     1     102.725 122.802 145.882  0.00  0.00    +0.000 A 
ATOM     21  C   UNL     1     102.071 123.236 146.132  0.00  0.00    +0.000 A 
ENDBRANCH   5  16
BRANCH  12  22
ATOM     22  O   UNL     1     107.726 125.507 147.674  0.00  0.00    +0.000 OA
ATOM     23  C   UNL     1     108.330 125.017 147.947  0.00  0.00    +0.000 C 
ENDBRANCH  12  22
TORSDOF 2
ENDMDL
MODEL 6
REMARK VINA RESULT:      -8.1      8.196      9.107
REMARK  Name = 14034285
REMARK  2 active torsions:
REMARK  status: ('A' for Active; 'I' for Inactive)
REMARK    1  A    between atoms: O_4  and  C_18
REMARK    2  A    between atoms: C_8  and  C_11
REMARK                            x       y       z     vdW  Elec       q    Type
REMARK                         _______ _______ _______ _____ _____    ______ ____
ROOT
ATOM      1  O   UNL     1     104.126 124.801 147.097  0.00  0.00    +0.000 OA
ATOM      2  O   UNL     1     103.824 122.813 145.558  0.00  0.00    +0.000 OA
ATOM      3  O   UNL     1     102.404 122.862 145.811  0.00  0.00    +0.000 OA
ATOM      4  O   UNL     1     101.280 124.831 147.550  0.00  0.00    +0.000 OA
ATOM      5  C   UNL     1     104.814 124.454 146.717  0.00  0.00    +0.000 C 
ATOM      6  C   UNL     1     104.715 123.779 146.194  0.00  0.00    +0.000 C 
ATOM      7  C   UNL     1     103.252 123.820 146.447  0.00  0.00    +0.000 A 
ATOM      8  C   UNL     1     103.929 123.460 146.059  0.00  0.00    +0.000 C 
ATOM      9  C   UNL     1     103.348 124.468 146.949  0.00  0.00    +0.000 A 
ATOM     10  C   UNL     1     102.499 123.509 146.313  0.00  0.00    +0.000 A 
ATOM     11  C   UNL     1     102.690 124.805 147.316  0.00  0.00    +0.000 A 
ATOM     12  C   UNL     1     101.843 123.846 146.680  0.00  0.00    +0.000 A 
ATOM     13  C   UNL     1     101.938 124.495 147.182  0.00  0.00    +0.000 A 
ENDROOT
BRANCH   5  16
ATOM     14  O   UNL     1     107.088 125.919 145.797  0.00  0.00    +0.000 OA
ATOM     15  O   UNL     1     107.819 125.705 147.260  0.00  0.00    +0.000 OA
ATOM     16  C   UNL     1     105.566 124.767 146.853  0.00  0.00    +0.000 A 
ATOM     17  C   UNL     1     105.952 125.187 146.257  0.00  0.00    +0.000 A 
ATOM     18  C   UNL     1     105.931 124.659 147.585  0.00  0.00    +0.000 A 
ATOM     19  C   UNL     1     106.702 125.499 146.393  0.00  0.00    +0.000 A 
ATOM     20  C   UNL     1     106.682 124.972 147.721  0.00  0.00    +0.000 A 
ATOM     21  C   UNL     1     107.068 125.392 147.126  0.00  0.00    +0.000 A 
ENDBRANCH   5  16
BRANCH  12  22
ATOM     22  O   UNL     1     101.090 123.536 146.546  0.00  0.00    +0.000 OA
ATOM     23  C   UNL     1     100.737 123.051 147.111  0.00  0.00    +0.000 C 
ENDBRANCH  12  22
TORSDOF 2
ENDMDL
MODEL 7
REMARK VINA RESULT:      -8.1      7.106      7.877
REMARK  Name = 14034285
REMARK  2 active torsions:
REMARK  status: ('A' for Active; 'I' for Inactive)
REMARK    1  A    between atoms: O_4  and  C_18
REMARK    2  A    between atoms: C_8  and  C_11
REMARK                            x       y       z     vdW  Elec       q    Type
REMARK                         _______ _______ _______ _____ _____    ______ ____
ROOT
ATOM      1  O   UNL     1     110.599 127.235 135.948  0.00  0.00    +0.000 OA
ATOM      2  O   UNL     1     108.080 127.213 136.201  0.00  0.00    +0.000 OA
ATOM      3  O   UNL     1     108.045 128.583 135.746  0.00  0.00    +0.000 OA
ATOM      4  O   UNL     1     110.446 129.968 135.048  0.00  0.00    +0.000 OA
ATOM      5  C   UNL     1     110.210 126.521 136.226  0.00  0.00    +0.000 C 
ATOM      6  C   UNL     1     109.354 126.510 136.312  0.00  0.00    +0.000 C 
ATOM      7  C   UNL     1     109.307 127.919 135.845  0.00  0.00    +0.000 A 
ATOM      8  C   UNL     1     108.901 127.215 136.121  0.00  0.00    +0.000 C 
ATOM      9  C   UNL     1     110.129 127.929 135.762  0.00  0.00    +0.000 A 
ATOM     10  C   UNL     1     108.866 128.593 135.663  0.00  0.00    +0.000 A 
ATOM     11  C   UNL     1     110.507 128.612 135.496  0.00  0.00    +0.000 A 
ATOM     12  C   UNL     1     109.245 129.275 135.398  0.00  0.00    +0.000 A 
ATOM     13  C   UNL     1     110.067 129.285 135.314  0.00  0.00    +0.000 A 
ENDROOT
BRANCH   5  16
ATOM     14  O   UNL     1     111.456 124.828 138.161  0.00  0.00    +0.000 OA
ATOM     15  O   UNL     1     111.984 123.836 136.953  0.00  0.00    +0.000 OA
ATOM     16  C   UNL     1     110.653 125.849 136.407  0.00  0.00    +0.000 A 
ATOM     17  C   UNL     1     110.833 125.674 137.193  0.00  0.00    +0.000 A 
ATOM     18  C   UNL     1     110.917 125.353 135.803  0.00  0.00    +0.000 A 
ATOM     19  C   UNL     1     111.276 125.003 137.375  0.00  0.00    +0.000 A 
ATOM     20  C   UNL     1     111.361 124.682 135.985  0.00  0.00    +0.000 A 
ATOM     21  C   UNL     1     111.541 124.506 136.770  0.00  0.00    +0.000 A 
ENDBRANCH   5  16
BRANCH  12  22
ATOM     22  O   UNL     1     108.804 129.948 135.215  0.00  0.00    +0.000 OA
ATOM     23  C   UNL     1     108.745 130.563 135.760  0.00  0.00    +0.000 C 
ENDBRANCH  12  22
TORSDOF 2
ENDMDL
MODEL 8
REMARK VINA RESULT:      -8.1      6.149      8.850
REMARK  Name = 14034285
REMARK  2 active torsions:
REMARK  status: ('A' for Active; 'I' for Inactive)
REMARK    1  A    between atoms: O_4  and  C_18
REMARK    2  A    between atoms: C_8  and  C_11
REMARK                            x       y       z     vdW  Elec       q    Type
REMARK                         _______ _______ _______ _____ _____    ______ ____
ROOT
ATOM      1  O   UNL     1     106.564 124.945 146.143  0.00  0.00    +0.000 OA
ATOM      2  O   UNL     1     106.357 127.451 145.845  0.00  0.00    +0.000 OA
ATOM      3  O   UNL     1     105.844 127.227 144.515  0.00  0.00    +0.000 OA
ATOM      4  O   UNL     1     105.532 124.582 143.478  0.00  0.00    +0.000 OA
ATOM      5  C   UNL     1     106.797 125.466 146.786  0.00  0.00    +0.000 C 
ATOM      6  C   UNL     1     106.728 126.318 146.687  0.00  0.00    +0.000 C 
ATOM      7  C   UNL     1     106.199 126.099 145.317  0.00  0.00    +0.000 A 
ATOM      8  C   UNL     1     106.427 126.635 145.948  0.00  0.00    +0.000 C 
ATOM      9  C   UNL     1     106.265 125.281 145.412  0.00  0.00    +0.000 A 
ATOM     10  C   UNL     1     105.910 126.410 144.609  0.00  0.00    +0.000 A 
ATOM     11  C   UNL     1     106.043 124.776 144.798  0.00  0.00    +0.000 A 
ATOM     12  C   UNL     1     105.688 125.905 143.997  0.00  0.00    +0.000 A 
ATOM     13  C   UNL     1     105.755 125.087 144.091  0.00  0.00    +0.000 A 
ENDROOT
BRANCH   5  16
ATOM     14  O   UNL     1     106.333 124.161 149.285  0.00  0.00    +0.000 OA
ATOM     15  O   UNL     1     107.949 124.211 149.611  0.00  0.00    +0.000 OA
ATOM     16  C   UNL     1     107.086 125.152 147.492  0.00  0.00    +0.000 A 
ATOM     17  C   UNL     1     106.565 124.813 148.035  0.00  0.00    +0.000 A 
ATOM     18  C   UNL     1     107.894 125.178 147.655  0.00  0.00    +0.000 A 
ATOM     19  C   UNL     1     106.853 124.500 148.741  0.00  0.00    +0.000 A 
ATOM     20  C   UNL     1     108.182 124.863 148.362  0.00  0.00    +0.000 A 
ATOM     21  C   UNL     1     107.662 124.525 148.905  0.00  0.00    +0.000 A 
ENDBRANCH   5  16
BRANCH  12  22
ATOM     22  O   UNL     1     105.399 126.215 143.289  0.00  0.00    +0.000 OA
ATOM     23  C   UNL     1     105.890 126.264 142.628  0.00  0.00    +0.000 C 
ENDBRANCH  12  22
TORSDOF 2
ENDMDL
MODEL 9
REMARK VINA RESULT:      -8.0      7.547      8.464
REMARK  Name = 14034285
REMARK  2 active torsions:
REMARK  status: ('A' for Active; 'I' for Inactive)
REMARK    1  A    between atoms: O_4  and  C_18
REMARK    2  A    between atoms: C_8  and  C_11
REMARK                            x       y       z     vdW  Elec       q    Type
REMARK                         _______ _______ _______ _____ _____    ______ ____
ROOT
ATOM      1  O   UNL     1     111.562 126.141 136.996  0.00  0.00    +0.000 OA
ATOM      2  O   UNL     1     110.363 125.323 134.921  0.00  0.00    +0.000 OA
ATOM      3  O   UNL     1     109.264 126.204 135.236  0.00  0.00    +0.000 OA
ATOM      4  O   UNL     1     109.328 127.873 137.556  0.00  0.00    +0.000 OA
ATOM      5  C   UNL     1     111.939 125.551 136.496  0.00  0.00    +0.000 C 
ATOM      6  C   UNL     1     111.534 125.271 135.791  0.00  0.00    +0.000 C 
ATOM      7  C   UNL     1     110.398 126.174 136.106  0.00  0.00    +0.000 A 
ATOM      8  C   UNL     1     110.759 125.586 135.596  0.00  0.00    +0.000 C 
ATOM      9  C   UNL     1     110.787 126.443 136.783  0.00  0.00    +0.000 A 
ATOM     10  C   UNL     1     109.653 126.472 135.913  0.00  0.00    +0.000 A 
ATOM     11  C   UNL     1     110.430 127.009 137.266  0.00  0.00    +0.000 A 
ATOM     12  C   UNL     1     109.297 127.038 136.395  0.00  0.00    +0.000 A 
ATOM     13  C   UNL     1     109.685 127.306 137.073  0.00  0.00    +0.000 A 
ENDROOT
BRANCH   5  16
ATOM     14  O   UNL     1     114.784 125.819 136.503  0.00  0.00    +0.000 OA
ATOM     15  O   UNL     1     114.918 124.369 137.279  0.00  0.00    +0.000 OA
ATOM     16  C   UNL     1     112.684 125.255 136.692  0.00  0.00    +0.000 A 
ATOM     17  C   UNL     1     113.362 125.685 136.500  0.00  0.00    +0.000 A 
ATOM     18  C   UNL     1     112.751 124.530 137.080  0.00  0.00    +0.000 A 
ATOM     19  C   UNL     1     114.106 125.389 136.696  0.00  0.00    +0.000 A 
ATOM     20  C   UNL     1     113.496 124.235 137.276  0.00  0.00    +0.000 A 
ATOM     21  C   UNL     1     114.173 124.664 137.084  0.00  0.00    +0.000 A 
ENDBRANCH   5  16
BRANCH  12  22
ATOM     22  O   UNL     1     108.552 127.336 136.202  0.00  0.00    +0.000 OA
ATOM     23  C   UNL     1     108.485 128.058 135.812  0.00  0.00    +0.000 C 
ENDBRANCH  12  22
TORSDOF 2
ENDMDL
MODEL 10
REMARK VINA RESULT:      -8.0      7.773      9.051
REMARK  Name = 14034285
REMARK  2 active torsions:
REMARK  status: ('A' for Active; 'I' for Inactive)
REMARK    1  A    between atoms: O_4  and  C_18
REMARK    2  A    between atoms: C_8  and  C_11
REMARK                            x       y       z     vdW  Elec       q    Type
REMARK                         _______ _______ _______ _____ _____    ______ ____
ROOT
ATOM      1  O   UNL     1     111.695 126.277 136.277  0.00  0.00    +0.000 OA
ATOM      2  O   UNL     1     111.756 123.748 136.390  0.00  0.00    +0.000 OA
ATOM      3  O   UNL     1     113.188 123.813 136.554  0.00  0.00    +0.000 OA
ATOM      4  O   UNL     1     114.556 126.322 136.608  0.00  0.00    +0.000 OA
ATOM      5  C   UNL     1     110.961 125.835 136.210  0.00  0.00    +0.000 C 
ATOM      6  C   UNL     1     110.978 124.976 136.248  0.00  0.00    +0.000 C 
ATOM      7  C   UNL     1     112.453 125.030 136.417  0.00  0.00    +0.000 A 
ATOM      8  C   UNL     1     111.730 124.572 136.352  0.00  0.00    +0.000 C 
ATOM      9  C   UNL     1     112.436 125.855 136.381  0.00  0.00    +0.000 A 
ATOM     10  C   UNL     1     113.171 124.637 136.517  0.00  0.00    +0.000 A 
ATOM     11  C   UNL     1     113.137 126.285 136.444  0.00  0.00    +0.000 A 
ATOM     12  C   UNL     1     113.872 125.067 136.581  0.00  0.00    +0.000 A 
ATOM     13  C   UNL     1     113.855 125.892 136.544  0.00  0.00    +0.000 A 
ENDROOT
BRANCH   5  16
ATOM     14  O   UNL     1     108.806 127.363 137.298  0.00  0.00    +0.000 OA
ATOM     15  O   UNL     1     108.094 127.420 135.811  0.00  0.00    +0.000 OA
ATOM     16  C   UNL     1     110.244 126.231 136.110  0.00  0.00    +0.000 A 
ATOM     17  C   UNL     1     109.883 126.599 136.754  0.00  0.00    +0.000 A 
ATOM     18  C   UNL     1     109.888 126.259 135.366  0.00  0.00    +0.000 A 
ATOM     19  C   UNL     1     109.167 126.995 136.654  0.00  0.00    +0.000 A 
ATOM     20  C   UNL     1     109.171 126.656 135.267  0.00  0.00    +0.000 A 
ATOM     21  C   UNL     1     108.811 127.023 135.910  0.00  0.00    +0.000 A 
ENDBRANCH   5  16
BRANCH  12  22
ATOM     22  O   UNL     1     114.590 124.674 136.681  0.00  0.00    +0.000 OA
ATOM     23  C   UNL     1     114.922 124.605 137.432  0.00  0.00    +0.000 C 
ENDBRANCH  12  22
TORSDOF 2
ENDMDL
