MODEL 1
REMARK VINA RESULT:      -9.2      0.000      0.000
REMARK  Name = 42607952
REMARK  4 active torsions:
REMARK  status: ('A' for Active; 'I' for Inactive)
REMARK    1  A    between atoms: O_2  and  C_14
REMARK    2  A    between atoms: O_2  and  C_16
REMARK    3  A    between atoms: O_9  and  C_30
REMARK    4  A    between atoms: C_17  and  C_25
REMARK                            x       y       z     vdW  Elec       q    Type
REMARK                         _______ _______ _______ _____ _____    ______ ____
ROOT
ATOM      1  O   UNL     1     103.123 130.241 142.117  0.00  0.00    +0.000 OA
ATOM      2  O   UNL     1     103.873 128.055 140.384  0.00  0.00    +0.000 OA
ATOM      3  O   UNL     1     103.020 129.119 139.914  0.00  0.00    +0.000 OA
ATOM      4  C   UNL     1     104.409 128.460 142.521  0.00  0.00    +0.000 A 
ATOM      5  C   UNL     1     102.682 130.576 141.505  0.00  0.00    +0.000 C 
ATOM      6  C   UNL     1     102.648 130.201 140.770  0.00  0.00    +0.000 C 
ATOM      7  C   UNL     1     103.529 129.534 141.996  0.00  0.00    +0.000 A 
ATOM      8  C   UNL     1     103.494 129.160 141.261  0.00  0.00    +0.000 A 
ATOM      9  C   UNL     1     103.984 129.196 142.641  0.00  0.00    +0.000 A 
ATOM     10  C   UNL     1     103.054 129.494 140.648  0.00  0.00    +0.000 C 
ATOM     11  C   UNL     1     104.374 128.070 141.756  0.00  0.00    +0.000 A 
ATOM     12  C   UNL     1     103.913 128.422 141.122  0.00  0.00    +0.000 A 
ENDROOT
BRANCH   5  13
ATOM     13  C   UNL     1     102.276 131.283 141.626  0.00  0.00    +0.000 A 
ATOM     14  C   UNL     1     101.491 131.270 141.880  0.00  0.00    +0.000 A 
ATOM     15  C   UNL     1     102.655 132.004 141.494  0.00  0.00    +0.000 A 
ATOM     16  C   UNL     1     101.085 131.978 142.002  0.00  0.00    +0.000 A 
ATOM     17  C   UNL     1     102.250 132.712 141.615  0.00  0.00    +0.000 A 
ATOM     18  C   UNL     1     101.465 132.699 141.869  0.00  0.00    +0.000 A 
BRANCH  18  19
ATOM     19  O   UNL     1     101.059 133.407 141.990  0.00  0.00    +0.000 OA
ATOM     20  C   UNL     1     101.309 134.096 141.613  0.00  0.00    +0.000 C 
ENDBRANCH  18  19
ENDBRANCH   5  13
BRANCH   4  21
ATOM     21  O   UNL     1     104.849 128.129 143.135  0.00  0.00    +0.000 OA
BRANCH  21  30
ATOM     22  O   UNL     1     106.102 128.729 142.802  0.00  0.00    +0.000 OA
ATOM     23  O   UNL     1     107.271 126.644 143.445  0.00  0.00    +0.000 OA
ATOM     24  O   UNL     1     108.135 127.939 142.898  0.00  0.00    +0.000 OA
ATOM     25  O   UNL     1     105.628 126.739 143.563  0.00  0.00    +0.000 OA
ATOM     26  C   UNL     1     106.881 127.339 143.231  0.00  0.00    +0.000 C 
ATOM     27  C   UNL     1     107.313 127.986 142.957  0.00  0.00    +0.000 C 
ATOM     28  C   UNL     1     106.060 127.386 143.290  0.00  0.00    +0.000 C 
ATOM     29  C   UNL     1     106.923 128.681 142.743  0.00  0.00    +0.000 C 
ATOM     30  C   UNL     1     105.671 128.081 143.076  0.00  0.00    +0.000 C 
ATOM     31  C   UNL     1     107.356 129.329 142.469  0.00  0.00    +0.000 C 
ENDBRANCH  21  30
ENDBRANCH   4  21
TORSDOF 4
ENDMDL
MODEL 2
REMARK VINA RESULT:      -9.2      7.799      9.649
REMARK  Name = 42607952
REMARK  4 active torsions:
REMARK  status: ('A' for Active; 'I' for Inactive)
REMARK    1  A    between atoms: O_2  and  C_14
REMARK    2  A    between atoms: O_2  and  C_16
REMARK    3  A    between atoms: O_9  and  C_30
REMARK    4  A    between atoms: C_17  and  C_25
REMARK                            x       y       z     vdW  Elec       q    Type
REMARK                         _______ _______ _______ _____ _____    ______ ____
ROOT
ATOM      1  O   UNL     1     110.352 127.883 136.078  0.00  0.00    +0.000 OA
ATOM      2  O   UNL     1     107.913 129.407 135.802  0.00  0.00    +0.000 OA
ATOM      3  O   UNL     1     107.902 127.966 135.741  0.00  0.00    +0.000 OA
ATOM      4  C   UNL     1     110.021 130.092 136.124  0.00  0.00    +0.000 A 
ATOM      5  C   UNL     1     109.924 127.183 135.990  0.00  0.00    +0.000 C 
ATOM      6  C   UNL     1     109.107 127.211 135.878  0.00  0.00    +0.000 C 
ATOM      7  C   UNL     1     109.964 128.610 136.055  0.00  0.00    +0.000 A 
ATOM      8  C   UNL     1     109.147 128.637 135.942  0.00  0.00    +0.000 A 
ATOM      9  C   UNL     1     110.420 129.332 136.148  0.00  0.00    +0.000 A 
ATOM     10  C   UNL     1     108.718 127.938 135.854  0.00  0.00    +0.000 C 
ATOM     11  C   UNL     1     109.171 130.121 136.007  0.00  0.00    +0.000 A 
ATOM     12  C   UNL     1     108.730 129.390 135.915  0.00  0.00    +0.000 A 
ENDROOT
BRANCH   5  13
ATOM     13  C   UNL     1     110.313 126.455 136.014  0.00  0.00    +0.000 A 
ATOM     14  C   UNL     1     110.509 126.116 136.740  0.00  0.00    +0.000 A 
ATOM     15  C   UNL     1     110.505 126.067 135.312  0.00  0.00    +0.000 A 
ATOM     16  C   UNL     1     110.898 125.389 136.764  0.00  0.00    +0.000 A 
ATOM     17  C   UNL     1     110.893 125.340 135.335  0.00  0.00    +0.000 A 
ATOM     18  C   UNL     1     111.089 125.001 136.061  0.00  0.00    +0.000 A 
BRANCH  18  19
ATOM     19  O   UNL     1     111.478 124.273 136.085  0.00  0.00    +0.000 OA
ATOM     20  C   UNL     1     112.186 124.197 136.501  0.00  0.00    +0.000 C 
ENDBRANCH  18  19
ENDBRANCH   5  13
BRANCH   4  21
ATOM     21  O   UNL     1     110.452 130.790 136.213  0.00  0.00    +0.000 OA
BRANCH  21  30
ATOM     22  O   UNL     1     110.566 130.762 137.637  0.00  0.00    +0.000 OA
ATOM     23  O   UNL     1     110.233 133.214 137.711  0.00  0.00    +0.000 OA
ATOM     24  O   UNL     1     110.458 132.369 139.110  0.00  0.00    +0.000 OA
ATOM     25  O   UNL     1     110.231 132.424 136.262  0.00  0.00    +0.000 OA
ATOM     26  C   UNL     1     110.344 132.396 137.686  0.00  0.00    +0.000 C 
ATOM     27  C   UNL     1     110.456 131.974 138.386  0.00  0.00    +0.000 C 
ATOM     28  C   UNL     1     110.343 132.002 136.962  0.00  0.00    +0.000 C 
ATOM     29  C   UNL     1     110.567 131.157 138.361  0.00  0.00    +0.000 C 
ATOM     30  C   UNL     1     110.454 131.185 136.938  0.00  0.00    +0.000 C 
ATOM     31  C   UNL     1     110.679 130.734 139.061  0.00  0.00    +0.000 C 
ENDBRANCH  21  30
ENDBRANCH   4  21
TORSDOF 4
ENDMDL
MODEL 3
REMARK VINA RESULT:      -9.2      3.386      5.851
REMARK  Name = 42607952
REMARK  4 active torsions:
REMARK  status: ('A' for Active; 'I' for Inactive)
REMARK    1  A    between atoms: O_2  and  C_14
REMARK    2  A    between atoms: O_2  and  C_16
REMARK    3  A    between atoms: O_9  and  C_30
REMARK    4  A    between atoms: C_17  and  C_25
REMARK                            x       y       z     vdW  Elec       q    Type
REMARK                         _______ _______ _______ _____ _____    ______ ____
ROOT
ATOM      1  O   UNL     1     105.374 126.444 144.088  0.00  0.00    +0.000 OA
ATOM      2  O   UNL     1     107.200 126.328 146.324  0.00  0.00    +0.000 OA
ATOM      3  O   UNL     1     107.208 127.447 145.413  0.00  0.00    +0.000 OA
ATOM      4  C   UNL     1     105.622 124.881 145.665  0.00  0.00    +0.000 A 
ATOM      5  C   UNL     1     105.694 127.171 143.865  0.00  0.00    +0.000 C 
ATOM      6  C   UNL     1     106.305 127.505 144.307  0.00  0.00    +0.000 C 
ATOM      7  C   UNL     1     105.664 126.051 144.752  0.00  0.00    +0.000 A 
ATOM      8  C   UNL     1     106.276 126.386 145.194  0.00  0.00    +0.000 A 
ATOM      9  C   UNL     1     105.323 125.295 144.975  0.00  0.00    +0.000 A 
ATOM     10  C   UNL     1     106.597 127.113 144.971  0.00  0.00    +0.000 C 
ATOM     11  C   UNL     1     106.259 125.229 146.126  0.00  0.00    +0.000 A 
ATOM     12  C   UNL     1     106.588 125.986 145.889  0.00  0.00    +0.000 A 
ENDROOT
BRANCH   5  13
ATOM     13  C   UNL     1     105.403 127.564 143.201  0.00  0.00    +0.000 A 
ATOM     14  C   UNL     1     104.985 128.270 143.289  0.00  0.00    +0.000 A 
ATOM     15  C   UNL     1     105.529 127.251 142.448  0.00  0.00    +0.000 A 
ATOM     16  C   UNL     1     104.694 128.664 142.624  0.00  0.00    +0.000 A 
ATOM     17  C   UNL     1     105.239 127.644 141.783  0.00  0.00    +0.000 A 
ATOM     18  C   UNL     1     104.821 128.350 141.871  0.00  0.00    +0.000 A 
BRANCH  18  19
ATOM     19  O   UNL     1     104.531 128.743 141.207  0.00  0.00    +0.000 OA
ATOM     20  C   UNL     1     103.716 128.807 141.089  0.00  0.00    +0.000 C 
ENDBRANCH  18  19
ENDBRANCH   5  13
BRANCH   4  21
ATOM     21  O   UNL     1     105.299 124.154 145.885  0.00  0.00    +0.000 OA
BRANCH  21  30
ATOM     22  O   UNL     1     104.304 124.689 146.760  0.00  0.00    +0.000 OA
ATOM     23  O   UNL     1     102.749 122.883 146.096  0.00  0.00    +0.000 OA
ATOM     24  O   UNL     1     102.272 124.020 147.192  0.00  0.00    +0.000 OA
ATOM     25  O   UNL     1     104.262 122.950 145.442  0.00  0.00    +0.000 OA
ATOM     26  C   UNL     1     103.267 123.485 146.317  0.00  0.00    +0.000 C 
ATOM     27  C   UNL     1     103.029 124.053 146.865  0.00  0.00    +0.000 C 
ATOM     28  C   UNL     1     104.023 123.519 145.991  0.00  0.00    +0.000 C 
ATOM     29  C   UNL     1     103.548 124.655 147.087  0.00  0.00    +0.000 C 
ATOM     30  C   UNL     1     104.542 124.121 146.212  0.00  0.00    +0.000 C 
ATOM     31  C   UNL     1     103.310 125.224 147.636  0.00  0.00    +0.000 C 
ENDBRANCH  21  30
ENDBRANCH   4  21
TORSDOF 4
ENDMDL
MODEL 4
REMARK VINA RESULT:      -9.2      8.656     10.861
REMARK  Name = 42607952
REMARK  4 active torsions:
REMARK  status: ('A' for Active; 'I' for Inactive)
REMARK    1  A    between atoms: O_2  and  C_14
REMARK    2  A    between atoms: O_2  and  C_16
REMARK    3  A    between atoms: O_9  and  C_30
REMARK    4  A    between atoms: C_17  and  C_25
REMARK                            x       y       z     vdW  Elec       q    Type
REMARK                         _______ _______ _______ _____ _____    ______ ____
ROOT
ATOM      1  O   UNL     1     112.547 128.231 135.345  0.00  0.00    +0.000 OA
ATOM      2  O   UNL     1     109.715 128.399 134.802  0.00  0.00    +0.000 OA
ATOM      3  O   UNL     1     110.565 129.559 134.690  0.00  0.00    +0.000 OA
ATOM      4  C   UNL     1     110.970 126.650 135.422  0.00  0.00    +0.000 A 
ATOM      5  C   UNL     1     112.627 129.034 135.177  0.00  0.00    +0.000 C 
ATOM      6  C   UNL     1     111.966 129.477 134.959  0.00  0.00    +0.000 C 
ATOM      7  C   UNL     1     111.808 127.869 135.295  0.00  0.00    +0.000 A 
ATOM      8  C   UNL     1     111.147 128.313 135.077  0.00  0.00    +0.000 A 
ATOM      9  C   UNL     1     111.738 127.032 135.472  0.00  0.00    +0.000 A 
ATOM     10  C   UNL     1     111.226 129.117 134.909  0.00  0.00    +0.000 C 
ATOM     11  C   UNL     1     110.281 127.111 135.195  0.00  0.00    +0.000 A 
ATOM     12  C   UNL     1     110.370 127.948 135.021  0.00  0.00    +0.000 A 
ENDROOT
BRANCH   5  13
ATOM     13  C   UNL     1     113.367 129.396 135.227  0.00  0.00    +0.000 A 
ATOM     14  C   UNL     1     113.550 129.874 135.874  0.00  0.00    +0.000 A 
ATOM     15  C   UNL     1     113.924 129.279 134.630  0.00  0.00    +0.000 A 
ATOM     16  C   UNL     1     114.290 130.235 135.925  0.00  0.00    +0.000 A 
ATOM     17  C   UNL     1     114.664 129.639 134.680  0.00  0.00    +0.000 A 
ATOM     18  C   UNL     1     114.847 130.117 135.327  0.00  0.00    +0.000 A 
BRANCH  18  19
ATOM     19  O   UNL     1     115.587 130.479 135.377  0.00  0.00    +0.000 OA
ATOM     20  C   UNL     1     115.709 131.219 135.034  0.00  0.00    +0.000 C 
ENDBRANCH  18  19
ENDBRANCH   5  13
BRANCH   4  21
ATOM     21  O   UNL     1     110.894 125.846 135.591  0.00  0.00    +0.000 OA
BRANCH  21  30
ATOM     22  O   UNL     1     110.576 126.009 136.974  0.00  0.00    +0.000 OA
ATOM     23  O   UNL     1     111.822 123.936 137.503  0.00  0.00    +0.000 OA
ATOM     24  O   UNL     1     111.089 124.789 138.711  0.00  0.00    +0.000 OA
ATOM     25  O   UNL     1     111.724 124.465 135.943  0.00  0.00    +0.000 OA
ATOM     26  C   UNL     1     111.406 124.627 137.327  0.00  0.00    +0.000 C 
ATOM     27  C   UNL     1     111.041 125.053 137.930  0.00  0.00    +0.000 C 
ATOM     28  C   UNL     1     111.358 124.891 136.547  0.00  0.00    +0.000 C 
ATOM     29  C   UNL     1     110.626 125.744 137.754  0.00  0.00    +0.000 C 
ATOM     30  C   UNL     1     110.943 125.582 136.371  0.00  0.00    +0.000 C 
ATOM     31  C   UNL     1     110.259 126.171 138.358  0.00  0.00    +0.000 C 
ENDBRANCH  21  30
ENDBRANCH   4  21
TORSDOF 4
ENDMDL
MODEL 5
REMARK VINA RESULT:      -9.1      8.251     10.655
REMARK  Name = 42607952
REMARK  4 active torsions:
REMARK  status: ('A' for Active; 'I' for Inactive)
REMARK    1  A    between atoms: O_2  and  C_14
REMARK    2  A    between atoms: O_2  and  C_16
REMARK    3  A    between atoms: O_9  and  C_30
REMARK    4  A    between atoms: C_17  and  C_25
REMARK                            x       y       z     vdW  Elec       q    Type
REMARK                         _______ _______ _______ _____ _____    ______ ____
ROOT
ATOM      1  O   UNL     1     112.211 126.702 137.565  0.00  0.00    +0.000 OA
ATOM      2  O   UNL     1     111.028 124.688 135.864  0.00  0.00    +0.000 OA
ATOM      3  O   UNL     1     111.567 124.347 137.159  0.00  0.00    +0.000 OA
ATOM      4  C   UNL     1     111.298 126.887 135.534  0.00  0.00    +0.000 A 
ATOM      5  C   UNL     1     112.367 126.128 138.136  0.00  0.00    +0.000 C 
ATOM      6  C   UNL     1     112.152 125.343 138.001  0.00  0.00    +0.000 C 
ATOM      7  C   UNL     1     111.840 126.493 136.859  0.00  0.00    +0.000 A 
ATOM      8  C   UNL     1     111.626 125.707 136.724  0.00  0.00    +0.000 A 
ATOM      9  C   UNL     1     111.683 127.100 136.272  0.00  0.00    +0.000 A 
ATOM     10  C   UNL     1     111.782 125.132 137.295  0.00  0.00    +0.000 C 
ATOM     11  C   UNL     1     111.074 126.069 135.393  0.00  0.00    +0.000 A 
ATOM     12  C   UNL     1     111.239 125.476 135.991  0.00  0.00    +0.000 A 
ENDROOT
BRANCH   5  13
ATOM     13  C   UNL     1     112.737 126.338 138.843  0.00  0.00    +0.000 A 
ATOM     14  C   UNL     1     112.284 126.514 139.510  0.00  0.00    +0.000 A 
ATOM     15  C   UNL     1     113.561 126.372 138.883  0.00  0.00    +0.000 A 
ATOM     16  C   UNL     1     112.655 126.724 140.217  0.00  0.00    +0.000 A 
ATOM     17  C   UNL     1     113.932 126.582 139.589  0.00  0.00    +0.000 A 
ATOM     18  C   UNL     1     113.479 126.758 140.255  0.00  0.00    +0.000 A 
BRANCH  18  19
ATOM     19  O   UNL     1     113.849 126.968 140.962  0.00  0.00    +0.000 OA
ATOM     20  C   UNL     1     114.630 127.233 140.955  0.00  0.00    +0.000 C 
ENDBRANCH  18  19
ENDBRANCH   5  13
BRANCH   4  21
ATOM     21  O   UNL     1     111.143 127.464 134.965  0.00  0.00    +0.000 OA
BRANCH  21  30
ATOM     22  O   UNL     1     109.801 127.741 135.370  0.00  0.00    +0.000 OA
ATOM     23  O   UNL     1     110.138 130.136 134.842  0.00  0.00    +0.000 OA
ATOM     24  O   UNL     1     108.683 129.615 135.422  0.00  0.00    +0.000 OA
ATOM     25  O   UNL     1     111.368 129.060 134.614  0.00  0.00    +0.000 OA
ATOM     26  C   UNL     1     110.025 129.338 135.018  0.00  0.00    +0.000 C 
ATOM     27  C   UNL     1     109.299 129.078 135.308  0.00  0.00    +0.000 C 
ATOM     28  C   UNL     1     110.640 128.801 134.904  0.00  0.00    +0.000 C 
ATOM     29  C   UNL     1     109.187 128.280 135.484  0.00  0.00    +0.000 C 
ATOM     30  C   UNL     1     110.528 128.002 135.080  0.00  0.00    +0.000 C 
ATOM     31  C   UNL     1     108.459 128.019 135.774  0.00  0.00    +0.000 C 
ENDBRANCH  21  30
ENDBRANCH   4  21
TORSDOF 4
ENDMDL
MODEL 6
REMARK VINA RESULT:      -9.1      4.991      6.464
REMARK  Name = 42607952
REMARK  4 active torsions:
REMARK  status: ('A' for Active; 'I' for Inactive)
REMARK    1  A    between atoms: O_2  and  C_14
REMARK    2  A    between atoms: O_2  and  C_16
REMARK    3  A    between atoms: O_9  and  C_30
REMARK    4  A    between atoms: C_17  and  C_25
REMARK                            x       y       z     vdW  Elec       q    Type
REMARK                         _______ _______ _______ _____ _____    ______ ____
ROOT
ATOM      1  O   UNL     1     104.650 124.575 139.589  0.00  0.00    +0.000 OA
ATOM      2  O   UNL     1     105.574 123.607 142.149  0.00  0.00    +0.000 OA
ATOM      3  O   UNL     1     104.798 122.766 141.271  0.00  0.00    +0.000 OA
ATOM      4  C   UNL     1     105.853 125.600 141.167  0.00  0.00    +0.000 A 
ATOM      5  C   UNL     1     104.291 123.846 139.443  0.00  0.00    +0.000 C 
ATOM      6  C   UNL     1     104.340 123.244 140.004  0.00  0.00    +0.000 C 
ATOM      7  C   UNL     1     105.058 124.701 140.294  0.00  0.00    +0.000 A 
ATOM      8  C   UNL     1     105.107 124.097 140.855  0.00  0.00    +0.000 A 
ATOM      9  C   UNL     1     105.427 125.464 140.434  0.00  0.00    +0.000 A 
ATOM     10  C   UNL     1     104.748 123.369 140.710  0.00  0.00    +0.000 C 
ATOM     11  C   UNL     1     105.905 124.973 141.751  0.00  0.00    +0.000 A 
ATOM     12  C   UNL     1     105.530 124.216 141.594  0.00  0.00    +0.000 A 
ENDROOT
BRANCH   5  13
ATOM     13  C   UNL     1     103.882 123.721 138.737  0.00  0.00    +0.000 A 
ATOM     14  C   UNL     1     104.294 123.508 138.055  0.00  0.00    +0.000 A 
ATOM     15  C   UNL     1     103.062 123.807 138.714  0.00  0.00    +0.000 A 
ATOM     16  C   UNL     1     103.886 123.382 137.349  0.00  0.00    +0.000 A 
ATOM     17  C   UNL     1     102.654 123.682 138.009  0.00  0.00    +0.000 A 
ATOM     18  C   UNL     1     103.065 123.469 137.326  0.00  0.00    +0.000 A 
BRANCH  18  19
ATOM     19  O   UNL     1     102.657 123.343 136.620  0.00  0.00    +0.000 OA
ATOM     20  C   UNL     1     102.939 122.794 136.073  0.00  0.00    +0.000 C 
ENDBRANCH  18  19
ENDBRANCH   5  13
BRANCH   4  21
ATOM     21  O   UNL     1     106.211 126.330 141.309  0.00  0.00    +0.000 OA
BRANCH  21  30
ATOM     22  O   UNL     1     107.484 125.996 140.753  0.00  0.00    +0.000 OA
ATOM     23  O   UNL     1     108.601 127.365 142.486  0.00  0.00    +0.000 OA
ATOM     24  O   UNL     1     109.502 126.574 141.352  0.00  0.00    +0.000 OA
ATOM     25  O   UNL     1     106.955 127.243 142.465  0.00  0.00    +0.000 OA
ATOM     26  C   UNL     1     108.229 126.908 141.909  0.00  0.00    +0.000 C 
ATOM     27  C   UNL     1     108.679 126.514 141.342  0.00  0.00    +0.000 C 
ATOM     28  C   UNL     1     107.407 126.848 141.898  0.00  0.00    +0.000 C 
ATOM     29  C   UNL     1     108.307 126.058 140.764  0.00  0.00    +0.000 C 
ATOM     30  C   UNL     1     107.034 126.391 141.320  0.00  0.00    +0.000 C 
ATOM     31  C   UNL     1     108.757 125.662 140.196  0.00  0.00    +0.000 C 
ENDBRANCH  21  30
ENDBRANCH   4  21
TORSDOF 4
ENDMDL
MODEL 7
REMARK VINA RESULT:      -9.1      8.956     10.401
REMARK  Name = 42607952
REMARK  4 active torsions:
REMARK  status: ('A' for Active; 'I' for Inactive)
REMARK    1  A    between atoms: O_2  and  C_14
REMARK    2  A    between atoms: O_2  and  C_16
REMARK    3  A    between atoms: O_9  and  C_30
REMARK    4  A    between atoms: C_17  and  C_25
REMARK                            x       y       z     vdW  Elec       q    Type
REMARK                         _______ _______ _______ _____ _____    ______ ____
ROOT
ATOM      1  O   UNL     1     111.614 128.676 136.054  0.00  0.00    +0.000 OA
ATOM      2  O   UNL     1     114.421 128.385 135.435  0.00  0.00    +0.000 OA
ATOM      3  O   UNL     1     113.604 129.359 134.753  0.00  0.00    +0.000 OA
ATOM      4  C   UNL     1     113.141 127.287 136.910  0.00  0.00    +0.000 A 
ATOM      5  C   UNL     1     111.552 129.276 135.492  0.00  0.00    +0.000 C 
ATOM      6  C   UNL     1     112.216 129.504 135.058  0.00  0.00    +0.000 C 
ATOM      7  C   UNL     1     112.338 128.303 136.183  0.00  0.00    +0.000 A 
ATOM      8  C   UNL     1     113.001 128.531 135.749  0.00  0.00    +0.000 A 
ATOM      9  C   UNL     1     112.389 127.679 136.771  0.00  0.00    +0.000 A 
ATOM     10  C   UNL     1     112.940 129.132 135.186  0.00  0.00    +0.000 C 
ATOM     11  C   UNL     1     113.833 127.524 136.458  0.00  0.00    +0.000 A 
ATOM     12  C   UNL     1     113.762 128.150 135.874  0.00  0.00    +0.000 A 
ENDROOT
BRANCH   5  13
ATOM     13  C   UNL     1     110.827 129.649 135.363  0.00  0.00    +0.000 A 
ATOM     14  C   UNL     1     110.342 129.404 134.743  0.00  0.00    +0.000 A 
ATOM     15  C   UNL     1     110.588 130.267 135.855  0.00  0.00    +0.000 A 
ATOM     16  C   UNL     1     109.617 129.777 134.614  0.00  0.00    +0.000 A 
ATOM     17  C   UNL     1     109.864 130.640 135.727  0.00  0.00    +0.000 A 
ATOM     18  C   UNL     1     109.379 130.395 135.106  0.00  0.00    +0.000 A 
BRANCH  18  19
ATOM     19  O   UNL     1     108.654 130.768 134.978  0.00  0.00    +0.000 OA
ATOM     20  C   UNL     1     108.632 131.531 134.665  0.00  0.00    +0.000 C 
ENDBRANCH  18  19
ENDBRANCH   5  13
BRANCH   4  21
ATOM     21  O   UNL     1     113.199 126.687 137.473  0.00  0.00    +0.000 OA
BRANCH  21  30
ATOM     22  O   UNL     1     112.449 125.670 136.806  0.00  0.00    +0.000 OA
ATOM     23  O   UNL     1     114.151 123.993 137.450  0.00  0.00    +0.000 OA
ATOM     24  O   UNL     1     112.834 123.535 136.568  0.00  0.00    +0.000 OA
ATOM     25  O   UNL     1     114.333 125.569 137.903  0.00  0.00    +0.000 OA
ATOM     26  C   UNL     1     113.584 124.552 137.235  0.00  0.00    +0.000 C 
ATOM     27  C   UNL     1     112.926 124.323 136.795  0.00  0.00    +0.000 C 
ATOM     28  C   UNL     1     113.675 125.339 137.462  0.00  0.00    +0.000 C 
ATOM     29  C   UNL     1     112.359 124.882 136.580  0.00  0.00    +0.000 C 
ATOM     30  C   UNL     1     113.108 125.898 137.247  0.00  0.00    +0.000 C 
ATOM     31  C   UNL     1     111.700 124.653 136.138  0.00  0.00    +0.000 C 
ENDBRANCH  21  30
ENDBRANCH   4  21
TORSDOF 4
ENDMDL
MODEL 8
REMARK VINA RESULT:      -9.1      7.830     10.578
REMARK  Name = 42607952
REMARK  4 active torsions:
REMARK  status: ('A' for Active; 'I' for Inactive)
REMARK    1  A    between atoms: O_2  and  C_14
REMARK    2  A    between atoms: O_2  and  C_16
REMARK    3  A    between atoms: O_9  and  C_30
REMARK    4  A    between atoms: C_17  and  C_25
REMARK                            x       y       z     vdW  Elec       q    Type
REMARK                         _______ _______ _______ _____ _____    ______ ____
ROOT
ATOM      1  O   UNL     1     111.073 126.351 136.596  0.00  0.00    +0.000 OA
ATOM      2  O   UNL     1     108.886 126.205 134.715  0.00  0.00    +0.000 OA
ATOM      3  O   UNL     1     109.942 125.222 134.707  0.00  0.00    +0.000 OA
ATOM      4  C   UNL     1     109.303 127.689 136.339  0.00  0.00    +0.000 A 
ATOM      5  C   UNL     1     111.402 125.670 136.267  0.00  0.00    +0.000 C 
ATOM      6  C   UNL     1     111.024 125.294 135.637  0.00  0.00    +0.000 C 
ATOM      7  C   UNL     1     110.369 126.657 136.297  0.00  0.00    +0.000 A 
ATOM      8  C   UNL     1     109.992 126.280 135.666  0.00  0.00    +0.000 A 
ATOM      9  C   UNL     1     110.037 127.367 136.647  0.00  0.00    +0.000 A 
ATOM     10  C   UNL     1     110.319 125.598 135.337  0.00  0.00    +0.000 C 
ATOM     11  C   UNL     1     108.909 127.298 135.683  0.00  0.00    +0.000 A 
ATOM     12  C   UNL     1     109.256 126.588 135.345  0.00  0.00    +0.000 A 
ENDROOT
BRANCH   5  13
ATOM     13  C   UNL     1     112.107 125.365 136.567  0.00  0.00    +0.000 A 
ATOM     14  C   UNL     1     112.799 125.812 136.531  0.00  0.00    +0.000 A 
ATOM     15  C   UNL     1     112.120 124.611 136.903  0.00  0.00    +0.000 A 
ATOM     16  C   UNL     1     113.504 125.507 136.831  0.00  0.00    +0.000 A 
ATOM     17  C   UNL     1     112.825 124.305 137.204  0.00  0.00    +0.000 A 
ATOM     18  C   UNL     1     113.517 124.753 137.167  0.00  0.00    +0.000 A 
BRANCH  18  19
ATOM     19  O   UNL     1     114.222 124.448 137.468  0.00  0.00    +0.000 OA
ATOM     20  C   UNL     1     114.946 124.732 137.191  0.00  0.00    +0.000 C 
ENDBRANCH  18  19
ENDBRANCH   5  13
BRANCH   4  21
ATOM     21  O   UNL     1     108.977 128.371 136.671  0.00  0.00    +0.000 OA
BRANCH  21  30
ATOM     22  O   UNL     1     109.950 129.354 136.311  0.00  0.00    +0.000 OA
ATOM     23  O   UNL     1     108.145 130.846 135.510  0.00  0.00    +0.000 OA
ATOM     24  O   UNL     1     109.719 131.332 135.417  0.00  0.00    +0.000 OA
ATOM     25  O   UNL     1     107.774 129.366 136.137  0.00  0.00    +0.000 OA
ATOM     26  C   UNL     1     108.747 130.349 135.777  0.00  0.00    +0.000 C 
ATOM     27  C   UNL     1     109.533 130.592 135.730  0.00  0.00    +0.000 C 
ATOM     28  C   UNL     1     108.561 129.609 136.090  0.00  0.00    +0.000 C 
ATOM     29  C   UNL     1     110.135 130.094 135.997  0.00  0.00    +0.000 C 
ATOM     30  C   UNL     1     109.163 129.112 136.357  0.00  0.00    +0.000 C 
ATOM     31  C   UNL     1     110.923 130.337 135.951  0.00  0.00    +0.000 C 
ENDBRANCH  21  30
ENDBRANCH   4  21
TORSDOF 4
ENDMDL
MODEL 9
REMARK VINA RESULT:      -8.9      7.792     10.749
REMARK  Name = 42607952
REMARK  4 active torsions:
REMARK  status: ('A' for Active; 'I' for Inactive)
REMARK    1  A    between atoms: O_2  and  C_14
REMARK    2  A    between atoms: O_2  and  C_16
REMARK    3  A    between atoms: O_9  and  C_30
REMARK    4  A    between atoms: C_17  and  C_25
REMARK                            x       y       z     vdW  Elec       q    Type
REMARK                         _______ _______ _______ _____ _____    ______ ____
ROOT
ATOM      1  O   UNL     1     111.499 127.171 136.152  0.00  0.00    +0.000 OA
ATOM      2  O   UNL     1     113.299 129.378 135.664  0.00  0.00    +0.000 OA
ATOM      3  O   UNL     1     113.785 128.119 136.176  0.00  0.00    +0.000 OA
ATOM      4  C   UNL     1     111.083 129.224 135.375  0.00  0.00    +0.000 A 
ATOM      5  C   UNL     1     112.133 126.711 136.410  0.00  0.00    +0.000 C 
ATOM      6  C   UNL     1     112.895 127.027 136.418  0.00  0.00    +0.000 C 
ATOM      7  C   UNL     1     111.625 127.947 135.902  0.00  0.00    +0.000 A 
ATOM      8  C   UNL     1     112.388 128.262 135.911  0.00  0.00    +0.000 A 
ATOM      9  C   UNL     1     110.957 128.416 135.636  0.00  0.00    +0.000 A 
ATOM     10  C   UNL     1     113.023 127.803 136.168  0.00  0.00    +0.000 C 
ATOM     11  C   UNL     1     111.877 129.554 135.383  0.00  0.00    +0.000 A 
ATOM     12  C   UNL     1     112.534 129.070 135.653  0.00  0.00    +0.000 A 
ENDROOT
BRANCH   5  13
ATOM     13  C   UNL     1     112.006 125.935 136.659  0.00  0.00    +0.000 A 
ATOM     14  C   UNL     1     111.854 125.777 137.455  0.00  0.00    +0.000 A 
ATOM     15  C   UNL     1     112.030 125.317 136.114  0.00  0.00    +0.000 A 
ATOM     16  C   UNL     1     111.726 125.001 137.704  0.00  0.00    +0.000 A 
ATOM     17  C   UNL     1     111.903 124.541 136.362  0.00  0.00    +0.000 A 
ATOM     18  C   UNL     1     111.751 124.383 137.158  0.00  0.00    +0.000 A 
BRANCH  18  19
ATOM     19  O   UNL     1     111.624 123.607 137.407  0.00  0.00    +0.000 OA
ATOM     20  C   UNL     1     112.119 123.002 137.144  0.00  0.00    +0.000 C 
ENDBRANCH  18  19
ENDBRANCH   5  13
BRANCH   4  21
ATOM     21  O   UNL     1     110.447 129.682 135.118  0.00  0.00    +0.000 OA
BRANCH  21  30
ATOM     22  O   UNL     1     110.202 130.382 136.339  0.00  0.00    +0.000 OA
ATOM     23  O   UNL     1     107.764 130.179 135.967  0.00  0.00    +0.000 OA
ATOM     24  O   UNL     1     108.331 130.947 137.312  0.00  0.00    +0.000 OA
ATOM     25  O   UNL     1     108.821 129.546 134.870  0.00  0.00    +0.000 OA
ATOM     26  C   UNL     1     108.576 130.247 136.091  0.00  0.00    +0.000 C 
ATOM     27  C   UNL     1     108.860 130.631 136.763  0.00  0.00    +0.000 C 
ATOM     28  C   UNL     1     109.105 129.931 135.543  0.00  0.00    +0.000 C 
ATOM     29  C   UNL     1     109.673 130.698 136.888  0.00  0.00    +0.000 C 
ATOM     30  C   UNL     1     109.917 129.998 135.667  0.00  0.00    +0.000 C 
ATOM     31  C   UNL     1     109.957 131.083 137.561  0.00  0.00    +0.000 C 
ENDBRANCH  21  30
ENDBRANCH   4  21
TORSDOF 4
ENDMDL
MODEL 10
REMARK VINA RESULT:      -8.9      4.241      7.059
REMARK  Name = 42607952
REMARK  4 active torsions:
REMARK  status: ('A' for Active; 'I' for Inactive)
REMARK    1  A    between atoms: O_2  and  C_14
REMARK    2  A    between atoms: O_2  and  C_16
REMARK    3  A    between atoms: O_9  and  C_30
REMARK    4  A    between atoms: C_17  and  C_25
REMARK                            x       y       z     vdW  Elec       q    Type
REMARK                         _______ _______ _______ _____ _____    ______ ____
ROOT
ATOM      1  O   UNL     1     104.376 124.534 145.915  0.00  0.00    +0.000 OA
ATOM      2  O   UNL     1     106.495 125.354 147.700  0.00  0.00    +0.000 OA
ATOM      3  O   UNL     1     105.324 124.673 148.197  0.00  0.00    +0.000 OA
ATOM      4  C   UNL     1     106.294 125.593 145.481  0.00  0.00    +0.000 A 
ATOM      5  C   UNL     1     103.959 124.220 146.554  0.00  0.00    +0.000 C 
ATOM      6  C   UNL     1     104.276 124.267 147.315  0.00  0.00    +0.000 C 
ATOM      7  C   UNL     1     105.108 124.894 146.035  0.00  0.00    +0.000 A 
ATOM      8  C   UNL     1     105.424 124.940 146.796  0.00  0.00    +0.000 A 
ATOM      9  C   UNL     1     105.532 125.217 145.362  0.00  0.00    +0.000 A 
ATOM     10  C   UNL     1     105.008 124.626 147.436  0.00  0.00    +0.000 C 
ATOM     11  C   UNL     1     106.625 125.641 146.273  0.00  0.00    +0.000 A 
ATOM     12  C   UNL     1     106.186 125.313 146.935  0.00  0.00    +0.000 A 
ENDROOT
BRANCH   5  13
ATOM     13  C   UNL     1     103.227 123.860 146.434  0.00  0.00    +0.000 A 
ATOM     14  C   UNL     1     102.533 124.261 146.630  0.00  0.00    +0.000 A 
ATOM     15  C   UNL     1     103.188 123.100 146.117  0.00  0.00    +0.000 A 
ATOM     16  C   UNL     1     101.800 123.901 146.509  0.00  0.00    +0.000 A 
ATOM     17  C   UNL     1     102.456 122.739 145.996  0.00  0.00    +0.000 A 
ATOM     18  C   UNL     1     101.762 123.140 146.192  0.00  0.00    +0.000 A 
BRANCH  18  19
ATOM     19  O   UNL     1     101.030 122.780 146.072  0.00  0.00    +0.000 OA
ATOM     20  C   UNL     1     100.710 122.739 145.312  0.00  0.00    +0.000 C 
ENDBRANCH  18  19
ENDBRANCH   5  13
BRANCH   4  21
ATOM     21  O   UNL     1     106.708 125.906 144.840  0.00  0.00    +0.000 OA
BRANCH  21  30
ATOM     22  O   UNL     1     106.060 127.179 144.823  0.00  0.00    +0.000 OA
ATOM     23  O   UNL     1     106.134 127.185 142.349  0.00  0.00    +0.000 OA
ATOM     24  O   UNL     1     105.461 128.456 143.157  0.00  0.00    +0.000 OA
ATOM     25  O   UNL     1     106.758 125.910 143.190  0.00  0.00    +0.000 OA
ATOM     26  C   UNL     1     106.109 127.183 143.174  0.00  0.00    +0.000 C 
ATOM     27  C   UNL     1     105.773 127.818 143.577  0.00  0.00    +0.000 C 
ATOM     28  C   UNL     1     106.421 126.546 143.594  0.00  0.00    +0.000 C 
ATOM     29  C   UNL     1     105.748 127.816 144.402  0.00  0.00    +0.000 C 
ATOM     30  C   UNL     1     106.396 126.544 144.419  0.00  0.00    +0.000 C 
ATOM     31  C   UNL     1     105.411 128.452 144.806  0.00  0.00    +0.000 C 
ENDBRANCH  21  30
ENDBRANCH   4  21
TORSDOF 4
ENDMDL
