MODEL 1
REMARK VINA RESULT:      -8.1      0.000      0.000
REMARK  Name = null
REMARK  2 active torsions:
REMARK  status: ('A' for Active; 'I' for Inactive)
REMARK    1  A    between atoms: O_2  and  C_3
REMARK    2  A    between atoms: C_10  and  C_14
REMARK                            x       y       z     vdW  Elec       q    Type
REMARK                         _______ _______ _______ _____ _____    ______ ____
ROOT
ATOM      1  C   UNL     1     114.090 125.114 136.732  0.00  0.00    +0.000 A 
ATOM      2  C   UNL     1     113.976 124.359 137.047  0.00  0.00    +0.000 A 
ATOM      3  C   UNL     1     113.226 124.017 137.037  0.00  0.00    +0.000 A 
ATOM      4  C   UNL     1     112.589 124.429 136.714  0.00  0.00    +0.000 A 
ATOM      5  C   UNL     1     111.838 124.088 136.704  0.00  0.00    +0.000 C 
ATOM      6  O   UNL     1     111.724 123.333 137.018  0.00  0.00    +0.000 OA
ATOM      7  C   UNL     1     111.201 124.500 136.381  0.00  0.00    +0.000 C 
ATOM      8  C   UNL     1     111.315 125.255 136.067  0.00  0.00    +0.000 C 
ATOM      9  O   UNL     1     112.065 125.597 136.076  0.00  0.00    +0.000 OA
ATOM     10  C   UNL     1     112.703 125.185 136.400  0.00  0.00    +0.000 A 
ATOM     11  C   UNL     1     113.453 125.526 136.409  0.00  0.00    +0.000 A 
ATOM     12  O   UNL     1     113.112 123.263 137.351  0.00  0.00    +0.000 OA
ENDROOT
BRANCH   8  13
ATOM     13  C   UNL     1     110.677 125.667 135.744  0.00  0.00    +0.000 A 
ATOM     14  C   UNL     1     110.232 126.175 136.216  0.00  0.00    +0.000 A 
ATOM     15  C   UNL     1     109.594 126.587 135.893  0.00  0.00    +0.000 A 
ATOM     16  C   UNL     1     109.402 126.491 135.096  0.00  0.00    +0.000 A 
ATOM     17  C   UNL     1     109.849 125.982 134.623  0.00  0.00    +0.000 A 
ATOM     18  C   UNL     1     110.486 125.571 134.947  0.00  0.00    +0.000 A 
ENDBRANCH   8  13
BRANCH   1  20
ATOM     19  C   UNL     1     115.328 125.402 136.078  0.00  0.00    +0.000 C 
ATOM     20  O   UNL     1     114.841 125.455 136.742  0.00  0.00    +0.000 OA
ENDBRANCH   1  20
TORSDOF 2
ENDMDL
MODEL 2
REMARK VINA RESULT:      -8.0     12.825     13.933
REMARK  Name = null
REMARK  2 active torsions:
REMARK  status: ('A' for Active; 'I' for Inactive)
REMARK    1  A    between atoms: O_2  and  C_3
REMARK    2  A    between atoms: C_10  and  C_14
REMARK                            x       y       z     vdW  Elec       q    Type
REMARK                         _______ _______ _______ _____ _____    ______ ____
ROOT
ATOM      1  C   UNL     1     103.710 123.862 146.182  0.00  0.00    +0.000 A 
ATOM      2  C   UNL     1     103.133 124.244 146.633  0.00  0.00    +0.000 A 
ATOM      3  C   UNL     1     103.343 124.624 147.335  0.00  0.00    +0.000 A 
ATOM      4  C   UNL     1     104.128 124.622 147.586  0.00  0.00    +0.000 A 
ATOM      5  C   UNL     1     104.338 125.002 148.288  0.00  0.00    +0.000 C 
ATOM      6  O   UNL     1     103.761 125.384 148.738  0.00  0.00    +0.000 OA
ATOM      7  C   UNL     1     105.123 125.001 148.539  0.00  0.00    +0.000 C 
ATOM      8  C   UNL     1     105.700 124.619 148.089  0.00  0.00    +0.000 C 
ATOM      9  O   UNL     1     105.491 124.239 147.387  0.00  0.00    +0.000 OA
ATOM     10  C   UNL     1     104.705 124.240 147.135  0.00  0.00    +0.000 A 
ATOM     11  C   UNL     1     104.496 123.861 146.434  0.00  0.00    +0.000 A 
ATOM     12  O   UNL     1     102.766 125.005 147.785  0.00  0.00    +0.000 OA
ENDROOT
BRANCH   8  13
ATOM     13  C   UNL     1     106.486 124.617 148.341  0.00  0.00    +0.000 A 
ATOM     14  C   UNL     1     107.065 124.993 147.890  0.00  0.00    +0.000 A 
ATOM     15  C   UNL     1     107.850 124.991 148.142  0.00  0.00    +0.000 A 
ATOM     16  C   UNL     1     108.056 124.614 148.846  0.00  0.00    +0.000 A 
ATOM     17  C   UNL     1     107.477 124.238 149.298  0.00  0.00    +0.000 A 
ATOM     18  C   UNL     1     106.692 124.240 149.045  0.00  0.00    +0.000 A 
ENDBRANCH   8  13
BRANCH   1  20
ATOM     19  C   UNL     1     103.138 122.742 145.503  0.00  0.00    +0.000 C 
ATOM     20  O   UNL     1     103.501 123.483 145.481  0.00  0.00    +0.000 OA
ENDBRANCH   1  20
TORSDOF 2
ENDMDL
MODEL 3
REMARK VINA RESULT:      -8.0     12.122     12.845
REMARK  Name = null
REMARK  2 active torsions:
REMARK  status: ('A' for Active; 'I' for Inactive)
REMARK    1  A    between atoms: O_2  and  C_3
REMARK    2  A    between atoms: C_10  and  C_14
REMARK                            x       y       z     vdW  Elec       q    Type
REMARK                         _______ _______ _______ _____ _____    ______ ____
ROOT
ATOM      1  C   UNL     1     106.976 124.951 148.405  0.00  0.00    +0.000 A 
ATOM      2  C   UNL     1     107.409 125.231 147.759  0.00  0.00    +0.000 A 
ATOM      3  C   UNL     1     107.070 125.241 147.008  0.00  0.00    +0.000 A 
ATOM      4  C   UNL     1     106.298 124.972 146.901  0.00  0.00    +0.000 A 
ATOM      5  C   UNL     1     105.958 124.981 146.149  0.00  0.00    +0.000 C 
ATOM      6  O   UNL     1     106.390 125.261 145.505  0.00  0.00    +0.000 OA
ATOM      7  C   UNL     1     105.186 124.712 146.042  0.00  0.00    +0.000 C 
ATOM      8  C   UNL     1     104.753 124.432 146.687  0.00  0.00    +0.000 C 
ATOM      9  O   UNL     1     105.092 124.422 147.438  0.00  0.00    +0.000 OA
ATOM     10  C   UNL     1     105.865 124.692 147.546  0.00  0.00    +0.000 A 
ATOM     11  C   UNL     1     106.204 124.682 148.297  0.00  0.00    +0.000 A 
ATOM     12  O   UNL     1     107.502 125.520 146.364  0.00  0.00    +0.000 OA
ENDROOT
BRANCH   8  13
ATOM     13  C   UNL     1     103.980 124.162 146.579  0.00  0.00    +0.000 A 
ATOM     14  C   UNL     1     103.345 124.602 146.868  0.00  0.00    +0.000 A 
ATOM     15  C   UNL     1     102.573 124.332 146.760  0.00  0.00    +0.000 A 
ATOM     16  C   UNL     1     102.436 123.622 146.363  0.00  0.00    +0.000 A 
ATOM     17  C   UNL     1     103.072 123.182 146.073  0.00  0.00    +0.000 A 
ATOM     18  C   UNL     1     103.844 123.453 146.182  0.00  0.00    +0.000 A 
ENDBRANCH   8  13
BRANCH   1  20
ATOM     19  C   UNL     1     107.637 124.243 149.457  0.00  0.00    +0.000 C 
ATOM     20  O   UNL     1     107.316 124.942 149.156  0.00  0.00    +0.000 OA
ENDBRANCH   1  20
TORSDOF 2
ENDMDL
MODEL 4
REMARK VINA RESULT:      -7.9     10.252     11.904
REMARK  Name = null
REMARK  2 active torsions:
REMARK  status: ('A' for Active; 'I' for Inactive)
REMARK    1  A    between atoms: O_2  and  C_3
REMARK    2  A    between atoms: C_10  and  C_14
REMARK                            x       y       z     vdW  Elec       q    Type
REMARK                         _______ _______ _______ _____ _____    ______ ____
ROOT
ATOM      1  C   UNL     1     104.325 128.846 142.529  0.00  0.00    +0.000 A 
ATOM      2  C   UNL     1     104.289 128.455 141.802  0.00  0.00    +0.000 A 
ATOM      3  C   UNL     1     103.796 128.740 141.206  0.00  0.00    +0.000 A 
ATOM      4  C   UNL     1     103.339 129.413 141.335  0.00  0.00    +0.000 A 
ATOM      5  C   UNL     1     102.845 129.698 140.738  0.00  0.00    +0.000 C 
ATOM      6  O   UNL     1     102.809 129.309 140.012  0.00  0.00    +0.000 OA
ATOM      7  C   UNL     1     102.388 130.372 140.867  0.00  0.00    +0.000 C 
ATOM      8  C   UNL     1     102.423 130.762 141.594  0.00  0.00    +0.000 C 
ATOM      9  O   UNL     1     102.916 130.478 142.191  0.00  0.00    +0.000 OA
ATOM     10  C   UNL     1     103.374 129.804 142.062  0.00  0.00    +0.000 A 
ATOM     11  C   UNL     1     103.867 129.519 142.658  0.00  0.00    +0.000 A 
ATOM     12  O   UNL     1     103.760 128.350 140.479  0.00  0.00    +0.000 OA
ENDROOT
BRANCH   8  13
ATOM     13  C   UNL     1     101.965 131.436 141.723  0.00  0.00    +0.000 A 
ATOM     14  C   UNL     1     102.273 132.183 141.555  0.00  0.00    +0.000 A 
ATOM     15  C   UNL     1     101.815 132.857 141.684  0.00  0.00    +0.000 A 
ATOM     16  C   UNL     1     101.049 132.784 141.980  0.00  0.00    +0.000 A 
ATOM     17  C   UNL     1     100.740 132.037 142.148  0.00  0.00    +0.000 A 
ATOM     18  C   UNL     1     101.199 131.363 142.019  0.00  0.00    +0.000 A 
ENDBRANCH   8  13
BRANCH   1  20
ATOM     19  C   UNL     1     105.593 128.838 143.190  0.00  0.00    +0.000 C 
ATOM     20  O   UNL     1     104.818 128.561 143.126  0.00  0.00    +0.000 OA
ENDBRANCH   1  20
TORSDOF 2
ENDMDL
MODEL 5
REMARK VINA RESULT:      -7.9      1.440      3.837
REMARK  Name = null
REMARK  2 active torsions:
REMARK  status: ('A' for Active; 'I' for Inactive)
REMARK    1  A    between atoms: O_2  and  C_3
REMARK    2  A    between atoms: C_10  and  C_14
REMARK                            x       y       z     vdW  Elec       q    Type
REMARK                         _______ _______ _______ _____ _____    ______ ____
ROOT
ATOM      1  C   UNL     1     110.834 127.421 134.987  0.00  0.00    +0.000 A 
ATOM      2  C   UNL     1     110.303 126.803 134.855  0.00  0.00    +0.000 A 
ATOM      3  C   UNL     1     110.463 126.052 135.154  0.00  0.00    +0.000 A 
ATOM      4  C   UNL     1     111.152 125.917 135.586  0.00  0.00    +0.000 A 
ATOM      5  C   UNL     1     111.312 125.165 135.885  0.00  0.00    +0.000 C 
ATOM      6  O   UNL     1     110.782 124.548 135.754  0.00  0.00    +0.000 OA
ATOM      7  C   UNL     1     112.002 125.031 136.316  0.00  0.00    +0.000 C 
ATOM      8  C   UNL     1     112.534 125.649 136.448  0.00  0.00    +0.000 C 
ATOM      9  O   UNL     1     112.374 126.401 136.149  0.00  0.00    +0.000 OA
ATOM     10  C   UNL     1     111.684 126.536 135.718  0.00  0.00    +0.000 A 
ATOM     11  C   UNL     1     111.524 127.287 135.418  0.00  0.00    +0.000 A 
ATOM     12  O   UNL     1     109.932 125.434 135.023  0.00  0.00    +0.000 OA
ENDROOT
BRANCH   8  13
ATOM     13  C   UNL     1     113.224 125.514 136.880  0.00  0.00    +0.000 A 
ATOM     14  C   UNL     1     113.264 125.732 137.674  0.00  0.00    +0.000 A 
ATOM     15  C   UNL     1     113.954 125.597 138.106  0.00  0.00    +0.000 A 
ATOM     16  C   UNL     1     114.605 125.244 137.742  0.00  0.00    +0.000 A 
ATOM     17  C   UNL     1     114.565 125.026 136.946  0.00  0.00    +0.000 A 
ATOM     18  C   UNL     1     113.875 125.161 136.516  0.00  0.00    +0.000 A 
ENDBRANCH   8  13
BRANCH   1  20
ATOM     19  C   UNL     1     110.219 128.705 135.125  0.00  0.00    +0.000 C 
ATOM     20  O   UNL     1     110.674 128.173 134.687  0.00  0.00    +0.000 OA
ENDBRANCH   1  20
TORSDOF 2
ENDMDL
MODEL 6
REMARK VINA RESULT:      -7.6      2.837      4.494
REMARK  Name = null
REMARK  2 active torsions:
REMARK  status: ('A' for Active; 'I' for Inactive)
REMARK    1  A    between atoms: O_2  and  C_3
REMARK    2  A    between atoms: C_10  and  C_14
REMARK                            x       y       z     vdW  Elec       q    Type
REMARK                         _______ _______ _______ _____ _____    ______ ____
ROOT
ATOM      1  C   UNL     1     113.869 129.465 135.403  0.00  0.00    +0.000 A 
ATOM      2  C   UNL     1     113.048 129.519 135.336  0.00  0.00    +0.000 A 
ATOM      3  C   UNL     1     112.573 128.891 135.579  0.00  0.00    +0.000 A 
ATOM      4  C   UNL     1     112.917 128.209 135.889  0.00  0.00    +0.000 A 
ATOM      5  C   UNL     1     112.442 127.580 136.132  0.00  0.00    +0.000 C 
ATOM      6  O   UNL     1     111.621 127.633 136.065  0.00  0.00    +0.000 OA
ATOM      7  C   UNL     1     112.786 126.898 136.442  0.00  0.00    +0.000 C 
ATOM      8  C   UNL     1     113.608 126.845 136.510  0.00  0.00    +0.000 C 
ATOM      9  O   UNL     1     114.083 127.473 136.267  0.00  0.00    +0.000 OA
ATOM     10  C   UNL     1     113.739 128.155 135.956  0.00  0.00    +0.000 A 
ATOM     11  C   UNL     1     114.214 128.784 135.713  0.00  0.00    +0.000 A 
ATOM     12  O   UNL     1     111.752 128.944 135.511  0.00  0.00    +0.000 OA
ENDROOT
BRANCH   8  13
ATOM     13  C   UNL     1     113.952 126.162 136.820  0.00  0.00    +0.000 A 
ATOM     14  C   UNL     1     114.299 125.609 136.317  0.00  0.00    +0.000 A 
ATOM     15  C   UNL     1     114.644 124.926 136.628  0.00  0.00    +0.000 A 
ATOM     16  C   UNL     1     114.640 124.797 137.443  0.00  0.00    +0.000 A 
ATOM     17  C   UNL     1     114.292 125.351 137.947  0.00  0.00    +0.000 A 
ATOM     18  C   UNL     1     113.948 126.033 137.635  0.00  0.00    +0.000 A 
ENDBRANCH   8  13
BRANCH   1  20
ATOM     19  C   UNL     1     114.703 130.583 135.719  0.00  0.00    +0.000 C 
ATOM     20  O   UNL     1     114.345 130.094 135.159  0.00  0.00    +0.000 OA
ENDBRANCH   1  20
TORSDOF 2
ENDMDL
MODEL 7
REMARK VINA RESULT:      -7.6     11.224     12.275
REMARK  Name = null
REMARK  2 active torsions:
REMARK  status: ('A' for Active; 'I' for Inactive)
REMARK    1  A    between atoms: O_2  and  C_3
REMARK    2  A    between atoms: C_10  and  C_14
REMARK                            x       y       z     vdW  Elec       q    Type
REMARK                         _______ _______ _______ _____ _____    ______ ____
ROOT
ATOM      1  C   UNL     1     105.771 125.423 144.745  0.00  0.00    +0.000 A 
ATOM      2  C   UNL     1     105.899 126.235 144.663  0.00  0.00    +0.000 A 
ATOM      3  C   UNL     1     106.254 126.660 145.275  0.00  0.00    +0.000 A 
ATOM      4  C   UNL     1     106.481 126.274 145.967  0.00  0.00    +0.000 A 
ATOM      5  C   UNL     1     106.835 126.699 146.579  0.00  0.00    +0.000 C 
ATOM      6  O   UNL     1     106.963 127.510 146.498  0.00  0.00    +0.000 OA
ATOM      7  C   UNL     1     107.062 126.314 147.272  0.00  0.00    +0.000 C 
ATOM      8  C   UNL     1     106.934 125.502 147.353  0.00  0.00    +0.000 C 
ATOM      9  O   UNL     1     106.580 125.077 146.742  0.00  0.00    +0.000 OA
ATOM     10  C   UNL     1     106.353 125.462 146.049  0.00  0.00    +0.000 A 
ATOM     11  C   UNL     1     105.998 125.038 145.438  0.00  0.00    +0.000 A 
ATOM     12  O   UNL     1     106.382 127.471 145.193  0.00  0.00    +0.000 OA
ENDROOT
BRANCH   8  13
ATOM     13  C   UNL     1     107.161 125.116 148.047  0.00  0.00    +0.000 A 
ATOM     14  C   UNL     1     107.954 124.932 148.176  0.00  0.00    +0.000 A 
ATOM     15  C   UNL     1     108.181 124.546 148.869  0.00  0.00    +0.000 A 
ATOM     16  C   UNL     1     107.614 124.346 149.434  0.00  0.00    +0.000 A 
ATOM     17  C   UNL     1     106.820 124.531 149.305  0.00  0.00    +0.000 A 
ATOM     18  C   UNL     1     106.594 124.916 148.611  0.00  0.00    +0.000 A 
ENDBRANCH   8  13
BRANCH   1  20
ATOM     19  C   UNL     1     105.856 124.787 143.467  0.00  0.00    +0.000 C 
ATOM     20  O   UNL     1     105.416 124.999 144.133  0.00  0.00    +0.000 OA
ENDBRANCH   1  20
TORSDOF 2
ENDMDL
MODEL 8
REMARK VINA RESULT:      -7.6      1.531      1.892
REMARK  Name = null
REMARK  2 active torsions:
REMARK  status: ('A' for Active; 'I' for Inactive)
REMARK    1  A    between atoms: O_2  and  C_3
REMARK    2  A    between atoms: C_10  and  C_14
REMARK                            x       y       z     vdW  Elec       q    Type
REMARK                         _______ _______ _______ _____ _____    ______ ____
ROOT
ATOM      1  C   UNL     1     113.599 126.305 138.555  0.00  0.00    +0.000 A 
ATOM      2  C   UNL     1     114.134 125.712 138.342  0.00  0.00    +0.000 A 
ATOM      3  C   UNL     1     114.008 125.270 137.658  0.00  0.00    +0.000 A 
ATOM      4  C   UNL     1     113.349 125.419 137.185  0.00  0.00    +0.000 A 
ATOM      5  C   UNL     1     113.223 124.977 136.500  0.00  0.00    +0.000 C 
ATOM      6  O   UNL     1     113.757 124.385 136.288  0.00  0.00    +0.000 OA
ATOM      7  C   UNL     1     112.564 125.125 136.028  0.00  0.00    +0.000 C 
ATOM      8  C   UNL     1     112.029 125.718 136.241  0.00  0.00    +0.000 C 
ATOM      9  O   UNL     1     112.155 126.160 136.925  0.00  0.00    +0.000 OA
ATOM     10  C   UNL     1     112.814 126.011 137.398  0.00  0.00    +0.000 A 
ATOM     11  C   UNL     1     112.940 126.454 138.082  0.00  0.00    +0.000 A 
ATOM     12  O   UNL     1     114.543 124.678 137.445  0.00  0.00    +0.000 OA
ENDROOT
BRANCH   8  13
ATOM     13  C   UNL     1     111.370 125.867 135.768  0.00  0.00    +0.000 A 
ATOM     14  C   UNL     1     111.291 126.593 135.386  0.00  0.00    +0.000 A 
ATOM     15  C   UNL     1     110.631 126.741 134.913  0.00  0.00    +0.000 A 
ATOM     16  C   UNL     1     110.050 126.163 134.822  0.00  0.00    +0.000 A 
ATOM     17  C   UNL     1     110.129 125.435 135.205  0.00  0.00    +0.000 A 
ATOM     18  C   UNL     1     110.789 125.288 135.677  0.00  0.00    +0.000 A 
ENDBRANCH   8  13
BRANCH   1  20
ATOM     19  C   UNL     1     113.196 126.694 139.870  0.00  0.00    +0.000 C 
ATOM     20  O   UNL     1     113.725 126.747 139.240  0.00  0.00    +0.000 OA
ENDBRANCH   1  20
TORSDOF 2
ENDMDL
MODEL 9
REMARK VINA RESULT:      -7.6      3.210      4.314
REMARK  Name = null
REMARK  2 active torsions:
REMARK  status: ('A' for Active; 'I' for Inactive)
REMARK    1  A    between atoms: O_2  and  C_3
REMARK    2  A    between atoms: C_10  and  C_14
REMARK                            x       y       z     vdW  Elec       q    Type
REMARK                         _______ _______ _______ _____ _____    ______ ____
ROOT
ATOM      1  C   UNL     1     113.090 127.292 140.670  0.00  0.00    +0.000 A 
ATOM      2  C   UNL     1     112.306 127.034 140.699  0.00  0.00    +0.000 A 
ATOM      3  C   UNL     1     112.005 126.561 140.094  0.00  0.00    +0.000 A 
ATOM      4  C   UNL     1     112.486 126.346 139.461  0.00  0.00    +0.000 A 
ATOM      5  C   UNL     1     112.186 125.872 138.855  0.00  0.00    +0.000 C 
ATOM      6  O   UNL     1     111.402 125.615 138.884  0.00  0.00    +0.000 OA
ATOM      7  C   UNL     1     112.667 125.657 138.221  0.00  0.00    +0.000 C 
ATOM      8  C   UNL     1     113.451 125.915 138.192  0.00  0.00    +0.000 C 
ATOM      9  O   UNL     1     113.752 126.388 138.797  0.00  0.00    +0.000 OA
ATOM     10  C   UNL     1     113.271 126.603 139.432  0.00  0.00    +0.000 A 
ATOM     11  C   UNL     1     113.571 127.076 140.036  0.00  0.00    +0.000 A 
ATOM     12  O   UNL     1     111.222 126.303 140.123  0.00  0.00    +0.000 OA
ENDROOT
BRANCH   8  13
ATOM     13  C   UNL     1     113.933 125.699 137.558  0.00  0.00    +0.000 A 
ATOM     14  C   UNL     1     114.384 125.010 137.598  0.00  0.00    +0.000 A 
ATOM     15  C   UNL     1     114.865 124.794 136.963  0.00  0.00    +0.000 A 
ATOM     16  C   UNL     1     114.895 125.269 136.289  0.00  0.00    +0.000 A 
ATOM     17  C   UNL     1     114.443 125.958 136.249  0.00  0.00    +0.000 A 
ATOM     18  C   UNL     1     113.962 126.173 136.884  0.00  0.00    +0.000 A 
ENDBRANCH   8  13
BRANCH   1  20
ATOM     19  C   UNL     1     113.399 128.586 141.194  0.00  0.00    +0.000 C 
ATOM     20  O   UNL     1     113.391 127.765 141.275  0.00  0.00    +0.000 OA
ENDBRANCH   1  20
TORSDOF 2
ENDMDL
MODEL 10
REMARK VINA RESULT:      -7.5     11.665     12.616
REMARK  Name = null
REMARK  2 active torsions:
REMARK  status: ('A' for Active; 'I' for Inactive)
REMARK    1  A    between atoms: O_2  and  C_3
REMARK    2  A    between atoms: C_10  and  C_14
REMARK                            x       y       z     vdW  Elec       q    Type
REMARK                         _______ _______ _______ _____ _____    ______ ____
ROOT
ATOM      1  C   UNL     1     106.562 128.048 146.338  0.00  0.00    +0.000 A 
ATOM      2  C   UNL     1     106.521 127.683 145.598  0.00  0.00    +0.000 A 
ATOM      3  C   UNL     1     106.603 126.865 145.537  0.00  0.00    +0.000 A 
ATOM      4  C   UNL     1     106.726 126.411 146.213  0.00  0.00    +0.000 A 
ATOM      5  C   UNL     1     106.808 125.592 146.152  0.00  0.00    +0.000 C 
ATOM      6  O   UNL     1     106.767 125.228 145.413  0.00  0.00    +0.000 OA
ATOM      7  C   UNL     1     106.931 125.138 146.829  0.00  0.00    +0.000 C 
ATOM      8  C   UNL     1     106.972 125.502 147.569  0.00  0.00    +0.000 C 
ATOM      9  O   UNL     1     106.890 126.320 147.631  0.00  0.00    +0.000 OA
ATOM     10  C   UNL     1     106.767 126.775 146.954  0.00  0.00    +0.000 A 
ATOM     11  C   UNL     1     106.685 127.593 147.015  0.00  0.00    +0.000 A 
ATOM     12  O   UNL     1     106.562 126.501 144.798  0.00  0.00    +0.000 OA
ENDROOT
BRANCH   8  13
ATOM     13  C   UNL     1     107.095 125.047 148.246  0.00  0.00    +0.000 A 
ATOM     14  C   UNL     1     106.451 124.761 148.674  0.00  0.00    +0.000 A 
ATOM     15  C   UNL     1     106.574 124.306 149.352  0.00  0.00    +0.000 A 
ATOM     16  C   UNL     1     107.342 124.137 149.600  0.00  0.00    +0.000 A 
ATOM     17  C   UNL     1     107.987 124.423 149.172  0.00  0.00    +0.000 A 
ATOM     18  C   UNL     1     107.863 124.878 148.495  0.00  0.00    +0.000 A 
ENDBRANCH   8  13
BRANCH   1  20
ATOM     19  C   UNL     1     105.757 129.194 146.626  0.00  0.00    +0.000 C 
ATOM     20  O   UNL     1     106.480 128.867 146.400  0.00  0.00    +0.000 OA
ENDBRANCH   1  20
TORSDOF 2
ENDMDL
