MODEL 1
REMARK VINA RESULT:      -9.4      0.000      0.000
REMARK  Name = 44257161
REMARK  7 active torsions:
REMARK  status: ('A' for Active; 'I' for Inactive)
REMARK    1  A    between atoms: O_2  and  C_16
REMARK    2  A    between atoms: O_2  and  C_23
REMARK    3  A    between atoms: O_10  and  C_25
REMARK    4  A    between atoms: C_15  and  C_24
REMARK    5  A    between atoms: C_19  and  C_27
REMARK    6  A    between atoms: C_22  and  C_28
REMARK    7  A    between atoms: C_28  and  C_31
REMARK                            x       y       z     vdW  Elec       q    Type
REMARK                         _______ _______ _______ _____ _____    ______ ____
ROOT
ATOM      1  O   UNL     1     112.396 126.736 136.422  0.00  0.00    +0.000 OA
ATOM      2  O   UNL     1     111.912 124.613 136.572  0.00  0.00    +0.000 OA
ATOM      3  O   UNL     1     110.472 125.224 136.048  0.00  0.00    +0.000 OA
ATOM      4  C   UNL     1     111.833 125.423 136.435  0.00  0.00    +0.000 C 
ATOM      5  C   UNL     1     111.113 125.729 136.173  0.00  0.00    +0.000 C 
ATOM      6  C   UNL     1     112.475 125.927 136.559  0.00  0.00    +0.000 C 
ATOM      7  C   UNL     1     111.035 126.539 136.035  0.00  0.00    +0.000 A 
ATOM      8  C   UNL     1     111.676 127.042 136.159  0.00  0.00    +0.000 A 
ATOM      9  C   UNL     1     111.607 127.887 136.020  0.00  0.00    +0.000 A 
ATOM     10  C   UNL     1     110.859 128.212 135.747  0.00  0.00    +0.000 A 
ATOM     11  C   UNL     1     110.280 126.845 135.762  0.00  0.00    +0.000 A 
ATOM     12  C   UNL     1     110.192 127.687 135.617  0.00  0.00    +0.000 A 
ENDROOT
BRANCH   6  14
ATOM     13  O   UNL     1     115.354 124.703 137.608  0.00  0.00    +0.000 OA
ATOM     14  C   UNL     1     113.195 125.621 136.821  0.00  0.00    +0.000 A 
ATOM     15  C   UNL     1     113.731 125.305 136.279  0.00  0.00    +0.000 A 
ATOM     16  C   UNL     1     113.378 125.631 137.626  0.00  0.00    +0.000 A 
ATOM     17  C   UNL     1     114.450 124.999 136.542  0.00  0.00    +0.000 A 
ATOM     18  C   UNL     1     114.098 125.325 137.888  0.00  0.00    +0.000 A 
ATOM     19  C   UNL     1     114.634 125.009 137.346  0.00  0.00    +0.000 A 
ENDBRANCH   6  14
BRANCH  11  20
ATOM     20  O   UNL     1     109.644 126.333 135.641  0.00  0.00    +0.000 OA
ATOM     21  C   UNL     1     109.151 126.437 134.987  0.00  0.00    +0.000 C 
ENDBRANCH  11  20
BRANCH  10  22
ATOM     22  O   UNL     1     110.783 129.022 135.610  0.00  0.00    +0.000 OA
BRANCH  22  31
ATOM     23  O   UNL     1     110.001 129.423 136.737  0.00  0.00    +0.000 OA
ATOM     24  O   UNL     1     108.499 130.699 135.240  0.00  0.00    +0.000 OA
ATOM     25  O   UNL     1     108.218 130.674 136.865  0.00  0.00    +0.000 OA
ATOM     26  O   UNL     1     109.782 129.873 134.612  0.00  0.00    +0.000 OA
ATOM     27  C   UNL     1     109.000 130.274 135.739  0.00  0.00    +0.000 C 
ATOM     28  C   UNL     1     108.860 130.261 136.552  0.00  0.00    +0.000 C 
ATOM     29  C   UNL     1     109.642 129.860 135.425  0.00  0.00    +0.000 C 
ATOM     30  C   UNL     1     109.361 129.836 137.051  0.00  0.00    +0.000 C 
ATOM     31  C   UNL     1     110.143 129.435 135.924  0.00  0.00    +0.000 C 
BRANCH  30  33
ATOM     32  O   UNL     1     109.852 129.781 138.391  0.00  0.00    +0.000 OA
ATOM     33  C   UNL     1     109.220 129.824 137.863  0.00  0.00    +0.000 C 
ENDBRANCH  30  33
ENDBRANCH  22  31
ENDBRANCH  10  22
BRANCH   9  34
ATOM     34  C   UNL     1     112.253 128.383 136.147  0.00  0.00    +0.000 C 
BRANCH  34  35
ATOM     35  C   UNL     1     112.751 128.582 135.520  0.00  0.00    +0.000 C 
ATOM     36  C   UNL     1     113.415 129.053 135.653  0.00  0.00    +0.000 C 
ATOM     37  C   UNL     1     113.913 129.251 135.026  0.00  0.00    +0.000 C 
ATOM     38  C   UNL     1     113.582 129.326 136.414  0.00  0.00    +0.000 C 
ENDBRANCH  34  35
ENDBRANCH   9  34
TORSDOF 7
ENDMDL
MODEL 2
REMARK VINA RESULT:      -9.3      1.905      3.163
REMARK  Name = 44257161
REMARK  7 active torsions:
REMARK  status: ('A' for Active; 'I' for Inactive)
REMARK    1  A    between atoms: O_2  and  C_16
REMARK    2  A    between atoms: O_2  and  C_23
REMARK    3  A    between atoms: O_10  and  C_25
REMARK    4  A    between atoms: C_15  and  C_24
REMARK    5  A    between atoms: C_19  and  C_27
REMARK    6  A    between atoms: C_22  and  C_28
REMARK    7  A    between atoms: C_28  and  C_31
REMARK                            x       y       z     vdW  Elec       q    Type
REMARK                         _______ _______ _______ _____ _____    ______ ____
ROOT
ATOM      1  O   UNL     1     110.404 128.168 136.033  0.00  0.00    +0.000 OA
ATOM      2  O   UNL     1     108.576 127.028 135.685  0.00  0.00    +0.000 OA
ATOM      3  O   UNL     1     107.975 128.562 135.765  0.00  0.00    +0.000 OA
ATOM      4  C   UNL     1     109.085 127.664 135.814  0.00  0.00    +0.000 C 
ATOM      5  C   UNL     1     108.785 128.431 135.855  0.00  0.00    +0.000 C 
ATOM      6  C   UNL     1     109.895 127.532 135.904  0.00  0.00    +0.000 C 
ATOM      7  C   UNL     1     109.295 129.067 135.984  0.00  0.00    +0.000 A 
ATOM      8  C   UNL     1     110.104 128.936 136.073  0.00  0.00    +0.000 A 
ATOM      9  C   UNL     1     110.645 129.590 136.209  0.00  0.00    +0.000 A 
ATOM     10  C   UNL     1     110.338 130.392 136.252  0.00  0.00    +0.000 A 
ATOM     11  C   UNL     1     108.970 129.861 136.024  0.00  0.00    +0.000 A 
ATOM     12  C   UNL     1     109.495 130.528 136.159  0.00  0.00    +0.000 A 
ENDROOT
BRANCH   6  14
ATOM     13  O   UNL     1     111.096 124.463 135.742  0.00  0.00    +0.000 OA
ATOM     14  C   UNL     1     110.195 126.765 135.863  0.00  0.00    +0.000 A 
ATOM     15  C   UNL     1     110.339 126.341 136.557  0.00  0.00    +0.000 A 
ATOM     16  C   UNL     1     110.351 126.421 135.129  0.00  0.00    +0.000 A 
ATOM     17  C   UNL     1     110.639 125.574 136.515  0.00  0.00    +0.000 A 
ATOM     18  C   UNL     1     110.652 125.654 135.089  0.00  0.00    +0.000 A 
ATOM     19  C   UNL     1     110.795 125.230 135.782  0.00  0.00    +0.000 A 
ENDBRANCH   6  14
BRANCH  11  20
ATOM     20  O   UNL     1     108.158 129.983 135.934  0.00  0.00    +0.000 OA
ATOM     21  C   UNL     1     107.875 130.728 135.719  0.00  0.00    +0.000 C 
ENDBRANCH  11  20
BRANCH  10  22
ATOM     22  O   UNL     1     110.849 131.026 136.381  0.00  0.00    +0.000 OA
BRANCH  22  31
ATOM     23  O   UNL     1     110.521 131.352 137.733  0.00  0.00    +0.000 OA
ATOM     24  O   UNL     1     110.434 133.752 137.133  0.00  0.00    +0.000 OA
ATOM     25  O   UNL     1     110.135 133.278 138.684  0.00  0.00    +0.000 OA
ATOM     26  O   UNL     1     110.791 132.626 135.981  0.00  0.00    +0.000 OA
ATOM     27  C   UNL     1     110.463 132.952 137.333  0.00  0.00    +0.000 C 
ATOM     28  C   UNL     1     110.313 132.714 138.109  0.00  0.00    +0.000 C 
ATOM     29  C   UNL     1     110.642 132.388 136.757  0.00  0.00    +0.000 C 
ATOM     30  C   UNL     1     110.342 131.914 138.309  0.00  0.00    +0.000 C 
ATOM     31  C   UNL     1     110.671 131.588 136.957  0.00  0.00    +0.000 C 
BRANCH  30  33
ATOM     32  O   UNL     1     110.745 131.218 139.490  0.00  0.00    +0.000 OA
ATOM     33  C   UNL     1     110.193 131.678 139.084  0.00  0.00    +0.000 C 
ENDBRANCH  30  33
ENDBRANCH  22  31
ENDBRANCH  10  22
BRANCH   9  34
ATOM     34  C   UNL     1     111.452 129.449 136.297  0.00  0.00    +0.000 C 
BRANCH  34  35
ATOM     35  C   UNL     1     111.954 129.498 135.644  0.00  0.00    +0.000 C 
ATOM     36  C   UNL     1     112.756 129.328 135.726  0.00  0.00    +0.000 C 
ATOM     37  C   UNL     1     113.258 129.376 135.073  0.00  0.00    +0.000 C 
ATOM     38  C   UNL     1     113.059 129.110 136.462  0.00  0.00    +0.000 C 
ENDBRANCH  34  35
ENDBRANCH   9  34
TORSDOF 7
ENDMDL
MODEL 3
REMARK VINA RESULT:      -9.0      1.200      5.571
REMARK  Name = 44257161
REMARK  7 active torsions:
REMARK  status: ('A' for Active; 'I' for Inactive)
REMARK    1  A    between atoms: O_2  and  C_16
REMARK    2  A    between atoms: O_2  and  C_23
REMARK    3  A    between atoms: O_10  and  C_25
REMARK    4  A    between atoms: C_15  and  C_24
REMARK    5  A    between atoms: C_19  and  C_27
REMARK    6  A    between atoms: C_22  and  C_28
REMARK    7  A    between atoms: C_28  and  C_31
REMARK                            x       y       z     vdW  Elec       q    Type
REMARK                         _______ _______ _______ _____ _____    ______ ____
ROOT
ATOM      1  O   UNL     1     110.920 128.696 136.099  0.00  0.00    +0.000 OA
ATOM      2  O   UNL     1     111.202 130.860 136.123  0.00  0.00    +0.000 OA
ATOM      3  O   UNL     1     112.765 130.342 136.218  0.00  0.00    +0.000 OA
ATOM      4  C   UNL     1     111.368 130.052 136.131  0.00  0.00    +0.000 C 
ATOM      5  C   UNL     1     112.150 129.793 136.178  0.00  0.00    +0.000 C 
ATOM      6  C   UNL     1     110.753 129.504 136.091  0.00  0.00    +0.000 C 
ATOM      7  C   UNL     1     112.316 128.985 136.186  0.00  0.00    +0.000 A 
ATOM      8  C   UNL     1     111.701 128.436 136.146  0.00  0.00    +0.000 A 
ATOM      9  C   UNL     1     111.862 127.592 136.153  0.00  0.00    +0.000 A 
ATOM     10  C   UNL     1     112.674 127.315 136.203  0.00  0.00    +0.000 A 
ATOM     11  C   UNL     1     113.134 128.727 136.236  0.00  0.00    +0.000 A 
ATOM     12  C   UNL     1     113.314 127.887 136.244  0.00  0.00    +0.000 A 
ENDROOT
BRANCH   6  14
ATOM     13  O   UNL     1     107.627 130.543 135.901  0.00  0.00    +0.000 OA
ATOM     14  C   UNL     1     109.971 129.764 136.044  0.00  0.00    +0.000 A 
ATOM     15  C   UNL     1     109.516 129.830 136.729  0.00  0.00    +0.000 A 
ATOM     16  C   UNL     1     109.645 129.958 135.311  0.00  0.00    +0.000 A 
ATOM     17  C   UNL     1     108.735 130.089 136.681  0.00  0.00    +0.000 A 
ATOM     18  C   UNL     1     108.864 130.217 135.264  0.00  0.00    +0.000 A 
ATOM     19  C   UNL     1     108.408 130.283 135.949  0.00  0.00    +0.000 A 
ENDBRANCH   6  14
BRANCH  11  20
ATOM     20  O   UNL     1     113.743 129.283 136.275  0.00  0.00    +0.000 OA
ATOM     21  C   UNL     1     114.399 129.211 135.779  0.00  0.00    +0.000 C 
ENDBRANCH  11  20
BRANCH  10  22
ATOM     22  O   UNL     1     112.838 126.507 136.210  0.00  0.00    +0.000 OA
BRANCH  22  31
ATOM     23  O   UNL     1     113.246 126.386 137.574  0.00  0.00    +0.000 OA
ATOM     24  O   UNL     1     115.083 124.874 136.891  0.00  0.00    +0.000 OA
ATOM     25  O   UNL     1     114.878 125.257 138.482  0.00  0.00    +0.000 OA
ATOM     26  O   UNL     1     114.063 125.499 135.754  0.00  0.00    +0.000 OA
ATOM     27  C   UNL     1     114.471 125.378 137.119  0.00  0.00    +0.000 C 
ATOM     28  C   UNL     1     114.368 125.570 137.914  0.00  0.00    +0.000 C 
ATOM     29  C   UNL     1     113.960 125.691 136.550  0.00  0.00    +0.000 C 
ATOM     30  C   UNL     1     113.756 126.074 138.142  0.00  0.00    +0.000 C 
ATOM     31  C   UNL     1     113.348 126.195 136.778  0.00  0.00    +0.000 C 
BRANCH  30  33
ATOM     32  O   UNL     1     112.899 126.254 139.272  0.00  0.00    +0.000 OA
ATOM     33  C   UNL     1     113.654 126.265 138.937  0.00  0.00    +0.000 C 
ENDBRANCH  30  33
ENDBRANCH  22  31
ENDBRANCH  10  22
BRANCH   9  34
ATOM     34  C   UNL     1     111.241 127.051 136.113  0.00  0.00    +0.000 C 
BRANCH  34  35
ATOM     35  C   UNL     1     111.010 126.741 135.385  0.00  0.00    +0.000 C 
ATOM     36  C   UNL     1     110.371 126.222 135.341  0.00  0.00    +0.000 C 
ATOM     37  C   UNL     1     110.139 125.911 134.613  0.00  0.00    +0.000 C 
ATOM     38  C   UNL     1     109.961 126.012 136.027  0.00  0.00    +0.000 C 
ENDBRANCH  34  35
ENDBRANCH   9  34
TORSDOF 7
ENDMDL
MODEL 4
REMARK VINA RESULT:      -9.0      2.881      5.648
REMARK  Name = 44257161
REMARK  7 active torsions:
REMARK  status: ('A' for Active; 'I' for Inactive)
REMARK    1  A    between atoms: O_2  and  C_16
REMARK    2  A    between atoms: O_2  and  C_23
REMARK    3  A    between atoms: O_10  and  C_25
REMARK    4  A    between atoms: C_15  and  C_24
REMARK    5  A    between atoms: C_19  and  C_27
REMARK    6  A    between atoms: C_22  and  C_28
REMARK    7  A    between atoms: C_28  and  C_31
REMARK                            x       y       z     vdW  Elec       q    Type
REMARK                         _______ _______ _______ _____ _____    ______ ____
ROOT
ATOM      1  O   UNL     1     113.426 128.814 139.371  0.00  0.00    +0.000 OA
ATOM      2  O   UNL     1     113.788 130.687 138.312  0.00  0.00    +0.000 OA
ATOM      3  O   UNL     1     113.190 129.751 137.092  0.00  0.00    +0.000 OA
ATOM      4  C   UNL     1     113.568 129.907 138.462  0.00  0.00    +0.000 C 
ATOM      5  C   UNL     1     113.269 129.438 137.852  0.00  0.00    +0.000 C 
ATOM      6  C   UNL     1     113.647 129.594 139.221  0.00  0.00    +0.000 C 
ATOM      7  C   UNL     1     113.048 128.657 138.002  0.00  0.00    +0.000 A 
ATOM      8  C   UNL     1     113.127 128.345 138.761  0.00  0.00    +0.000 A 
ATOM      9  C   UNL     1     112.901 127.534 138.930  0.00  0.00    +0.000 A 
ATOM     10  C   UNL     1     112.588 127.040 138.299  0.00  0.00    +0.000 A 
ATOM     11  C   UNL     1     112.738 128.180 137.359  0.00  0.00    +0.000 A 
ATOM     12  C   UNL     1     112.506 127.367 137.508  0.00  0.00    +0.000 A 
ENDROOT
BRANCH   6  14
ATOM     13  O   UNL     1     114.843 131.468 141.660  0.00  0.00    +0.000 OA
ATOM     14  C   UNL     1     113.946 130.063 139.831  0.00  0.00    +0.000 A 
ATOM     15  C   UNL     1     114.761 130.166 139.910  0.00  0.00    +0.000 A 
ATOM     16  C   UNL     1     113.429 130.427 140.362  0.00  0.00    +0.000 A 
ATOM     17  C   UNL     1     115.059 130.635 140.520  0.00  0.00    +0.000 A 
ATOM     18  C   UNL     1     113.729 130.896 140.972  0.00  0.00    +0.000 A 
ATOM     19  C   UNL     1     114.543 130.999 141.050  0.00  0.00    +0.000 A 
ENDBRANCH   6  14
BRANCH  11  20
ATOM     20  O   UNL     1     112.663 128.502 136.602  0.00  0.00    +0.000 OA
ATOM     21  C   UNL     1     112.004 128.319 136.140  0.00  0.00    +0.000 C 
ENDBRANCH  11  20
BRANCH  10  22
ATOM     22  O   UNL     1     112.368 126.260 138.451  0.00  0.00    +0.000 OA
BRANCH  22  31
ATOM     23  O   UNL     1     113.415 125.572 137.764  0.00  0.00    +0.000 OA
ATOM     24  O   UNL     1     111.755 124.011 136.798  0.00  0.00    +0.000 OA
ATOM     25  O   UNL     1     113.355 123.844 136.433  0.00  0.00    +0.000 OA
ATOM     26  O   UNL     1     111.262 125.219 137.807  0.00  0.00    +0.000 OA
ATOM     27  C   UNL     1     112.309 124.531 137.120  0.00  0.00    +0.000 C 
ATOM     28  C   UNL     1     113.109 124.448 136.938  0.00  0.00    +0.000 C 
ATOM     29  C   UNL     1     112.062 125.136 137.625  0.00  0.00    +0.000 C 
ATOM     30  C   UNL     1     113.662 124.968 137.260  0.00  0.00    +0.000 C 
ATOM     31  C   UNL     1     112.615 125.656 137.947  0.00  0.00    +0.000 C 
BRANCH  30  33
ATOM     32  O   UNL     1     115.031 124.963 137.670  0.00  0.00    +0.000 OA
ATOM     33  C   UNL     1     114.462 124.884 137.078  0.00  0.00    +0.000 C 
ENDBRANCH  30  33
ENDBRANCH  22  31
ENDBRANCH  10  22
BRANCH   9  34
ATOM     34  C   UNL     1     112.982 127.229 139.692  0.00  0.00    +0.000 C 
BRANCH  34  35
ATOM     35  C   UNL     1     112.333 127.209 140.201  0.00  0.00    +0.000 C 
ATOM     36  C   UNL     1     112.428 126.959 140.981  0.00  0.00    +0.000 C 
ATOM     37  C   UNL     1     111.779 126.939 141.490  0.00  0.00    +0.000 C 
ATOM     38  C   UNL     1     113.172 126.729 141.253  0.00  0.00    +0.000 C 
ENDBRANCH  34  35
ENDBRANCH   9  34
TORSDOF 7
ENDMDL
MODEL 5
REMARK VINA RESULT:      -8.9      1.791      5.320
REMARK  Name = 44257161
REMARK  7 active torsions:
REMARK  status: ('A' for Active; 'I' for Inactive)
REMARK    1  A    between atoms: O_2  and  C_16
REMARK    2  A    between atoms: O_2  and  C_23
REMARK    3  A    between atoms: O_10  and  C_25
REMARK    4  A    between atoms: C_15  and  C_24
REMARK    5  A    between atoms: C_19  and  C_27
REMARK    6  A    between atoms: C_22  and  C_28
REMARK    7  A    between atoms: C_28  and  C_31
REMARK                            x       y       z     vdW  Elec       q    Type
REMARK                         _______ _______ _______ _____ _____    ______ ____
ROOT
ATOM      1  O   UNL     1     111.949 129.475 137.158  0.00  0.00    +0.000 OA
ATOM      2  O   UNL     1     110.908 130.250 138.912  0.00  0.00    +0.000 OA
ATOM      3  O   UNL     1     111.376 128.766 139.459  0.00  0.00    +0.000 OA
ATOM      4  C   UNL     1     111.333 129.744 138.418  0.00  0.00    +0.000 C 
ATOM      5  C   UNL     1     111.567 129.002 138.692  0.00  0.00    +0.000 C 
ATOM      6  C   UNL     1     111.524 129.981 137.652  0.00  0.00    +0.000 C 
ATOM      7  C   UNL     1     111.992 128.496 138.198  0.00  0.00    +0.000 A 
ATOM      8  C   UNL     1     112.183 128.732 137.431  0.00  0.00    +0.000 A 
ATOM      9  C   UNL     1     112.626 128.215 136.907  0.00  0.00    +0.000 A 
ATOM     10  C   UNL     1     112.873 127.440 137.186  0.00  0.00    +0.000 A 
ATOM     11  C   UNL     1     112.231 127.726 138.494  0.00  0.00    +0.000 A 
ATOM     12  C   UNL     1     112.674 127.194 137.985  0.00  0.00    +0.000 A 
ENDROOT
BRANCH   6  14
ATOM     13  O   UNL     1     110.585 132.950 136.559  0.00  0.00    +0.000 OA
ATOM     14  C   UNL     1     111.289 130.723 137.378  0.00  0.00    +0.000 A 
ATOM     15  C   UNL     1     111.780 131.377 137.489  0.00  0.00    +0.000 A 
ATOM     16  C   UNL     1     110.564 130.811 136.995  0.00  0.00    +0.000 A 
ATOM     17  C   UNL     1     111.545 132.119 137.216  0.00  0.00    +0.000 A 
ATOM     18  C   UNL     1     110.329 131.553 136.721  0.00  0.00    +0.000 A 
ATOM     19  C   UNL     1     110.820 132.207 136.832  0.00  0.00    +0.000 A 
ENDBRANCH   6  14
BRANCH  11  20
ATOM     20  O   UNL     1     112.035 127.498 139.263  0.00  0.00    +0.000 OA
ATOM     21  C   UNL     1     112.581 127.080 139.720  0.00  0.00    +0.000 C 
ENDBRANCH  11  20
BRANCH  10  22
ATOM     22  O   UNL     1     113.298 126.936 136.690  0.00  0.00    +0.000 OA
BRANCH  22  31
ATOM     23  O   UNL     1     112.310 125.939 136.422  0.00  0.00    +0.000 OA
ATOM     24  O   UNL     1     113.984 124.166 136.844  0.00  0.00    +0.000 OA
ATOM     25  O   UNL     1     112.438 123.761 136.435  0.00  0.00    +0.000 OA
ATOM     26  O   UNL     1     114.414 125.753 136.971  0.00  0.00    +0.000 OA
ATOM     27  C   UNL     1     113.426 124.757 136.703  0.00  0.00    +0.000 C 
ATOM     28  C   UNL     1     112.653 124.555 136.499  0.00  0.00    +0.000 C 
ATOM     29  C   UNL     1     113.641 125.551 136.767  0.00  0.00    +0.000 C 
ATOM     30  C   UNL     1     112.095 125.146 136.358  0.00  0.00    +0.000 C 
ATOM     31  C   UNL     1     113.083 126.142 136.626  0.00  0.00    +0.000 C 
BRANCH  30  33
ATOM     32  O   UNL     1     110.936 125.346 135.546  0.00  0.00    +0.000 OA
ATOM     33  C   UNL     1     111.322 124.943 136.154  0.00  0.00    +0.000 C 
ENDBRANCH  30  33
ENDBRANCH  22  31
ENDBRANCH  10  22
BRANCH   9  34
ATOM     34  C   UNL     1     112.812 128.459 136.142  0.00  0.00    +0.000 C 
BRANCH  34  35
ATOM     35  C   UNL     1     113.551 128.790 135.983  0.00  0.00    +0.000 C 
ATOM     36  C   UNL     1     113.716 129.089 135.232  0.00  0.00    +0.000 C 
ATOM     37  C   UNL     1     114.454 129.421 135.073  0.00  0.00    +0.000 C 
ATOM     38  C   UNL     1     113.142 129.057 134.640  0.00  0.00    +0.000 C 
ENDBRANCH  34  35
ENDBRANCH   9  34
TORSDOF 7
ENDMDL
MODEL 6
REMARK VINA RESULT:      -8.9      2.005      3.043
REMARK  Name = 44257161
REMARK  7 active torsions:
REMARK  status: ('A' for Active; 'I' for Inactive)
REMARK    1  A    between atoms: O_2  and  C_16
REMARK    2  A    between atoms: O_2  and  C_23
REMARK    3  A    between atoms: O_10  and  C_25
REMARK    4  A    between atoms: C_15  and  C_24
REMARK    5  A    between atoms: C_19  and  C_27
REMARK    6  A    between atoms: C_22  and  C_28
REMARK    7  A    between atoms: C_28  and  C_31
REMARK                            x       y       z     vdW  Elec       q    Type
REMARK                         _______ _______ _______ _____ _____    ______ ____
ROOT
ATOM      1  O   UNL     1     112.688 127.478 137.515  0.00  0.00    +0.000 OA
ATOM      2  O   UNL     1     113.683 126.319 139.074  0.00  0.00    +0.000 OA
ATOM      3  O   UNL     1     113.435 127.749 139.859  0.00  0.00    +0.000 OA
ATOM      4  C   UNL     1     113.310 126.944 138.685  0.00  0.00    +0.000 C 
ATOM      5  C   UNL     1     113.186 127.659 139.078  0.00  0.00    +0.000 C 
ATOM      6  C   UNL     1     113.061 126.854 137.904  0.00  0.00    +0.000 C 
ATOM      7  C   UNL     1     112.813 128.284 138.688  0.00  0.00    +0.000 A 
ATOM      8  C   UNL     1     112.564 128.193 137.907  0.00  0.00    +0.000 A 
ATOM      9  C   UNL     1     112.175 128.836 137.491  0.00  0.00    +0.000 A 
ATOM     10  C   UNL     1     112.043 129.584 137.895  0.00  0.00    +0.000 A 
ATOM     11  C   UNL     1     112.690 129.023 139.108  0.00  0.00    +0.000 A 
ATOM     12  C   UNL     1     112.302 129.678 138.708  0.00  0.00    +0.000 A 
ENDROOT
BRANCH   6  14
ATOM     13  O   UNL     1     113.559 123.994 136.335  0.00  0.00    +0.000 OA
ATOM     14  C   UNL     1     113.185 126.138 137.512  0.00  0.00    +0.000 A 
ATOM     15  C   UNL     1     112.596 125.561 137.509  0.00  0.00    +0.000 A 
ATOM     16  C   UNL     1     113.900 126.001 137.121  0.00  0.00    +0.000 A 
ATOM     17  C   UNL     1     112.721 124.847 137.117  0.00  0.00    +0.000 A 
ATOM     18  C   UNL     1     114.024 125.286 136.729  0.00  0.00    +0.000 A 
ATOM     19  C   UNL     1     113.434 124.709 136.727  0.00  0.00    +0.000 A 
ENDBRANCH   6  14
BRANCH  11  20
ATOM     20  O   UNL     1     112.942 129.104 139.889  0.00  0.00    +0.000 OA
ATOM     21  C   UNL     1     113.298 129.806 140.137  0.00  0.00    +0.000 C 
ENDBRANCH  11  20
BRANCH  10  22
ATOM     22  O   UNL     1     111.670 130.207 137.503  0.00  0.00    +0.000 OA
BRANCH  22  31
ATOM     23  O   UNL     1     110.423 130.217 138.202  0.00  0.00    +0.000 OA
ATOM     24  O   UNL     1     110.518 132.686 138.338  0.00  0.00    +0.000 OA
ATOM     25  O   UNL     1     109.241 131.873 138.991  0.00  0.00    +0.000 OA
ATOM     26  O   UNL     1     111.733 131.854 137.593  0.00  0.00    +0.000 OA
ATOM     27  C   UNL     1     110.487 131.863 138.292  0.00  0.00    +0.000 C 
ATOM     28  C   UNL     1     109.848 131.456 138.619  0.00  0.00    +0.000 C 
ATOM     29  C   UNL     1     111.094 131.446 137.920  0.00  0.00    +0.000 C 
ATOM     30  C   UNL     1     109.817 130.633 138.574  0.00  0.00    +0.000 C 
ATOM     31  C   UNL     1     111.063 130.623 137.875  0.00  0.00    +0.000 C 
BRANCH  30  33
ATOM     32  O   UNL     1     108.807 129.626 138.472  0.00  0.00    +0.000 OA
ATOM     33  C   UNL     1     109.178 130.226 138.901  0.00  0.00    +0.000 C 
ENDBRANCH  30  33
ENDBRANCH  22  31
ENDBRANCH  10  22
BRANCH   9  34
ATOM     34  C   UNL     1     111.930 128.738 136.710  0.00  0.00    +0.000 C 
BRANCH  34  35
ATOM     35  C   UNL     1     112.414 128.987 136.090  0.00  0.00    +0.000 C 
ATOM     36  C   UNL     1     112.180 128.865 135.309  0.00  0.00    +0.000 C 
ATOM     37  C   UNL     1     112.664 129.114 134.689  0.00  0.00    +0.000 C 
ATOM     38  C   UNL     1     111.461 128.493 135.147  0.00  0.00    +0.000 C 
ENDBRANCH  34  35
ENDBRANCH   9  34
TORSDOF 7
ENDMDL
MODEL 7
REMARK VINA RESULT:      -8.9      1.034      2.478
REMARK  Name = 44257161
REMARK  7 active torsions:
REMARK  status: ('A' for Active; 'I' for Inactive)
REMARK    1  A    between atoms: O_2  and  C_16
REMARK    2  A    between atoms: O_2  and  C_23
REMARK    3  A    between atoms: O_10  and  C_25
REMARK    4  A    between atoms: C_15  and  C_24
REMARK    5  A    between atoms: C_19  and  C_27
REMARK    6  A    between atoms: C_22  and  C_28
REMARK    7  A    between atoms: C_28  and  C_31
REMARK                            x       y       z     vdW  Elec       q    Type
REMARK                         _______ _______ _______ _____ _____    ______ ____
ROOT
ATOM      1  O   UNL     1     112.512 127.162 136.313  0.00  0.00    +0.000 OA
ATOM      2  O   UNL     1     114.580 127.781 136.637  0.00  0.00    +0.000 OA
ATOM      3  O   UNL     1     113.886 129.219 136.222  0.00  0.00    +0.000 OA
ATOM      4  C   UNL     1     113.775 127.815 136.460  0.00  0.00    +0.000 C 
ATOM      5  C   UNL     1     113.427 128.533 136.252  0.00  0.00    +0.000 C 
ATOM      6  C   UNL     1     113.317 127.129 136.490  0.00  0.00    +0.000 C 
ATOM      7  C   UNL     1     112.622 128.567 136.075  0.00  0.00    +0.000 A 
ATOM      8  C   UNL     1     112.164 127.881 136.105  0.00  0.00    +0.000 A 
ATOM      9  C   UNL     1     111.325 127.902 135.923  0.00  0.00    +0.000 A 
ATOM     10  C   UNL     1     110.957 128.649 135.706  0.00  0.00    +0.000 A 
ATOM     11  C   UNL     1     112.272 129.321 135.860  0.00  0.00    +0.000 A 
ATOM     12  C   UNL     1     111.435 129.362 135.674  0.00  0.00    +0.000 A 
ENDROOT
BRANCH   6  14
ATOM     13  O   UNL     1     114.707 124.254 137.322  0.00  0.00    +0.000 OA
ATOM     14  C   UNL     1     113.665 126.410 136.698  0.00  0.00    +0.000 A 
ATOM     15  C   UNL     1     114.042 125.953 136.124  0.00  0.00    +0.000 A 
ATOM     16  C   UNL     1     113.634 126.148 137.480  0.00  0.00    +0.000 A 
ATOM     17  C   UNL     1     114.389 125.234 136.332  0.00  0.00    +0.000 A 
ATOM     18  C   UNL     1     113.982 125.429 137.688  0.00  0.00    +0.000 A 
ATOM     19  C   UNL     1     114.359 124.972 137.114  0.00  0.00    +0.000 A 
ENDBRANCH   6  14
BRANCH  11  20
ATOM     20  O   UNL     1     112.738 130.002 135.832  0.00  0.00    +0.000 OA
ATOM     21  C   UNL     1     112.548 130.651 136.306  0.00  0.00    +0.000 C 
ENDBRANCH  11  20
BRANCH  10  22
ATOM     22  O   UNL     1     110.152 128.679 135.529  0.00  0.00    +0.000 OA
BRANCH  22  31
ATOM     23  O   UNL     1     109.677 129.323 136.713  0.00  0.00    +0.000 OA
ATOM     24  O   UNL     1     108.216 130.772 135.338  0.00  0.00    +0.000 OA
ATOM     25  O   UNL     1     108.228 130.932 136.979  0.00  0.00    +0.000 OA
ATOM     26  O   UNL     1     109.178 129.645 134.612  0.00  0.00    +0.000 OA
ATOM     27  C   UNL     1     108.703 130.289 135.796  0.00  0.00    +0.000 C 
ATOM     28  C   UNL     1     108.709 130.369 136.617  0.00  0.00    +0.000 C 
ATOM     29  C   UNL     1     109.184 129.725 135.433  0.00  0.00    +0.000 C 
ATOM     30  C   UNL     1     109.196 129.886 137.075  0.00  0.00    +0.000 C 
ATOM     31  C   UNL     1     109.671 129.242 135.891  0.00  0.00    +0.000 C 
BRANCH  30  33
ATOM     32  O   UNL     1     109.191 129.296 138.377  0.00  0.00    +0.000 OA
ATOM     33  C   UNL     1     109.202 129.966 137.896  0.00  0.00    +0.000 C 
ENDBRANCH  30  33
ENDBRANCH  22  31
ENDBRANCH  10  22
BRANCH   9  34
ATOM     34  C   UNL     1     110.875 127.212 135.955  0.00  0.00    +0.000 C 
BRANCH  34  35
ATOM     35  C   UNL     1     110.711 126.792 135.264  0.00  0.00    +0.000 C 
ATOM     36  C   UNL     1     110.309 126.074 135.303  0.00  0.00    +0.000 C 
ATOM     37  C   UNL     1     110.145 125.654 134.612  0.00  0.00    +0.000 C 
ATOM     38  C   UNL     1     110.068 125.774 136.034  0.00  0.00    +0.000 C 
ENDBRANCH  34  35
ENDBRANCH   9  34
TORSDOF 7
ENDMDL
MODEL 8
REMARK VINA RESULT:      -8.8      2.385      3.906
REMARK  Name = 44257161
REMARK  7 active torsions:
REMARK  status: ('A' for Active; 'I' for Inactive)
REMARK    1  A    between atoms: O_2  and  C_16
REMARK    2  A    between atoms: O_2  and  C_23
REMARK    3  A    between atoms: O_10  and  C_25
REMARK    4  A    between atoms: C_15  and  C_24
REMARK    5  A    between atoms: C_19  and  C_27
REMARK    6  A    between atoms: C_22  and  C_28
REMARK    7  A    between atoms: C_28  and  C_31
REMARK                            x       y       z     vdW  Elec       q    Type
REMARK                         _______ _______ _______ _____ _____    ______ ____
ROOT
ATOM      1  O   UNL     1     112.759 127.569 137.909  0.00  0.00    +0.000 OA
ATOM      2  O   UNL     1     113.071 127.789 135.760  0.00  0.00    +0.000 OA
ATOM      3  O   UNL     1     112.640 129.328 136.171  0.00  0.00    +0.000 OA
ATOM      4  C   UNL     1     112.895 127.972 136.545  0.00  0.00    +0.000 C 
ATOM      5  C   UNL     1     112.679 128.741 136.751  0.00  0.00    +0.000 C 
ATOM      6  C   UNL     1     112.934 127.386 137.124  0.00  0.00    +0.000 C 
ATOM      7  C   UNL     1     112.503 128.924 137.536  0.00  0.00    +0.000 A 
ATOM      8  C   UNL     1     112.543 128.338 138.115  0.00  0.00    +0.000 A 
ATOM      9  C   UNL     1     112.362 128.516 138.936  0.00  0.00    +0.000 A 
ATOM     10  C   UNL     1     112.137 129.316 139.157  0.00  0.00    +0.000 A 
ATOM     11  C   UNL     1     112.280 129.729 137.738  0.00  0.00    +0.000 A 
ATOM     12  C   UNL     1     112.096 129.926 138.553  0.00  0.00    +0.000 A 
ENDROOT
BRANCH   6  14
ATOM     13  O   UNL     1     113.795 124.309 136.300  0.00  0.00    +0.000 OA
ATOM     14  C   UNL     1     113.150 126.616 136.918  0.00  0.00    +0.000 A 
ATOM     15  C   UNL     1     113.947 126.403 136.897  0.00  0.00    +0.000 A 
ATOM     16  C   UNL     1     112.568 126.061 136.733  0.00  0.00    +0.000 A 
ATOM     17  C   UNL     1     114.161 125.634 136.691  0.00  0.00    +0.000 A 
ATOM     18  C   UNL     1     112.783 125.292 136.527  0.00  0.00    +0.000 A 
ATOM     19  C   UNL     1     113.580 125.078 136.506  0.00  0.00    +0.000 A 
ENDBRANCH   6  14
BRANCH  11  20
ATOM     20  O   UNL     1     112.244 130.309 137.151  0.00  0.00    +0.000 OA
ATOM     21  C   UNL     1     112.529 131.068 137.304  0.00  0.00    +0.000 C 
ENDBRANCH  11  20
BRANCH  10  22
ATOM     22  O   UNL     1     111.962 129.496 139.943  0.00  0.00    +0.000 OA
BRANCH  22  31
ATOM     23  O   UNL     1     110.554 129.712 139.830  0.00  0.00    +0.000 OA
ATOM     24  O   UNL     1     110.748 131.725 141.257  0.00  0.00    +0.000 OA
ATOM     25  O   UNL     1     109.276 131.270 140.669  0.00  0.00    +0.000 OA
ATOM     26  O   UNL     1     112.092 130.838 140.894  0.00  0.00    +0.000 OA
ATOM     27  C   UNL     1     110.683 131.054 140.781  0.00  0.00    +0.000 C 
ATOM     28  C   UNL     1     109.947 130.826 140.487  0.00  0.00    +0.000 C 
ATOM     29  C   UNL     1     111.356 130.610 140.600  0.00  0.00    +0.000 C 
ATOM     30  C   UNL     1     109.883 130.155 140.012  0.00  0.00    +0.000 C 
ATOM     31  C   UNL     1     111.291 129.939 140.124  0.00  0.00    +0.000 C 
BRANCH  30  33
ATOM     32  O   UNL     1     108.923 129.133 139.732  0.00  0.00    +0.000 OA
ATOM     33  C   UNL     1     109.147 129.928 139.718  0.00  0.00    +0.000 C 
ENDBRANCH  30  33
ENDBRANCH  22  31
ENDBRANCH  10  22
BRANCH   9  34
ATOM     34  C   UNL     1     112.405 127.924 139.508  0.00  0.00    +0.000 C 
BRANCH  34  35
ATOM     35  C   UNL     1     113.096 127.821 139.946  0.00  0.00    +0.000 C 
ATOM     36  C   UNL     1     113.146 127.214 140.502  0.00  0.00    +0.000 C 
ATOM     37  C   UNL     1     113.838 127.111 140.940  0.00  0.00    +0.000 C 
ATOM     38  C   UNL     1     112.504 126.709 140.621  0.00  0.00    +0.000 C 
ENDBRANCH  34  35
ENDBRANCH   9  34
TORSDOF 7
ENDMDL
MODEL 9
REMARK VINA RESULT:      -8.8      3.017      5.279
REMARK  Name = 44257161
REMARK  7 active torsions:
REMARK  status: ('A' for Active; 'I' for Inactive)
REMARK    1  A    between atoms: O_2  and  C_16
REMARK    2  A    between atoms: O_2  and  C_23
REMARK    3  A    between atoms: O_10  and  C_25
REMARK    4  A    between atoms: C_15  and  C_24
REMARK    5  A    between atoms: C_19  and  C_27
REMARK    6  A    between atoms: C_22  and  C_28
REMARK    7  A    between atoms: C_28  and  C_31
REMARK                            x       y       z     vdW  Elec       q    Type
REMARK                         _______ _______ _______ _____ _____    ______ ____
ROOT
ATOM      1  O   UNL     1     113.326 128.575 139.476  0.00  0.00    +0.000 OA
ATOM      2  O   UNL     1     113.208 128.514 141.655  0.00  0.00    +0.000 OA
ATOM      3  O   UNL     1     112.376 127.146 141.260  0.00  0.00    +0.000 OA
ATOM      4  C   UNL     1     113.108 128.307 140.863  0.00  0.00    +0.000 C 
ATOM      5  C   UNL     1     112.692 127.622 140.665  0.00  0.00    +0.000 C 
ATOM      6  C   UNL     1     113.425 128.783 140.269  0.00  0.00    +0.000 C 
ATOM      7  C   UNL     1     112.593 127.414 139.873  0.00  0.00    +0.000 A 
ATOM      8  C   UNL     1     112.909 127.891 139.279  0.00  0.00    +0.000 A 
ATOM      9  C   UNL     1     112.813 127.685 138.450  0.00  0.00    +0.000 A 
ATOM     10  C   UNL     1     112.380 126.973 138.238  0.00  0.00    +0.000 A 
ATOM     11  C   UNL     1     112.158 126.699 139.680  0.00  0.00    +0.000 A 
ATOM     12  C   UNL     1     112.051 126.477 138.857  0.00  0.00    +0.000 A 
ENDROOT
BRANCH   6  14
ATOM     13  O   UNL     1     115.090 131.520 141.060  0.00  0.00    +0.000 OA
ATOM     14  C   UNL     1     113.841 129.468 140.466  0.00  0.00    +0.000 A 
ATOM     15  C   UNL     1     113.432 130.159 140.656  0.00  0.00    +0.000 A 
ATOM     16  C   UNL     1     114.666 129.460 140.474  0.00  0.00    +0.000 A 
ATOM     17  C   UNL     1     113.849 130.842 140.854  0.00  0.00    +0.000 A 
ATOM     18  C   UNL     1     115.083 130.145 140.672  0.00  0.00    +0.000 A 
ATOM     19  C   UNL     1     114.674 130.836 140.862  0.00  0.00    +0.000 A 
ENDBRANCH   6  14
BRANCH  11  20
ATOM     20  O   UNL     1     111.845 126.229 140.282  0.00  0.00    +0.000 OA
ATOM     21  C   UNL     1     111.047 126.016 140.266  0.00  0.00    +0.000 C 
ENDBRANCH  11  20
BRANCH  10  22
ATOM     22  O   UNL     1     112.282 126.767 137.445  0.00  0.00    +0.000 OA
BRANCH  22  31
ATOM     23  O   UNL     1     113.168 125.649 137.366  0.00  0.00    +0.000 OA
ATOM     24  O   UNL     1     111.456 124.380 136.108  0.00  0.00    +0.000 OA
ATOM     25  O   UNL     1     112.912 123.686 136.449  0.00  0.00    +0.000 OA
ATOM     26  O   UNL     1     111.140 125.921 136.606  0.00  0.00    +0.000 OA
ATOM     27  C   UNL     1     112.027 124.803 136.527  0.00  0.00    +0.000 C 
ATOM     28  C   UNL     1     112.755 124.456 136.698  0.00  0.00    +0.000 C 
ATOM     29  C   UNL     1     111.869 125.574 136.777  0.00  0.00    +0.000 C 
ATOM     30  C   UNL     1     113.326 124.879 137.117  0.00  0.00    +0.000 C 
ATOM     31  C   UNL     1     112.440 125.998 137.196  0.00  0.00    +0.000 C 
BRANCH  30  33
ATOM     32  O   UNL     1     114.743 124.987 137.273  0.00  0.00    +0.000 OA
ATOM     33  C   UNL     1     114.054 124.532 137.287  0.00  0.00    +0.000 C 
ENDBRANCH  30  33
ENDBRANCH  22  31
ENDBRANCH  10  22
BRANCH   9  34
ATOM     34  C   UNL     1     113.132 128.167 137.862  0.00  0.00    +0.000 C 
BRANCH  34  35
ATOM     35  C   UNL     1     112.668 128.750 137.508  0.00  0.00    +0.000 C 
ATOM     36  C   UNL     1     112.992 129.242 136.932  0.00  0.00    +0.000 C 
ATOM     37  C   UNL     1     112.528 129.825 136.577  0.00  0.00    +0.000 C 
ATOM     38  C   UNL     1     113.782 129.153 136.709  0.00  0.00    +0.000 C 
ENDBRANCH  34  35
ENDBRANCH   9  34
TORSDOF 7
ENDMDL
MODEL 10
REMARK VINA RESULT:      -8.7      1.893      2.641
REMARK  Name = 44257161
REMARK  7 active torsions:
REMARK  status: ('A' for Active; 'I' for Inactive)
REMARK    1  A    between atoms: O_2  and  C_16
REMARK    2  A    between atoms: O_2  and  C_23
REMARK    3  A    between atoms: O_10  and  C_25
REMARK    4  A    between atoms: C_15  and  C_24
REMARK    5  A    between atoms: C_19  and  C_27
REMARK    6  A    between atoms: C_22  and  C_28
REMARK    7  A    between atoms: C_28  and  C_31
REMARK                            x       y       z     vdW  Elec       q    Type
REMARK                         _______ _______ _______ _____ _____    ______ ____
ROOT
ATOM      1  O   UNL     1     112.710 127.718 137.107  0.00  0.00    +0.000 OA
ATOM      2  O   UNL     1     112.313 126.273 138.694  0.00  0.00    +0.000 OA
ATOM      3  O   UNL     1     111.652 127.638 139.343  0.00  0.00    +0.000 OA
ATOM      4  C   UNL     1     112.335 126.982 138.273  0.00  0.00    +0.000 C 
ATOM      5  C   UNL     1     112.005 127.665 138.598  0.00  0.00    +0.000 C 
ATOM      6  C   UNL     1     112.688 127.008 137.528  0.00  0.00    +0.000 C 
ATOM      7  C   UNL     1     112.027 128.374 138.177  0.00  0.00    +0.000 A 
ATOM      8  C   UNL     1     112.380 128.400 137.431  0.00  0.00    +0.000 A 
ATOM      9  C   UNL     1     112.409 129.133 136.983  0.00  0.00    +0.000 A 
ATOM     10  C   UNL     1     112.067 129.848 137.316  0.00  0.00    +0.000 A 
ATOM     11  C   UNL     1     111.680 129.078 138.525  0.00  0.00    +0.000 A 
ATOM     12  C   UNL     1     111.700 129.820 138.092  0.00  0.00    +0.000 A 
ENDROOT
BRANCH   6  14
ATOM     13  O   UNL     1     114.008 124.277 136.230  0.00  0.00    +0.000 OA
ATOM     14  C   UNL     1     113.018 126.325 137.203  0.00  0.00    +0.000 A 
ATOM     15  C   UNL     1     113.800 126.124 137.374  0.00  0.00    +0.000 A 
ATOM     16  C   UNL     1     112.566 125.844 136.708  0.00  0.00    +0.000 A 
ATOM     17  C   UNL     1     114.129 125.441 137.050  0.00  0.00    +0.000 A 
ATOM     18  C   UNL     1     112.896 125.161 136.383  0.00  0.00    +0.000 A 
ATOM     19  C   UNL     1     113.678 124.960 136.554  0.00  0.00    +0.000 A 
ENDBRANCH   6  14
BRANCH  11  20
ATOM     20  O   UNL     1     111.330 129.042 139.272  0.00  0.00    +0.000 OA
ATOM     21  C   UNL     1     111.443 129.657 139.811  0.00  0.00    +0.000 C 
ENDBRANCH  11  20
BRANCH  10  22
ATOM     22  O   UNL     1     112.091 130.556 136.893  0.00  0.00    +0.000 OA
BRANCH  22  31
ATOM     23  O   UNL     1     110.716 130.673 136.522  0.00  0.00    +0.000 OA
ATOM     24  O   UNL     1     110.746 133.063 137.166  0.00  0.00    +0.000 OA
ATOM     25  O   UNL     1     109.362 132.384 136.581  0.00  0.00    +0.000 OA
ATOM     26  O   UNL     1     112.111 132.149 137.322  0.00  0.00    +0.000 OA
ATOM     27  C   UNL     1     110.736 132.266 136.951  0.00  0.00    +0.000 C 
ATOM     28  C   UNL     1     110.044 131.926 136.659  0.00  0.00    +0.000 C 
ATOM     29  C   UNL     1     111.419 131.809 137.029  0.00  0.00    +0.000 C 
ATOM     30  C   UNL     1     110.034 131.130 136.444  0.00  0.00    +0.000 C 
ATOM     31  C   UNL     1     111.409 131.012 136.815  0.00  0.00    +0.000 C 
BRANCH  30  33
ATOM     32  O   UNL     1     109.374 130.274 135.509  0.00  0.00    +0.000 OA
ATOM     33  C   UNL     1     109.341 130.790 136.152  0.00  0.00    +0.000 C 
ENDBRANCH  30  33
ENDBRANCH  22  31
ENDBRANCH  10  22
BRANCH   9  34
ATOM     34  C   UNL     1     112.764 129.150 136.239  0.00  0.00    +0.000 C 
BRANCH  34  35
ATOM     35  C   UNL     1     113.556 129.367 136.164  0.00  0.00    +0.000 C 
ATOM     36  C   UNL     1     113.914 129.371 135.421  0.00  0.00    +0.000 C 
ATOM     37  C   UNL     1     114.707 129.587 135.345  0.00  0.00    +0.000 C 
ATOM     38  C   UNL     1     113.480 129.158 134.752  0.00  0.00    +0.000 C 
ENDBRANCH  34  35
ENDBRANCH   9  34
TORSDOF 7
ENDMDL
