MODEL 1
REMARK VINA RESULT:      -8.9      0.000      0.000
REMARK  Name = 5488643
REMARK  3 active torsions:
REMARK  status: ('A' for Active; 'I' for Inactive)
REMARK    1  A    between atoms: O_2  and  C_17
REMARK    2  A    between atoms: O_3  and  C_19
REMARK    3  A    between atoms: C_8  and  C_9
REMARK                            x       y       z     vdW  Elec       q    Type
REMARK                         _______ _______ _______ _____ _____    ______ ____
ROOT
ATOM      1  O   UNL     1     105.484 124.447 147.786  0.00  0.00    +0.000 OA
ATOM      2  O   UNL     1     108.015 125.542 146.925  0.00  0.00    +0.000 OA
ATOM      3  O   UNL     1     106.869 125.537 146.049  0.00  0.00    +0.000 OA
ATOM      4  O   UNL     1     107.754 124.422 149.609  0.00  0.00    +0.000 OA
ATOM      5  C   UNL     1     105.154 124.632 147.052  0.00  0.00    +0.000 A 
ATOM      6  C   UNL     1     106.736 124.988 147.361  0.00  0.00    +0.000 A 
ATOM      7  C   UNL     1     106.274 124.624 147.940  0.00  0.00    +0.000 A 
ATOM      8  C   UNL     1     105.616 124.996 146.473  0.00  0.00    +0.000 A 
ATOM      9  C   UNL     1     106.407 125.174 146.628  0.00  0.00    +0.000 A 
ATOM     10  C   UNL     1     107.561 125.179 147.509  0.00  0.00    +0.000 A 
ATOM     11  C   UNL     1     106.606 124.426 148.708  0.00  0.00    +0.000 A 
ATOM     12  C   UNL     1     107.428 124.609 148.875  0.00  0.00    +0.000 A 
ATOM     13  C   UNL     1     107.909 124.988 148.271  0.00  0.00    +0.000 A 
ENDROOT
BRANCH   5  15
ATOM     14  O   UNL     1     102.377 125.222 147.373  0.00  0.00    +0.000 OA
ATOM     15  C   UNL     1     104.364 124.454 146.898  0.00  0.00    +0.000 A 
ATOM     16  C   UNL     1     104.171 123.804 146.428  0.00  0.00    +0.000 A 
ATOM     17  C   UNL     1     103.766 124.927 147.213  0.00  0.00    +0.000 A 
ATOM     18  C   UNL     1     103.381 123.626 146.273  0.00  0.00    +0.000 A 
ATOM     19  C   UNL     1     102.783 124.099 146.589  0.00  0.00    +0.000 A 
ATOM     20  C   UNL     1     102.975 124.749 147.058  0.00  0.00    +0.000 A 
BRANCH  18  21
ATOM     21  O   UNL     1     103.188 122.976 145.804  0.00  0.00    +0.000 OA
ATOM     22  C   UNL     1     103.697 122.739 145.199  0.00  0.00    +0.000 C 
ENDBRANCH  18  21
BRANCH  19  23
ATOM     23  O   UNL     1     101.992 123.921 146.434  0.00  0.00    +0.000 OA
ATOM     24  C   UNL     1     101.502 123.659 147.044  0.00  0.00    +0.000 C 
ENDBRANCH  19  23
ENDBRANCH   5  15
TORSDOF 3
ENDMDL
MODEL 2
REMARK VINA RESULT:      -8.1      7.091      8.687
REMARK  Name = 5488643
REMARK  3 active torsions:
REMARK  status: ('A' for Active; 'I' for Inactive)
REMARK    1  A    between atoms: O_2  and  C_17
REMARK    2  A    between atoms: O_3  and  C_19
REMARK    3  A    between atoms: C_8  and  C_9
REMARK                            x       y       z     vdW  Elec       q    Type
REMARK                         _______ _______ _______ _____ _____    ______ ____
ROOT
ATOM      1  O   UNL     1     104.490 124.559 139.117  0.00  0.00    +0.000 OA
ATOM      2  O   UNL     1     106.421 123.815 141.133  0.00  0.00    +0.000 OA
ATOM      3  O   UNL     1     105.937 122.852 140.175  0.00  0.00    +0.000 OA
ATOM      4  O   UNL     1     105.423 126.557 141.018  0.00  0.00    +0.000 OA
ATOM      5  C   UNL     1     104.499 123.787 138.824  0.00  0.00    +0.000 A 
ATOM      6  C   UNL     1     105.445 124.192 140.114  0.00  0.00    +0.000 A 
ATOM      7  C   UNL     1     104.963 124.761 139.761  0.00  0.00    +0.000 A 
ATOM      8  C   UNL     1     104.981 123.218 139.176  0.00  0.00    +0.000 A 
ATOM      9  C   UNL     1     105.455 123.421 139.822  0.00  0.00    +0.000 A 
ATOM     10  C   UNL     1     105.943 124.390 140.787  0.00  0.00    +0.000 A 
ATOM     11  C   UNL     1     104.945 125.568 140.057  0.00  0.00    +0.000 A 
ATOM     12  C   UNL     1     105.435 125.785 140.728  0.00  0.00    +0.000 A 
ATOM     13  C   UNL     1     105.937 125.192 141.096  0.00  0.00    +0.000 A 
ENDROOT
BRANCH   5  15
ATOM     14  O   UNL     1     104.252 122.987 136.091  0.00  0.00    +0.000 OA
ATOM     15  C   UNL     1     104.027 123.585 138.179  0.00  0.00    +0.000 A 
ATOM     16  C   UNL     1     103.205 123.580 138.254  0.00  0.00    +0.000 A 
ATOM     17  C   UNL     1     104.376 123.387 137.458  0.00  0.00    +0.000 A 
ATOM     18  C   UNL     1     102.733 123.377 137.610  0.00  0.00    +0.000 A 
ATOM     19  C   UNL     1     103.082 123.180 136.889  0.00  0.00    +0.000 A 
ATOM     20  C   UNL     1     103.903 123.184 136.812  0.00  0.00    +0.000 A 
BRANCH  18  21
ATOM     21  O   UNL     1     101.911 123.372 137.685  0.00  0.00    +0.000 OA
ATOM     22  C   UNL     1     101.565 123.194 138.412  0.00  0.00    +0.000 C 
ENDBRANCH  18  21
BRANCH  19  23
ATOM     23  O   UNL     1     102.609 122.977 136.243  0.00  0.00    +0.000 OA
ATOM     24  C   UNL     1     102.739 123.332 135.510  0.00  0.00    +0.000 C 
ENDBRANCH  19  23
ENDBRANCH   5  15
TORSDOF 3
ENDMDL
MODEL 3
REMARK VINA RESULT:      -8.0     11.188     12.518
REMARK  Name = 5488643
REMARK  3 active torsions:
REMARK  status: ('A' for Active; 'I' for Inactive)
REMARK    1  A    between atoms: O_2  and  C_17
REMARK    2  A    between atoms: O_3  and  C_19
REMARK    3  A    between atoms: C_8  and  C_9
REMARK                            x       y       z     vdW  Elec       q    Type
REMARK                         _______ _______ _______ _____ _____    ______ ____
ROOT
ATOM      1  O   UNL     1     112.057 125.873 136.511  0.00  0.00    +0.000 OA
ATOM      2  O   UNL     1     113.348 123.367 137.139  0.00  0.00    +0.000 OA
ATOM      3  O   UNL     1     111.911 123.491 137.165  0.00  0.00    +0.000 OA
ATOM      4  O   UNL     1     114.963 125.697 136.438  0.00  0.00    +0.000 OA
ATOM      5  C   UNL     1     111.319 125.525 136.636  0.00  0.00    +0.000 A 
ATOM      6  C   UNL     1     112.696 124.634 136.821  0.00  0.00    +0.000 A 
ATOM      7  C   UNL     1     112.745 125.429 136.603  0.00  0.00    +0.000 A 
ATOM      8  C   UNL     1     111.271 124.730 136.854  0.00  0.00    +0.000 A 
ATOM      9  C   UNL     1     111.960 124.285 136.947  0.00  0.00    +0.000 A 
ATOM     10  C   UNL     1     113.406 124.159 136.921  0.00  0.00    +0.000 A 
ATOM     11  C   UNL     1     113.507 125.803 136.469  0.00  0.00    +0.000 A 
ATOM     12  C   UNL     1     114.227 125.345 136.564  0.00  0.00    +0.000 A 
ATOM     13  C   UNL     1     114.176 124.517 136.792  0.00  0.00    +0.000 A 
ENDROOT
BRANCH   5  15
ATOM     14  O   UNL     1     109.170 126.445 134.993  0.00  0.00    +0.000 OA
ATOM     15  C   UNL     1     110.631 125.969 136.543  0.00  0.00    +0.000 A 
ATOM     16  C   UNL     1     110.329 126.399 137.179  0.00  0.00    +0.000 A 
ATOM     17  C   UNL     1     110.245 125.984 135.815  0.00  0.00    +0.000 A 
ATOM     18  C   UNL     1     109.641 126.844 137.087  0.00  0.00    +0.000 A 
ATOM     19  C   UNL     1     109.254 126.859 136.358  0.00  0.00    +0.000 A 
ATOM     20  C   UNL     1     109.556 126.430 135.722  0.00  0.00    +0.000 A 
BRANCH  18  21
ATOM     21  O   UNL     1     109.338 127.274 137.723  0.00  0.00    +0.000 OA
ATOM     22  C   UNL     1     109.711 127.240 138.458  0.00  0.00    +0.000 C 
ENDBRANCH  18  21
BRANCH  19  23
ATOM     23  O   UNL     1     108.565 127.304 136.265  0.00  0.00    +0.000 OA
ATOM     24  C   UNL     1     108.572 127.980 135.792  0.00  0.00    +0.000 C 
ENDBRANCH  19  23
ENDBRANCH   5  15
TORSDOF 3
ENDMDL
MODEL 4
REMARK VINA RESULT:      -7.9     12.774     14.139
REMARK  Name = 5488643
REMARK  3 active torsions:
REMARK  status: ('A' for Active; 'I' for Inactive)
REMARK    1  A    between atoms: O_2  and  C_17
REMARK    2  A    between atoms: O_3  and  C_19
REMARK    3  A    between atoms: C_8  and  C_9
REMARK                            x       y       z     vdW  Elec       q    Type
REMARK                         _______ _______ _______ _____ _____    ______ ____
ROOT
ATOM      1  O   UNL     1     112.809 126.474 136.389  0.00  0.00    +0.000 OA
ATOM      2  O   UNL     1     113.986 123.991 137.281  0.00  0.00    +0.000 OA
ATOM      3  O   UNL     1     114.698 125.239 137.405  0.00  0.00    +0.000 OA
ATOM      4  O   UNL     1     111.312 123.992 136.106  0.00  0.00    +0.000 OA
ATOM      5  C   UNL     1     113.487 126.881 136.626  0.00  0.00    +0.000 A 
ATOM      6  C   UNL     1     113.390 125.246 136.830  0.00  0.00    +0.000 A 
ATOM      7  C   UNL     1     112.760 125.658 136.491  0.00  0.00    +0.000 A 
ATOM      8  C   UNL     1     114.116 126.469 136.965  0.00  0.00    +0.000 A 
ATOM      9  C   UNL     1     114.068 125.651 137.067  0.00  0.00    +0.000 A 
ATOM     10  C   UNL     1     113.352 124.394 136.942  0.00  0.00    +0.000 A 
ATOM     11  C   UNL     1     112.048 125.246 136.240  0.00  0.00    +0.000 A 
ATOM     12  C   UNL     1     111.992 124.395 136.344  0.00  0.00    +0.000 A 
ATOM     13  C   UNL     1     112.648 123.966 136.697  0.00  0.00    +0.000 A 
ENDROOT
BRANCH   5  15
ATOM     14  O   UNL     1     114.345 129.137 135.097  0.00  0.00    +0.000 OA
ATOM     15  C   UNL     1     113.535 127.697 136.524  0.00  0.00    +0.000 A 
ATOM     16  C   UNL     1     113.204 128.204 137.085  0.00  0.00    +0.000 A 
ATOM     17  C   UNL     1     113.916 128.008 135.862  0.00  0.00    +0.000 A 
ATOM     18  C   UNL     1     113.253 129.021 136.983  0.00  0.00    +0.000 A 
ATOM     19  C   UNL     1     113.633 129.332 136.320  0.00  0.00    +0.000 A 
ATOM     20  C   UNL     1     113.965 128.826 135.759  0.00  0.00    +0.000 A 
BRANCH  18  21
ATOM     21  O   UNL     1     112.921 129.528 137.544  0.00  0.00    +0.000 OA
ATOM     22  C   UNL     1     112.309 129.261 138.029  0.00  0.00    +0.000 C 
ENDBRANCH  18  21
BRANCH  19  23
ATOM     23  O   UNL     1     113.682 130.150 136.218  0.00  0.00    +0.000 OA
ATOM     24  C   UNL     1     114.412 130.529 136.279  0.00  0.00    +0.000 C 
ENDBRANCH  19  23
ENDBRANCH   5  15
TORSDOF 3
ENDMDL
MODEL 5
REMARK VINA RESULT:      -7.8     12.574     13.880
REMARK  Name = 5488643
REMARK  3 active torsions:
REMARK  status: ('A' for Active; 'I' for Inactive)
REMARK    1  A    between atoms: O_2  and  C_17
REMARK    2  A    between atoms: O_3  and  C_19
REMARK    3  A    between atoms: C_8  and  C_9
REMARK                            x       y       z     vdW  Elec       q    Type
REMARK                         _______ _______ _______ _____ _____    ______ ____
ROOT
ATOM      1  O   UNL     1     113.572 127.486 136.105  0.00  0.00    +0.000 OA
ATOM      2  O   UNL     1     113.253 130.020 137.454  0.00  0.00    +0.000 OA
ATOM      3  O   UNL     1     112.689 128.810 138.000  0.00  0.00    +0.000 OA
ATOM      4  O   UNL     1     114.738 129.888 134.943  0.00  0.00    +0.000 OA
ATOM      5  C   UNL     1     113.140 127.114 136.702  0.00  0.00    +0.000 A 
ATOM      6  C   UNL     1     113.415 128.739 136.771  0.00  0.00    +0.000 A 
ATOM      7  C   UNL     1     113.709 128.298 136.139  0.00  0.00    +0.000 A 
ATOM      8  C   UNL     1     112.846 127.555 137.334  0.00  0.00    +0.000 A 
ATOM      9  C   UNL     1     112.983 128.369 137.368  0.00  0.00    +0.000 A 
ATOM     10  C   UNL     1     113.551 129.587 136.819  0.00  0.00    +0.000 A 
ATOM     11  C   UNL     1     114.160 128.673 135.511  0.00  0.00    +0.000 A 
ATOM     12  C   UNL     1     114.306 129.519 135.542  0.00  0.00    +0.000 A 
ATOM     13  C   UNL     1     114.000 129.979 136.200  0.00  0.00    +0.000 A 
ENDROOT
BRANCH   5  15
ATOM     14  O   UNL     1     111.483 124.914 135.939  0.00  0.00    +0.000 OA
ATOM     15  C   UNL     1     113.003 126.302 136.668  0.00  0.00    +0.000 A 
ATOM     16  C   UNL     1     113.557 125.775 136.980  0.00  0.00    +0.000 A 
ATOM     17  C   UNL     1     112.312 126.014 136.321  0.00  0.00    +0.000 A 
ATOM     18  C   UNL     1     113.420 124.963 136.946  0.00  0.00    +0.000 A 
ATOM     19  C   UNL     1     112.728 124.676 136.599  0.00  0.00    +0.000 A 
ATOM     20  C   UNL     1     112.174 125.201 136.286  0.00  0.00    +0.000 A 
BRANCH  18  21
ATOM     21  O   UNL     1     113.973 124.437 137.259  0.00  0.00    +0.000 OA
ATOM     22  C   UNL     1     114.758 124.673 137.353  0.00  0.00    +0.000 C 
ENDBRANCH  18  21
BRANCH  19  23
ATOM     23  O   UNL     1     112.591 123.863 136.565  0.00  0.00    +0.000 OA
ATOM     24  C   UNL     1     111.993 123.527 137.023  0.00  0.00    +0.000 C 
ENDBRANCH  19  23
ENDBRANCH   5  15
TORSDOF 3
ENDMDL
MODEL 6
REMARK VINA RESULT:      -7.8     13.288     14.161
REMARK  Name = 5488643
REMARK  3 active torsions:
REMARK  status: ('A' for Active; 'I' for Inactive)
REMARK    1  A    between atoms: O_2  and  C_17
REMARK    2  A    between atoms: O_3  and  C_19
REMARK    3  A    between atoms: C_8  and  C_9
REMARK                            x       y       z     vdW  Elec       q    Type
REMARK                         _______ _______ _______ _____ _____    ______ ____
ROOT
ATOM      1  O   UNL     1     113.758 126.862 136.878  0.00  0.00    +0.000 OA
ATOM      2  O   UNL     1     112.252 124.471 136.279  0.00  0.00    +0.000 OA
ATOM      3  O   UNL     1     111.727 125.778 135.970  0.00  0.00    +0.000 OA
ATOM      4  O   UNL     1     114.881 124.256 137.531  0.00  0.00    +0.000 OA
ATOM      5  C   UNL     1     113.148 127.324 136.568  0.00  0.00    +0.000 A 
ATOM      6  C   UNL     1     113.014 125.679 136.582  0.00  0.00    +0.000 A 
ATOM      7  C   UNL     1     113.691 126.041 136.885  0.00  0.00    +0.000 A 
ATOM      8  C   UNL     1     112.471 126.962 136.265  0.00  0.00    +0.000 A 
ATOM      9  C   UNL     1     112.404 126.139 136.272  0.00  0.00    +0.000 A 
ATOM     10  C   UNL     1     112.932 124.823 136.584  0.00  0.00    +0.000 A 
ATOM     11  C   UNL     1     114.334 125.571 137.211  0.00  0.00    +0.000 A 
ATOM     12  C   UNL     1     114.270 124.715 137.221  0.00  0.00    +0.000 A 
ATOM     13  C   UNL     1     113.564 124.338 136.905  0.00  0.00    +0.000 A 
ENDROOT
BRANCH   5  15
ATOM     14  O   UNL     1     112.525 129.867 137.713  0.00  0.00    +0.000 OA
ATOM     15  C   UNL     1     113.215 128.145 136.561  0.00  0.00    +0.000 A 
ATOM     16  C   UNL     1     113.659 128.519 135.974  0.00  0.00    +0.000 A 
ATOM     17  C   UNL     1     112.837 128.595 137.140  0.00  0.00    +0.000 A 
ATOM     18  C   UNL     1     113.726 129.341 135.967  0.00  0.00    +0.000 A 
ATOM     19  C   UNL     1     113.348 129.790 136.547  0.00  0.00    +0.000 A 
ATOM     20  C   UNL     1     112.903 129.418 137.133  0.00  0.00    +0.000 A 
BRANCH  18  21
ATOM     21  O   UNL     1     114.170 129.714 135.381  0.00  0.00    +0.000 OA
ATOM     22  C   UNL     1     114.375 129.304 134.695  0.00  0.00    +0.000 C 
ENDBRANCH  18  21
BRANCH  19  23
ATOM     23  O   UNL     1     113.414 130.613 136.540  0.00  0.00    +0.000 OA
ATOM     24  C   UNL     1     113.828 130.998 137.141  0.00  0.00    +0.000 C 
ENDBRANCH  19  23
ENDBRANCH   5  15
TORSDOF 3
ENDMDL
MODEL 7
REMARK VINA RESULT:      -7.8      0.912      4.547
REMARK  Name = 5488643
REMARK  3 active torsions:
REMARK  status: ('A' for Active; 'I' for Inactive)
REMARK    1  A    between atoms: O_2  and  C_17
REMARK    2  A    between atoms: O_3  and  C_19
REMARK    3  A    between atoms: C_8  and  C_9
REMARK                            x       y       z     vdW  Elec       q    Type
REMARK                         _______ _______ _______ _____ _____    ______ ____
ROOT
ATOM      1  O   UNL     1     103.987 124.128 146.594  0.00  0.00    +0.000 OA
ATOM      2  O   UNL     1     101.411 124.903 147.646  0.00  0.00    +0.000 OA
ATOM      3  O   UNL     1     102.618 125.569 148.069  0.00  0.00    +0.000 OA
ATOM      4  O   UNL     1     101.592 122.739 145.693  0.00  0.00    +0.000 OA
ATOM      5  C   UNL     1     104.350 124.706 147.058  0.00  0.00    +0.000 A 
ATOM      6  C   UNL     1     102.713 124.511 147.113  0.00  0.00    +0.000 A 
ATOM      7  C   UNL     1     103.169 124.030 146.622  0.00  0.00    +0.000 A 
ATOM      8  C   UNL     1     103.894 125.187 147.549  0.00  0.00    +0.000 A 
ATOM      9  C   UNL     1     103.075 125.089 147.577  0.00  0.00    +0.000 A 
ATOM     10  C   UNL     1     101.859 124.419 147.152  0.00  0.00    +0.000 A 
ATOM     11  C   UNL     1     102.803 123.425 146.134  0.00  0.00    +0.000 A 
ATOM     12  C   UNL     1     101.951 123.318 146.158  0.00  0.00    +0.000 A 
ATOM     13  C   UNL     1     101.476 123.819 146.671  0.00  0.00    +0.000 A 
ENDROOT
BRANCH   5  15
ATOM     14  O   UNL     1     106.917 124.443 148.286  0.00  0.00    +0.000 OA
ATOM     15  C   UNL     1     105.169 124.804 147.030  0.00  0.00    +0.000 A 
ATOM     16  C   UNL     1     105.523 125.132 146.361  0.00  0.00    +0.000 A 
ATOM     17  C   UNL     1     105.633 124.575 147.672  0.00  0.00    +0.000 A 
ATOM     18  C   UNL     1     106.341 125.230 146.333  0.00  0.00    +0.000 A 
ATOM     19  C   UNL     1     106.806 125.000 146.975  0.00  0.00    +0.000 A 
ATOM     20  C   UNL     1     106.453 124.673 147.645  0.00  0.00    +0.000 A 
BRANCH  18  21
ATOM     21  O   UNL     1     106.696 125.557 145.664  0.00  0.00    +0.000 OA
ATOM     22  C   UNL     1     106.237 125.743 145.004  0.00  0.00    +0.000 C 
ENDBRANCH  18  21
BRANCH  19  23
ATOM     23  O   UNL     1     107.625 125.098 146.948  0.00  0.00    +0.000 OA
ATOM     24  C   UNL     1     108.027 125.392 147.606  0.00  0.00    +0.000 C 
ENDBRANCH  19  23
ENDBRANCH   5  15
TORSDOF 3
ENDMDL
MODEL 8
REMARK VINA RESULT:      -7.8      0.893      4.531
REMARK  Name = 5488643
REMARK  3 active torsions:
REMARK  status: ('A' for Active; 'I' for Inactive)
REMARK    1  A    between atoms: O_2  and  C_17
REMARK    2  A    between atoms: O_3  and  C_19
REMARK    3  A    between atoms: C_8  and  C_9
REMARK                            x       y       z     vdW  Elec       q    Type
REMARK                         _______ _______ _______ _____ _____    ______ ____
ROOT
ATOM      1  O   UNL     1     103.845 124.613 146.994  0.00  0.00    +0.000 OA
ATOM      2  O   UNL     1     102.063 122.740 145.705  0.00  0.00    +0.000 OA
ATOM      3  O   UNL     1     103.469 122.770 145.385  0.00  0.00    +0.000 OA
ATOM      4  O   UNL     1     101.017 124.609 147.689  0.00  0.00    +0.000 OA
ATOM      5  C   UNL     1     104.477 124.311 146.559  0.00  0.00    +0.000 A 
ATOM      6  C   UNL     1     102.963 123.687 146.357  0.00  0.00    +0.000 A 
ATOM      7  C   UNL     1     103.088 124.301 146.894  0.00  0.00    +0.000 A 
ATOM      8  C   UNL     1     104.352 123.696 146.022  0.00  0.00    +0.000 A 
ATOM      9  C   UNL     1     103.594 123.384 145.921  0.00  0.00    +0.000 A 
ATOM     10  C   UNL     1     102.178 123.353 146.243  0.00  0.00    +0.000 A 
ATOM     11  C   UNL     1     102.437 124.625 147.353  0.00  0.00    +0.000 A 
ATOM     12  C   UNL     1     101.647 124.304 147.253  0.00  0.00    +0.000 A 
ATOM     13  C   UNL     1     101.516 123.664 146.694  0.00  0.00    +0.000 A 
ENDROOT
BRANCH   5  15
ATOM     14  O   UNL     1     106.769 125.640 145.487  0.00  0.00    +0.000 OA
ATOM     15  C   UNL     1     105.234 124.622 146.659  0.00  0.00    +0.000 A 
ATOM     16  C   UNL     1     105.603 124.581 147.396  0.00  0.00    +0.000 A 
ATOM     17  C   UNL     1     105.622 124.975 146.023  0.00  0.00    +0.000 A 
ATOM     18  C   UNL     1     106.360 124.892 147.497  0.00  0.00    +0.000 A 
ATOM     19  C   UNL     1     106.748 125.245 146.860  0.00  0.00    +0.000 A 
ATOM     20  C   UNL     1     106.380 125.287 146.123  0.00  0.00    +0.000 A 
BRANCH  18  21
ATOM     21  O   UNL     1     106.729 124.851 148.233  0.00  0.00    +0.000 OA
ATOM     22  C   UNL     1     106.484 124.290 148.786  0.00  0.00    +0.000 C 
ENDBRANCH  18  21
BRANCH  19  23
ATOM     23  O   UNL     1     107.506 125.557 146.960  0.00  0.00    +0.000 OA
ATOM     24  C   UNL     1     107.617 126.375 146.968  0.00  0.00    +0.000 C 
ENDBRANCH  19  23
ENDBRANCH   5  15
TORSDOF 3
ENDMDL
MODEL 9
REMARK VINA RESULT:      -7.7      0.808      1.557
REMARK  Name = 5488643
REMARK  3 active torsions:
REMARK  status: ('A' for Active; 'I' for Inactive)
REMARK    1  A    between atoms: O_2  and  C_17
REMARK    2  A    between atoms: O_3  and  C_19
REMARK    3  A    between atoms: C_8  and  C_9
REMARK                            x       y       z     vdW  Elec       q    Type
REMARK                         _______ _______ _______ _____ _____    ______ ____
ROOT
ATOM      1  O   UNL     1     105.162 125.258 146.731  0.00  0.00    +0.000 OA
ATOM      2  O   UNL     1     107.487 125.024 148.428  0.00  0.00    +0.000 OA
ATOM      3  O   UNL     1     106.333 124.183 148.628  0.00  0.00    +0.000 OA
ATOM      4  O   UNL     1     107.457 126.989 146.268  0.00  0.00    +0.000 OA
ATOM      5  C   UNL     1     104.791 124.656 147.156  0.00  0.00    +0.000 A 
ATOM      6  C   UNL     1     106.312 125.143 147.569  0.00  0.00    +0.000 A 
ATOM      7  C   UNL     1     105.922 125.501 146.937  0.00  0.00    +0.000 A 
ATOM      8  C   UNL     1     105.181 124.298 147.789  0.00  0.00    +0.000 A 
ATOM      9  C   UNL     1     105.942 124.542 147.996  0.00  0.00    +0.000 A 
ATOM     10  C   UNL     1     107.105 125.388 147.795  0.00  0.00    +0.000 A 
ATOM     11  C   UNL     1     106.297 126.130 146.486  0.00  0.00    +0.000 A 
ATOM     12  C   UNL     1     107.089 126.387 146.696  0.00  0.00    +0.000 A 
ATOM     13  C   UNL     1     107.496 126.014 147.355  0.00  0.00    +0.000 A 
ENDROOT
BRANCH   5  15
ATOM     14  O   UNL     1     101.956 124.913 147.409  0.00  0.00    +0.000 OA
ATOM     15  C   UNL     1     104.031 124.412 146.950  0.00  0.00    +0.000 A 
ATOM     16  C   UNL     1     103.926 123.796 146.411  0.00  0.00    +0.000 A 
ATOM     17  C   UNL     1     103.374 124.785 147.283  0.00  0.00    +0.000 A 
ATOM     18  C   UNL     1     103.166 123.553 146.205  0.00  0.00    +0.000 A 
ATOM     19  C   UNL     1     102.509 123.925 146.537  0.00  0.00    +0.000 A 
ATOM     20  C   UNL     1     102.612 124.541 147.076  0.00  0.00    +0.000 A 
BRANCH  18  21
ATOM     21  O   UNL     1     103.061 122.937 145.666  0.00  0.00    +0.000 OA
ATOM     22  C   UNL     1     103.668 122.739 145.143  0.00  0.00    +0.000 C 
ENDBRANCH  18  21
BRANCH  19  23
ATOM     23  O   UNL     1     101.748 123.681 146.331  0.00  0.00    +0.000 OA
ATOM     24  C   UNL     1     101.251 123.355 146.903  0.00  0.00    +0.000 C 
ENDBRANCH  19  23
ENDBRANCH   5  15
TORSDOF 3
ENDMDL
MODEL 10
REMARK VINA RESULT:      -7.7     12.094     13.450
REMARK  Name = 5488643
REMARK  3 active torsions:
REMARK  status: ('A' for Active; 'I' for Inactive)
REMARK    1  A    between atoms: O_2  and  C_17
REMARK    2  A    between atoms: O_3  and  C_19
REMARK    3  A    between atoms: C_8  and  C_9
REMARK                            x       y       z     vdW  Elec       q    Type
REMARK                         _______ _______ _______ _____ _____    ______ ____
ROOT
ATOM      1  O   UNL     1     112.811 126.537 136.565  0.00  0.00    +0.000 OA
ATOM      2  O   UNL     1     112.231 123.711 136.414  0.00  0.00    +0.000 OA
ATOM      3  O   UNL     1     111.256 124.693 136.007  0.00  0.00    +0.000 OA
ATOM      4  O   UNL     1     114.827 124.610 137.404  0.00  0.00    +0.000 OA
ATOM      5  C   UNL     1     112.060 126.707 136.267  0.00  0.00    +0.000 A 
ATOM      6  C   UNL     1     112.525 125.139 136.491  0.00  0.00    +0.000 A 
ATOM      7  C   UNL     1     113.043 125.754 136.677  0.00  0.00    +0.000 A 
ATOM      8  C   UNL     1     111.542 126.092 136.081  0.00  0.00    +0.000 A 
ATOM      9  C   UNL     1     111.774 125.308 136.193  0.00  0.00    +0.000 A 
ATOM     10  C   UNL     1     112.755 124.318 136.603  0.00  0.00    +0.000 A 
ATOM     11  C   UNL     1     113.828 125.590 136.987  0.00  0.00    +0.000 A 
ATOM     12  C   UNL     1     114.076 124.777 137.106  0.00  0.00    +0.000 A 
ATOM     13  C   UNL     1     113.535 124.136 136.912  0.00  0.00    +0.000 A 
ENDROOT
BRANCH   5  15
ATOM     14  O   UNL     1     111.926 129.037 134.618  0.00  0.00    +0.000 OA
ATOM     15  C   UNL     1     111.827 127.490 136.155  0.00  0.00    +0.000 A 
ATOM     16  C   UNL     1     111.429 127.892 136.755  0.00  0.00    +0.000 A 
ATOM     17  C   UNL     1     111.993 127.871 135.443  0.00  0.00    +0.000 A 
ATOM     18  C   UNL     1     111.197 128.675 136.643  0.00  0.00    +0.000 A 
ATOM     19  C   UNL     1     111.362 129.057 135.931  0.00  0.00    +0.000 A 
ATOM     20  C   UNL     1     111.760 128.655 135.330  0.00  0.00    +0.000 A 
BRANCH  18  21
ATOM     21  O   UNL     1     110.798 129.078 137.243  0.00  0.00    +0.000 OA
ATOM     22  C   UNL     1     110.924 128.871 138.032  0.00  0.00    +0.000 C 
ENDBRANCH  18  21
BRANCH  19  23
ATOM     23  O   UNL     1     111.129 129.841 135.818  0.00  0.00    +0.000 OA
ATOM     24  C   UNL     1     110.525 130.019 135.286  0.00  0.00    +0.000 C 
ENDBRANCH  19  23
ENDBRANCH   5  15
TORSDOF 3
ENDMDL
