MODEL 1
REMARK VINA RESULT:      -9.7      0.000      0.000
REMARK  Name = 44258003
REMARK  10 active torsions:
REMARK  status: ('A' for Active; 'I' for Inactive)
REMARK    1  A    between atoms: O_1  and  C_20
REMARK    2  A    between atoms: O_1  and  C_23
REMARK    3  A    between atoms: O_5  and  C_25
REMARK    4  A    between atoms: O_5  and  C_32
REMARK    5  A    between atoms: O_10  and  C_30
REMARK    6  A    between atoms: O_10  and  C_35
REMARK    7  A    between atoms: C_24  and  C_30
REMARK    8  A    between atoms: C_33  and  C_37
REMARK    9  A    between atoms: C_35  and  C_39
REMARK   10  A    between atoms: C_39  and  C_46
REMARK                            x       y       z     vdW  Elec       q    Type
REMARK                         _______ _______ _______ _____ _____    ______ ____
ROOT
ATOM      1  O   UNL     1     111.232 127.226 137.900  0.00  0.00    +0.000 OA
ATOM      2  O   UNL     1     108.847 126.688 138.287  0.00  0.00    +0.000 OA
ATOM      3  O   UNL     1     109.277 127.682 137.042  0.00  0.00    +0.000 OA
ATOM      4  C   UNL     1     110.222 126.549 138.652  0.00  0.00    +0.000 C 
ATOM      5  C   UNL     1     109.642 126.867 138.158  0.00  0.00    +0.000 C 
ATOM      6  C   UNL     1     109.857 127.364 137.536  0.00  0.00    +0.000 C 
ATOM      7  C   UNL     1     110.652 127.543 137.407  0.00  0.00    +0.000 C 
ATOM      8  C   UNL     1     111.016 126.729 138.523  0.00  0.00    +0.000 C 
ENDROOT
BRANCH   4   9
ATOM      9  O   UNL     1     110.007 126.053 139.274  0.00  0.00    +0.000 OA
BRANCH   9  14
ATOM     10  O   UNL     1     109.678 127.189 140.077  0.00  0.00    +0.000 OA
ATOM     11  O   UNL     1     109.387 125.055 140.434  0.00  0.00    +0.000 OA
ATOM     12  O   UNL     1     108.750 125.693 141.815  0.00  0.00    +0.000 OA
ATOM     13  O   UNL     1     108.731 127.328 142.038  0.00  0.00    +0.000 OA
ATOM     14  C   UNL     1     109.688 126.372 139.965  0.00  0.00    +0.000 C 
ATOM     15  C   UNL     1     109.378 125.873 140.545  0.00  0.00    +0.000 C 
ATOM     16  C   UNL     1     109.059 126.191 141.236  0.00  0.00    +0.000 C 
ATOM     17  C   UNL     1     109.050 127.009 141.347  0.00  0.00    +0.000 C 
ATOM     18  C   UNL     1     109.359 127.508 140.768  0.00  0.00    +0.000 C 
ATOM     19  C   UNL     1     109.350 128.325 140.878  0.00  0.00    +0.000 C 
ENDBRANCH   9  14
ENDBRANCH   4   9
BRANCH   8  20
ATOM     20  O   UNL     1     111.597 126.412 139.017  0.00  0.00    +0.000 OA
BRANCH  20  25
ATOM     21  O   UNL     1     113.741 126.191 138.679  0.00  0.00    +0.000 OA
ATOM     22  O   UNL     1     111.606 125.310 137.788  0.00  0.00    +0.000 OA
ATOM     23  O   UNL     1     112.310 124.484 136.837  0.00  0.00    +0.000 OA
ATOM     24  O   UNL     1     115.229 124.551 136.786  0.00  0.00    +0.000 OA
ATOM     25  C   UNL     1     112.313 126.154 138.699  0.00  0.00    +0.000 A 
ATOM     26  C   UNL     1     113.025 126.448 138.996  0.00  0.00    +0.000 A 
ATOM     27  C   UNL     1     112.318 125.604 138.085  0.00  0.00    +0.000 A 
ATOM     28  C   UNL     1     113.034 125.347 137.768  0.00  0.00    +0.000 A 
ATOM     29  C   UNL     1     113.746 125.640 138.064  0.00  0.00    +0.000 A 
ATOM     30  C   UNL     1     113.027 124.772 137.127  0.00  0.00    +0.000 A 
ATOM     31  C   UNL     1     114.499 125.379 137.741  0.00  0.00    +0.000 A 
ATOM     32  C   UNL     1     113.769 124.500 136.792  0.00  0.00    +0.000 A 
ATOM     33  C   UNL     1     114.511 124.806 137.102  0.00  0.00    +0.000 A 
BRANCH  26  36
ATOM     34  O   UNL     1     113.148 129.160 139.891  0.00  0.00    +0.000 OA
ATOM     35  O   UNL     1     113.006 128.650 141.454  0.00  0.00    +0.000 OA
ATOM     36  C   UNL     1     113.020 126.998 139.610  0.00  0.00    +0.000 A 
ATOM     37  C   UNL     1     113.087 127.804 139.443  0.00  0.00    +0.000 A 
ATOM     38  C   UNL     1     112.949 126.744 140.391  0.00  0.00    +0.000 A 
ATOM     39  C   UNL     1     113.082 128.354 140.057  0.00  0.00    +0.000 A 
ATOM     40  C   UNL     1     112.944 127.295 141.006  0.00  0.00    +0.000 A 
ATOM     41  C   UNL     1     113.011 128.100 140.839  0.00  0.00    +0.000 A 
ENDBRANCH  26  36
ENDBRANCH  20  25
ENDBRANCH   8  20
BRANCH   7  42
ATOM     42  C   UNL     1     110.867 128.041 136.784  0.00  0.00    +0.000 C 
BRANCH  42  43
ATOM     43  O   UNL     1     111.633 128.344 136.746  0.00  0.00    +0.000 OA
BRANCH  43  45
ATOM     44  O   UNL     1     111.548 129.452 135.846  0.00  0.00    +0.000 OA
ATOM     45  C   UNL     1     111.889 128.732 136.063  0.00  0.00    +0.000 C 
BRANCH  45  46
ATOM     46  C   UNL     1     112.485 128.401 135.600  0.00  0.00    +0.000 C 
BRANCH  46  49
ATOM     47  O   UNL     1     113.821 128.566 136.078  0.00  0.00    +0.000 OA
ATOM     48  O   UNL     1     113.357 129.344 134.973  0.00  0.00    +0.000 OA
ATOM     49  C   UNL     1     113.221 128.770 135.550  0.00  0.00    +0.000 C 
ENDBRANCH  46  49
ENDBRANCH  45  46
ENDBRANCH  43  45
ENDBRANCH  42  43
ENDBRANCH   7  42
TORSDOF 10
ENDMDL
MODEL 2
REMARK VINA RESULT:      -9.5      1.796      4.043
REMARK  Name = 44258003
REMARK  10 active torsions:
REMARK  status: ('A' for Active; 'I' for Inactive)
REMARK    1  A    between atoms: O_1  and  C_20
REMARK    2  A    between atoms: O_1  and  C_23
REMARK    3  A    between atoms: O_5  and  C_25
REMARK    4  A    between atoms: O_5  and  C_32
REMARK    5  A    between atoms: O_10  and  C_30
REMARK    6  A    between atoms: O_10  and  C_35
REMARK    7  A    between atoms: C_24  and  C_30
REMARK    8  A    between atoms: C_33  and  C_37
REMARK    9  A    between atoms: C_35  and  C_39
REMARK   10  A    between atoms: C_39  and  C_46
REMARK                            x       y       z     vdW  Elec       q    Type
REMARK                         _______ _______ _______ _____ _____    ______ ____
ROOT
ATOM      1  O   UNL     1     111.815 126.608 137.198  0.00  0.00    +0.000 OA
ATOM      2  O   UNL     1     109.408 126.467 136.638  0.00  0.00    +0.000 OA
ATOM      3  O   UNL     1     110.410 125.200 136.300  0.00  0.00    +0.000 OA
ATOM      4  C   UNL     1     110.512 127.195 137.180  0.00  0.00    +0.000 C 
ATOM      5  C   UNL     1     110.211 126.514 136.825  0.00  0.00    +0.000 C 
ATOM      6  C   UNL     1     110.711 125.881 136.656  0.00  0.00    +0.000 C 
ATOM      7  C   UNL     1     111.513 125.928 136.842  0.00  0.00    +0.000 C 
ATOM      8  C   UNL     1     111.314 127.242 137.367  0.00  0.00    +0.000 C 
ENDROOT
BRANCH   4   9
ATOM      9  O   UNL     1     110.012 127.828 137.349  0.00  0.00    +0.000 OA
BRANCH   9  14
ATOM     10  O   UNL     1     110.066 128.236 135.981  0.00  0.00    +0.000 OA
ATOM     11  O   UNL     1     109.012 129.097 137.687  0.00  0.00    +0.000 OA
ATOM     12  O   UNL     1     108.566 130.138 136.488  0.00  0.00    +0.000 OA
ATOM     13  O   UNL     1     109.120 129.911 134.950  0.00  0.00    +0.000 OA
ATOM     14  C   UNL     1     109.789 128.349 136.749  0.00  0.00    +0.000 C 
ATOM     15  C   UNL     1     109.289 128.984 136.918  0.00  0.00    +0.000 C 
ATOM     16  C   UNL     1     109.066 129.505 136.319  0.00  0.00    +0.000 C 
ATOM     17  C   UNL     1     109.343 129.391 135.550  0.00  0.00    +0.000 C 
ATOM     18  C   UNL     1     109.843 128.757 135.381  0.00  0.00    +0.000 C 
ATOM     19  C   UNL     1     110.120 128.643 134.612  0.00  0.00    +0.000 C 
ENDBRANCH   9  14
ENDBRANCH   4   9
BRANCH   8  20
ATOM     20  O   UNL     1     111.616 127.922 137.722  0.00  0.00    +0.000 OA
BRANCH  20  25
ATOM     21  O   UNL     1     113.487 128.202 138.811  0.00  0.00    +0.000 OA
ATOM     22  O   UNL     1     111.342 126.992 139.057  0.00  0.00    +0.000 OA
ATOM     23  O   UNL     1     111.762 126.447 140.325  0.00  0.00    +0.000 OA
ATOM     24  O   UNL     1     114.402 127.138 141.363  0.00  0.00    +0.000 OA
ATOM     25  C   UNL     1     112.194 127.861 138.308  0.00  0.00    +0.000 A 
ATOM     26  C   UNL     1     112.909 128.264 138.225  0.00  0.00    +0.000 A 
ATOM     27  C   UNL     1     112.057 127.396 138.975  0.00  0.00    +0.000 A 
ATOM     28  C   UNL     1     112.635 127.334 139.560  0.00  0.00    +0.000 A 
ATOM     29  C   UNL     1     113.350 127.737 139.479  0.00  0.00    +0.000 A 
ATOM     30  C   UNL     1     112.480 126.846 140.252  0.00  0.00    +0.000 A 
ATOM     31  C   UNL     1     113.959 127.680 140.082  0.00  0.00    +0.000 A 
ATOM     32  C   UNL     1     113.077 126.778 140.865  0.00  0.00    +0.000 A 
ATOM     33  C   UNL     1     113.822 127.198 140.779  0.00  0.00    +0.000 A 
BRANCH  26  36
ATOM     34  O   UNL     1     112.635 130.749 136.840  0.00  0.00    +0.000 OA
ATOM     35  O   UNL     1     113.460 130.123 135.555  0.00  0.00    +0.000 OA
ATOM     36  C   UNL     1     113.047 128.729 137.558  0.00  0.00    +0.000 A 
ATOM     37  C   UNL     1     112.772 129.506 137.533  0.00  0.00    +0.000 A 
ATOM     38  C   UNL     1     113.459 128.416 136.916  0.00  0.00    +0.000 A 
ATOM     39  C   UNL     1     112.910 129.971 136.866  0.00  0.00    +0.000 A 
ATOM     40  C   UNL     1     113.597 128.881 136.247  0.00  0.00    +0.000 A 
ATOM     41  C   UNL     1     113.322 129.658 136.223  0.00  0.00    +0.000 A 
ENDBRANCH  26  36
ENDBRANCH  20  25
ENDBRANCH   8  20
BRANCH   7  42
ATOM     42  C   UNL     1     112.014 125.294 136.673  0.00  0.00    +0.000 C 
BRANCH  42  43
ATOM     43  O   UNL     1     112.831 125.387 136.735  0.00  0.00    +0.000 OA
BRANCH  43  45
ATOM     44  O   UNL     1     113.286 124.260 135.982  0.00  0.00    +0.000 OA
ATOM     45  C   UNL     1     113.328 124.732 136.657  0.00  0.00    +0.000 C 
BRANCH  45  46
ATOM     46  C   UNL     1     113.866 124.550 137.255  0.00  0.00    +0.000 C 
BRANCH  46  49
ATOM     47  O   UNL     1     114.949 125.190 137.933  0.00  0.00    +0.000 OA
ATOM     48  O   UNL     1     115.052 124.899 136.538  0.00  0.00    +0.000 OA
ATOM     49  C   UNL     1     114.623 124.880 137.242  0.00  0.00    +0.000 C 
ENDBRANCH  46  49
ENDBRANCH  45  46
ENDBRANCH  43  45
ENDBRANCH  42  43
ENDBRANCH   7  42
TORSDOF 10
ENDMDL
MODEL 3
REMARK VINA RESULT:      -9.5      2.053      4.528
REMARK  Name = 44258003
REMARK  10 active torsions:
REMARK  status: ('A' for Active; 'I' for Inactive)
REMARK    1  A    between atoms: O_1  and  C_20
REMARK    2  A    between atoms: O_1  and  C_23
REMARK    3  A    between atoms: O_5  and  C_25
REMARK    4  A    between atoms: O_5  and  C_32
REMARK    5  A    between atoms: O_10  and  C_30
REMARK    6  A    between atoms: O_10  and  C_35
REMARK    7  A    between atoms: C_24  and  C_30
REMARK    8  A    between atoms: C_33  and  C_37
REMARK    9  A    between atoms: C_35  and  C_39
REMARK   10  A    between atoms: C_39  and  C_46
REMARK                            x       y       z     vdW  Elec       q    Type
REMARK                         _______ _______ _______ _____ _____    ______ ____
ROOT
ATOM      1  O   UNL     1     110.228 127.458 136.777  0.00  0.00    +0.000 OA
ATOM      2  O   UNL     1     108.117 128.239 135.748  0.00  0.00    +0.000 OA
ATOM      3  O   UNL     1     108.798 126.818 135.257  0.00  0.00    +0.000 OA
ATOM      4  C   UNL     1     109.183 128.429 136.680  0.00  0.00    +0.000 C 
ATOM      5  C   UNL     1     108.820 127.979 136.091  0.00  0.00    +0.000 C 
ATOM      6  C   UNL     1     109.160 127.269 135.846  0.00  0.00    +0.000 C 
ATOM      7  C   UNL     1     109.864 127.009 136.189  0.00  0.00    +0.000 C 
ATOM      8  C   UNL     1     109.887 128.169 137.023  0.00  0.00    +0.000 C 
ENDROOT
BRANCH   4   9
ATOM      9  O   UNL     1     108.843 129.139 136.925  0.00  0.00    +0.000 OA
BRANCH   9  14
ATOM     10  O   UNL     1     109.371 129.793 135.769  0.00  0.00    +0.000 OA
ATOM     11  O   UNL     1     108.228 130.576 137.455  0.00  0.00    +0.000 OA
ATOM     12  O   UNL     1     108.449 131.947 136.565  0.00  0.00    +0.000 OA
ATOM     13  O   UNL     1     109.284 131.882 135.143  0.00  0.00    +0.000 OA
ATOM     14  C   UNL     1     108.953 129.825 136.479  0.00  0.00    +0.000 C 
ATOM     15  C   UNL     1     108.646 130.544 136.745  0.00  0.00    +0.000 C 
ATOM     16  C   UNL     1     108.756 131.229 136.299  0.00  0.00    +0.000 C 
ATOM     17  C   UNL     1     109.174 131.196 135.588  0.00  0.00    +0.000 C 
ATOM     18  C   UNL     1     109.481 130.479 135.323  0.00  0.00    +0.000 C 
ATOM     19  C   UNL     1     109.899 130.445 134.612  0.00  0.00    +0.000 C 
ENDBRANCH   9  14
ENDBRANCH   4   9
BRANCH   8  20
ATOM     20  O   UNL     1     110.250 128.619 137.611  0.00  0.00    +0.000 OA
BRANCH  20  25
ATOM     21  O   UNL     1     111.727 127.996 139.093  0.00  0.00    +0.000 OA
ATOM     22  O   UNL     1     109.335 127.634 138.568  0.00  0.00    +0.000 OA
ATOM     23  O   UNL     1     109.188 126.757 139.704  0.00  0.00    +0.000 OA
ATOM     24  O   UNL     1     111.506 126.237 141.403  0.00  0.00    +0.000 OA
ATOM     25  C   UNL     1     110.590 128.247 138.265  0.00  0.00    +0.000 A 
ATOM     26  C   UNL     1     111.387 128.368 138.439  0.00  0.00    +0.000 A 
ATOM     27  C   UNL     1     110.132 127.755 138.742  0.00  0.00    +0.000 A 
ATOM     28  C   UNL     1     110.472 127.383 139.396  0.00  0.00    +0.000 A 
ATOM     29  C   UNL     1     111.269 127.503 139.571  0.00  0.00    +0.000 A 
ATOM     30  C   UNL     1     109.985 126.872 139.887  0.00  0.00    +0.000 A 
ATOM     31  C   UNL     1     111.634 127.121 140.249  0.00  0.00    +0.000 A 
ATOM     32  C   UNL     1     110.333 126.481 140.569  0.00  0.00    +0.000 A 
ATOM     33  C   UNL     1     111.163 126.608 140.751  0.00  0.00    +0.000 A 
BRANCH  26  36
ATOM     34  O   UNL     1     112.265 130.987 137.706  0.00  0.00    +0.000 OA
ATOM     35  O   UNL     1     113.218 130.337 136.526  0.00  0.00    +0.000 OA
ATOM     36  C   UNL     1     111.844 128.860 137.961  0.00  0.00    +0.000 A 
ATOM     37  C   UNL     1     111.826 129.677 138.073  0.00  0.00    +0.000 A 
ATOM     38  C   UNL     1     112.321 128.535 137.371  0.00  0.00    +0.000 A 
ATOM     39  C   UNL     1     112.284 130.169 137.595  0.00  0.00    +0.000 A 
ATOM     40  C   UNL     1     112.779 129.028 136.893  0.00  0.00    +0.000 A 
ATOM     41  C   UNL     1     112.760 129.844 137.005  0.00  0.00    +0.000 A 
ENDBRANCH  26  36
ENDBRANCH  20  25
ENDBRANCH   8  20
BRANCH   7  42
ATOM     42  C   UNL     1     110.205 126.298 135.944  0.00  0.00    +0.000 C 
BRANCH  42  43
ATOM     43  O   UNL     1     110.467 125.752 136.504  0.00  0.00    +0.000 OA
BRANCH  43  45
ATOM     44  O   UNL     1     110.849 124.717 135.595  0.00  0.00    +0.000 OA
ATOM     45  C   UNL     1     110.989 125.152 136.282  0.00  0.00    +0.000 C 
BRANCH  45  46
ATOM     46  C   UNL     1     111.650 124.988 136.748  0.00  0.00    +0.000 C 
BRANCH  46  49
ATOM     47  O   UNL     1     111.953 123.594 136.829  0.00  0.00    +0.000 OA
ATOM     48  O   UNL     1     111.444 124.283 137.974  0.00  0.00    +0.000 OA
ATOM     49  C   UNL     1     111.682 124.289 137.184  0.00  0.00    +0.000 C 
ENDBRANCH  46  49
ENDBRANCH  45  46
ENDBRANCH  43  45
ENDBRANCH  42  43
ENDBRANCH   7  42
TORSDOF 10
ENDMDL
MODEL 4
REMARK VINA RESULT:      -9.5      1.905      4.477
REMARK  Name = 44258003
REMARK  10 active torsions:
REMARK  status: ('A' for Active; 'I' for Inactive)
REMARK    1  A    between atoms: O_1  and  C_20
REMARK    2  A    between atoms: O_1  and  C_23
REMARK    3  A    between atoms: O_5  and  C_25
REMARK    4  A    between atoms: O_5  and  C_32
REMARK    5  A    between atoms: O_10  and  C_30
REMARK    6  A    between atoms: O_10  and  C_35
REMARK    7  A    between atoms: C_24  and  C_30
REMARK    8  A    between atoms: C_33  and  C_37
REMARK    9  A    between atoms: C_35  and  C_39
REMARK   10  A    between atoms: C_39  and  C_46
REMARK                            x       y       z     vdW  Elec       q    Type
REMARK                         _______ _______ _______ _____ _____    ______ ____
ROOT
ATOM      1  O   UNL     1     110.947 128.493 138.592  0.00  0.00    +0.000 OA
ATOM      2  O   UNL     1     110.112 126.210 139.058  0.00  0.00    +0.000 OA
ATOM      3  O   UNL     1     109.164 127.519 139.389  0.00  0.00    +0.000 OA
ATOM      4  C   UNL     1     111.143 127.077 138.582  0.00  0.00    +0.000 C 
ATOM      5  C   UNL     1     110.390 126.971 138.903  0.00  0.00    +0.000 C 
ATOM      6  C   UNL     1     109.916 127.625 139.068  0.00  0.00    +0.000 C 
ATOM      7  C   UNL     1     110.195 128.386 138.913  0.00  0.00    +0.000 C 
ATOM      8  C   UNL     1     111.421 127.838 138.426  0.00  0.00    +0.000 C 
ENDROOT
BRANCH   4   9
ATOM      9  O   UNL     1     111.617 126.423 138.416  0.00  0.00    +0.000 OA
BRANCH   9  14
ATOM     10  O   UNL     1     110.921 126.221 137.184  0.00  0.00    +0.000 OA
ATOM     11  O   UNL     1     112.417 124.997 138.197  0.00  0.00    +0.000 OA
ATOM     12  O   UNL     1     112.121 124.083 136.856  0.00  0.00    +0.000 OA
ATOM     13  O   UNL     1     111.025 124.594 135.734  0.00  0.00    +0.000 OA
ATOM     14  C   UNL     1     111.469 125.966 137.746  0.00  0.00    +0.000 C 
ATOM     15  C   UNL     1     111.869 125.252 137.636  0.00  0.00    +0.000 C 
ATOM     16  C   UNL     1     111.722 124.795 136.965  0.00  0.00    +0.000 C 
ATOM     17  C   UNL     1     111.173 125.052 136.404  0.00  0.00    +0.000 C 
ATOM     18  C   UNL     1     110.773 125.764 136.514  0.00  0.00    +0.000 C 
ATOM     19  C   UNL     1     110.225 126.021 135.953  0.00  0.00    +0.000 C 
ENDBRANCH   9  14
ENDBRANCH   4   9
BRANCH   8  20
ATOM     20  O   UNL     1     112.174 127.945 138.106  0.00  0.00    +0.000 OA
BRANCH  20  25
ATOM     21  O   UNL     1     113.435 129.726 138.100  0.00  0.00    +0.000 OA
ATOM     22  O   UNL     1     112.522 128.085 139.712  0.00  0.00    +0.000 OA
ATOM     23  O   UNL     1     113.170 128.760 140.811  0.00  0.00    +0.000 OA
ATOM     24  O   UNL     1     114.773 131.139 140.267  0.00  0.00    +0.000 OA
ATOM     25  C   UNL     1     112.652 128.562 138.372  0.00  0.00    +0.000 A 
ATOM     26  C   UNL     1     112.957 129.109 137.834  0.00  0.00    +0.000 A 
ATOM     27  C   UNL     1     112.826 128.632 139.175  0.00  0.00    +0.000 A 
ATOM     28  C   UNL     1     113.305 129.249 139.441  0.00  0.00    +0.000 A 
ATOM     29  C   UNL     1     113.610 129.796 138.904  0.00  0.00    +0.000 A 
ATOM     30  C   UNL     1     113.479 129.311 140.281  0.00  0.00    +0.000 A 
ATOM     31  C   UNL     1     114.109 130.443 139.169  0.00  0.00    +0.000 A 
ATOM     32  C   UNL     1     113.977 129.952 140.564  0.00  0.00    +0.000 A 
ATOM     33  C   UNL     1     114.294 130.521 140.004  0.00  0.00    +0.000 A 
BRANCH  26  36
ATOM     34  O   UNL     1     111.396 129.870 135.564  0.00  0.00    +0.000 OA
ATOM     35  O   UNL     1     112.262 128.830 134.620  0.00  0.00    +0.000 OA
ATOM     36  C   UNL     1     112.783 129.039 137.031  0.00  0.00    +0.000 A 
ATOM     37  C   UNL     1     112.176 129.490 136.699  0.00  0.00    +0.000 A 
ATOM     38  C   UNL     1     113.216 128.519 136.559  0.00  0.00    +0.000 A 
ATOM     39  C   UNL     1     112.003 129.420 135.896  0.00  0.00    +0.000 A 
ATOM     40  C   UNL     1     113.042 128.449 135.755  0.00  0.00    +0.000 A 
ATOM     41  C   UNL     1     112.435 128.900 135.424  0.00  0.00    +0.000 A 
ENDBRANCH  26  36
ENDBRANCH  20  25
ENDBRANCH   8  20
BRANCH   7  42
ATOM     42  C   UNL     1     109.720 129.041 139.079  0.00  0.00    +0.000 C 
BRANCH  42  43
ATOM     43  O   UNL     1     109.518 129.566 138.476  0.00  0.00    +0.000 OA
BRANCH  43  45
ATOM     44  O   UNL     1     108.540 130.277 139.239  0.00  0.00    +0.000 OA
ATOM     45  C   UNL     1     109.124 130.269 138.656  0.00  0.00    +0.000 C 
BRANCH  45  46
ATOM     46  C   UNL     1     109.316 130.963 138.254  0.00  0.00    +0.000 C 
BRANCH  46  49
ATOM     47  O   UNL     1     108.275 131.254 137.318  0.00  0.00    +0.000 OA
ATOM     48  O   UNL     1     108.555 132.167 138.382  0.00  0.00    +0.000 OA
ATOM     49  C   UNL     1     108.716 131.462 137.985  0.00  0.00    +0.000 C 
ENDBRANCH  46  49
ENDBRANCH  45  46
ENDBRANCH  43  45
ENDBRANCH  42  43
ENDBRANCH   7  42
TORSDOF 10
ENDMDL
MODEL 5
REMARK VINA RESULT:      -9.5      1.923      5.107
REMARK  Name = 44258003
REMARK  10 active torsions:
REMARK  status: ('A' for Active; 'I' for Inactive)
REMARK    1  A    between atoms: O_1  and  C_20
REMARK    2  A    between atoms: O_1  and  C_23
REMARK    3  A    between atoms: O_5  and  C_25
REMARK    4  A    between atoms: O_5  and  C_32
REMARK    5  A    between atoms: O_10  and  C_30
REMARK    6  A    between atoms: O_10  and  C_35
REMARK    7  A    between atoms: C_24  and  C_30
REMARK    8  A    between atoms: C_33  and  C_37
REMARK    9  A    between atoms: C_35  and  C_39
REMARK   10  A    between atoms: C_39  and  C_46
REMARK                            x       y       z     vdW  Elec       q    Type
REMARK                         _______ _______ _______ _____ _____    ______ ____
ROOT
ATOM      1  O   UNL     1     112.635 128.370 139.328  0.00  0.00    +0.000 OA
ATOM      2  O   UNL     1     112.137 126.002 139.845  0.00  0.00    +0.000 OA
ATOM      3  O   UNL     1     113.086 126.887 140.865  0.00  0.00    +0.000 OA
ATOM      4  C   UNL     1     111.994 127.138 138.991  0.00  0.00    +0.000 C 
ATOM      5  C   UNL     1     112.303 126.791 139.673  0.00  0.00    +0.000 C 
ATOM      6  C   UNL     1     112.777 127.233 140.182  0.00  0.00    +0.000 C 
ATOM      7  C   UNL     1     112.943 128.023 140.010  0.00  0.00    +0.000 C 
ATOM      8  C   UNL     1     112.160 127.927 138.818  0.00  0.00    +0.000 C 
ENDROOT
BRANCH   4   9
ATOM      9  O   UNL     1     111.520 126.696 138.481  0.00  0.00    +0.000 OA
BRANCH   9  14
ATOM     10  O   UNL     1     112.686 126.089 137.920  0.00  0.00    +0.000 OA
ATOM     11  O   UNL     1     110.566 125.728 137.545  0.00  0.00    +0.000 OA
ATOM     12  O   UNL     1     111.255 124.638 136.516  0.00  0.00    +0.000 OA
ATOM     13  O   UNL     1     112.898 124.515 136.423  0.00  0.00    +0.000 OA
ATOM     14  C   UNL     1     111.865 126.151 137.967  0.00  0.00    +0.000 C 
ATOM     15  C   UNL     1     111.387 125.666 137.498  0.00  0.00    +0.000 C 
ATOM     16  C   UNL     1     111.732 125.121 136.983  0.00  0.00    +0.000 C 
ATOM     17  C   UNL     1     112.553 125.060 136.937  0.00  0.00    +0.000 C 
ATOM     18  C   UNL     1     113.030 125.543 137.405  0.00  0.00    +0.000 C 
ATOM     19  C   UNL     1     113.852 125.482 137.359  0.00  0.00    +0.000 C 
ENDBRANCH   9  14
ENDBRANCH   4   9
BRANCH   8  20
ATOM     20  O   UNL     1     111.852 128.275 138.136  0.00  0.00    +0.000 OA
BRANCH  20  25
ATOM     21  O   UNL     1     111.655 130.386 137.619  0.00  0.00    +0.000 OA
ATOM     22  O   UNL     1     110.742 128.766 139.253  0.00  0.00    +0.000 OA
ATOM     23  O   UNL     1     109.918 129.789 139.850  0.00  0.00    +0.000 OA
ATOM     24  O   UNL     1     110.019 132.501 138.773  0.00  0.00    +0.000 OA
ATOM     25  C   UNL     1     111.601 129.060 138.150  0.00  0.00    +0.000 A 
ATOM     26  C   UNL     1     111.906 129.600 137.605  0.00  0.00    +0.000 A 
ATOM     27  C   UNL     1     111.047 129.306 138.708  0.00  0.00    +0.000 A 
ATOM     28  C   UNL     1     110.796 130.092 138.723  0.00  0.00    +0.000 A 
ATOM     29  C   UNL     1     111.099 130.632 138.178  0.00  0.00    +0.000 A 
ATOM     30  C   UNL     1     110.216 130.336 139.309  0.00  0.00    +0.000 A 
ATOM     31  C   UNL     1     110.846 131.453 138.183  0.00  0.00    +0.000 A 
ATOM     32  C   UNL     1     109.951 131.153 139.329  0.00  0.00    +0.000 A 
ATOM     33  C   UNL     1     110.268 131.715 138.762  0.00  0.00    +0.000 A 
BRANCH  26  36
ATOM     34  O   UNL     1     112.518 128.379 135.095  0.00  0.00    +0.000 OA
ATOM     35  O   UNL     1     114.127 128.618 135.371  0.00  0.00    +0.000 OA
ATOM     36  C   UNL     1     112.461 129.355 137.047  0.00  0.00    +0.000 A 
ATOM     37  C   UNL     1     112.212 128.989 136.350  0.00  0.00    +0.000 A 
ATOM     38  C   UNL     1     113.265 129.474 137.185  0.00  0.00    +0.000 A 
ATOM     39  C   UNL     1     112.767 128.744 135.792  0.00  0.00    +0.000 A 
ATOM     40  C   UNL     1     113.821 129.228 136.627  0.00  0.00    +0.000 A 
ATOM     41  C   UNL     1     113.571 128.863 135.930  0.00  0.00    +0.000 A 
ENDBRANCH  26  36
ENDBRANCH  20  25
ENDBRANCH   8  20
BRANCH   7  42
ATOM     42  C   UNL     1     113.418 128.466 140.520  0.00  0.00    +0.000 C 
BRANCH  42  43
ATOM     43  O   UNL     1     113.872 129.088 140.223  0.00  0.00    +0.000 OA
BRANCH  43  45
ATOM     44  O   UNL     1     113.730 129.881 141.404  0.00  0.00    +0.000 OA
ATOM     45  C   UNL     1     114.163 129.666 140.736  0.00  0.00    +0.000 C 
BRANCH  45  46
ATOM     46  C   UNL     1     114.888 130.028 140.579  0.00  0.00    +0.000 C 
BRANCH  46  49
ATOM     47  O   UNL     1     114.599 131.235 139.870  0.00  0.00    +0.000 OA
ATOM     48  O   UNL     1     115.310 131.286 141.109  0.00  0.00    +0.000 OA
ATOM     49  C   UNL     1     114.932 130.850 140.519  0.00  0.00    +0.000 C 
ENDBRANCH  46  49
ENDBRANCH  45  46
ENDBRANCH  43  45
ENDBRANCH  42  43
ENDBRANCH   7  42
TORSDOF 10
ENDMDL
MODEL 6
REMARK VINA RESULT:      -9.5      1.756      4.070
REMARK  Name = 44258003
REMARK  10 active torsions:
REMARK  status: ('A' for Active; 'I' for Inactive)
REMARK    1  A    between atoms: O_1  and  C_20
REMARK    2  A    between atoms: O_1  and  C_23
REMARK    3  A    between atoms: O_5  and  C_25
REMARK    4  A    between atoms: O_5  and  C_32
REMARK    5  A    between atoms: O_10  and  C_30
REMARK    6  A    between atoms: O_10  and  C_35
REMARK    7  A    between atoms: C_24  and  C_30
REMARK    8  A    between atoms: C_33  and  C_37
REMARK    9  A    between atoms: C_35  and  C_39
REMARK   10  A    between atoms: C_39  and  C_46
REMARK                            x       y       z     vdW  Elec       q    Type
REMARK                         _______ _______ _______ _____ _____    ______ ____
ROOT
ATOM      1  O   UNL     1     111.574 128.161 138.330  0.00  0.00    +0.000 OA
ATOM      2  O   UNL     1     109.273 128.986 138.720  0.00  0.00    +0.000 OA
ATOM      3  O   UNL     1     110.355 128.940 139.965  0.00  0.00    +0.000 OA
ATOM      4  C   UNL     1     110.265 128.459 137.837  0.00  0.00    +0.000 C 
ATOM      5  C   UNL     1     110.040 128.711 138.590  0.00  0.00    +0.000 C 
ATOM      6  C   UNL     1     110.580 128.688 139.212  0.00  0.00    +0.000 C 
ATOM      7  C   UNL     1     111.347 128.413 139.082  0.00  0.00    +0.000 C 
ATOM      8  C   UNL     1     111.032 128.184 137.707  0.00  0.00    +0.000 C 
ENDROOT
BRANCH   4   9
ATOM      9  O   UNL     1     109.725 128.482 137.215  0.00  0.00    +0.000 OA
BRANCH   9  14
ATOM     10  O   UNL     1     110.000 129.870 137.011  0.00  0.00    +0.000 OA
ATOM     11  O   UNL     1     108.455 128.581 136.166  0.00  0.00    +0.000 OA
ATOM     12  O   UNL     1     108.096 130.018 135.438  0.00  0.00    +0.000 OA
ATOM     13  O   UNL     1     109.007 131.356 135.759  0.00  0.00    +0.000 OA
ATOM     14  C   UNL     1     109.545 129.201 136.851  0.00  0.00    +0.000 C 
ATOM     15  C   UNL     1     108.910 129.250 136.326  0.00  0.00    +0.000 C 
ATOM     16  C   UNL     1     108.730 129.968 135.962  0.00  0.00    +0.000 C 
ATOM     17  C   UNL     1     109.186 130.637 136.123  0.00  0.00    +0.000 C 
ATOM     18  C   UNL     1     109.821 130.588 136.647  0.00  0.00    +0.000 C 
ATOM     19  C   UNL     1     110.276 131.257 136.809  0.00  0.00    +0.000 C 
ENDBRANCH   9  14
ENDBRANCH   4   9
BRANCH   8  20
ATOM     20  O   UNL     1     111.258 127.932 136.955  0.00  0.00    +0.000 OA
BRANCH  20  25
ATOM     21  O   UNL     1     112.898 126.611 136.382  0.00  0.00    +0.000 OA
ATOM     22  O   UNL     1     110.734 126.497 137.578  0.00  0.00    +0.000 OA
ATOM     23  O   UNL     1     110.908 125.085 137.819  0.00  0.00    +0.000 OA
ATOM     24  O   UNL     1     113.317 123.764 136.830  0.00  0.00    +0.000 OA
ATOM     25  C   UNL     1     111.718 127.252 136.868  0.00  0.00    +0.000 A 
ATOM     26  C   UNL     1     112.439 127.291 136.469  0.00  0.00    +0.000 A 
ATOM     27  C   UNL     1     111.455 126.536 137.179  0.00  0.00    +0.000 A 
ATOM     28  C   UNL     1     111.915 125.856 137.092  0.00  0.00    +0.000 A 
ATOM     29  C   UNL     1     112.636 125.893 136.694  0.00  0.00    +0.000 A 
ATOM     30  C   UNL     1     111.631 125.114 137.421  0.00  0.00    +0.000 A 
ATOM     31  C   UNL     1     113.123 125.192 136.596  0.00  0.00    +0.000 A 
ATOM     32  C   UNL     1     112.104 124.402 137.334  0.00  0.00    +0.000 A 
ATOM     33  C   UNL     1     112.856 124.442 136.918  0.00  0.00    +0.000 A 
BRANCH  26  36
ATOM     34  O   UNL     1     114.072 129.628 136.670  0.00  0.00    +0.000 OA
ATOM     35  O   UNL     1     113.488 130.160 135.221  0.00  0.00    +0.000 OA
ATOM     36  C   UNL     1     112.701 128.007 136.157  0.00  0.00    +0.000 A 
ATOM     37  C   UNL     1     113.255 128.459 136.569  0.00  0.00    +0.000 A 
ATOM     38  C   UNL     1     112.409 128.274 135.433  0.00  0.00    +0.000 A 
ATOM     39  C   UNL     1     113.517 129.176 136.258  0.00  0.00    +0.000 A 
ATOM     40  C   UNL     1     112.671 128.992 135.121  0.00  0.00    +0.000 A 
ATOM     41  C   UNL     1     113.225 129.442 135.533  0.00  0.00    +0.000 A 
ENDBRANCH  26  36
ENDBRANCH  20  25
ENDBRANCH   8  20
BRANCH   7  42
ATOM     42  C   UNL     1     111.889 128.390 139.705  0.00  0.00    +0.000 C 
BRANCH  42  43
ATOM     43  O   UNL     1     112.577 127.940 139.635  0.00  0.00    +0.000 OA
BRANCH  43  45
ATOM     44  O   UNL     1     113.418 128.624 140.567  0.00  0.00    +0.000 OA
ATOM     45  C   UNL     1     113.121 127.920 140.256  0.00  0.00    +0.000 C 
BRANCH  45  46
ATOM     46  C   UNL     1     113.366 127.196 140.566  0.00  0.00    +0.000 C 
BRANCH  46  49
ATOM     47  O   UNL     1     114.727 127.054 140.978  0.00  0.00    +0.000 OA
ATOM     48  O   UNL     1     114.301 126.524 139.720  0.00  0.00    +0.000 OA
ATOM     49  C   UNL     1     114.131 126.924 140.421  0.00  0.00    +0.000 C 
ENDBRANCH  46  49
ENDBRANCH  45  46
ENDBRANCH  43  45
ENDBRANCH  42  43
ENDBRANCH   7  42
TORSDOF 10
ENDMDL
MODEL 7
REMARK VINA RESULT:      -9.4      2.329      4.711
REMARK  Name = 44258003
REMARK  10 active torsions:
REMARK  status: ('A' for Active; 'I' for Inactive)
REMARK    1  A    between atoms: O_1  and  C_20
REMARK    2  A    between atoms: O_1  and  C_23
REMARK    3  A    between atoms: O_5  and  C_25
REMARK    4  A    between atoms: O_5  and  C_32
REMARK    5  A    between atoms: O_10  and  C_30
REMARK    6  A    between atoms: O_10  and  C_35
REMARK    7  A    between atoms: C_24  and  C_30
REMARK    8  A    between atoms: C_33  and  C_37
REMARK    9  A    between atoms: C_35  and  C_39
REMARK   10  A    between atoms: C_39  and  C_46
REMARK                            x       y       z     vdW  Elec       q    Type
REMARK                         _______ _______ _______ _____ _____    ______ ____
ROOT
ATOM      1  O   UNL     1     109.664 128.752 136.683  0.00  0.00    +0.000 OA
ATOM      2  O   UNL     1     108.536 126.553 136.545  0.00  0.00    +0.000 OA
ATOM      3  O   UNL     1     108.039 127.797 135.582  0.00  0.00    +0.000 OA
ATOM      4  C   UNL     1     109.537 127.396 137.119  0.00  0.00    +0.000 C 
ATOM      5  C   UNL     1     108.912 127.286 136.591  0.00  0.00    +0.000 C 
ATOM      6  C   UNL     1     108.664 127.908 136.110  0.00  0.00    +0.000 C 
ATOM      7  C   UNL     1     109.040 128.640 136.156  0.00  0.00    +0.000 C 
ATOM      8  C   UNL     1     109.913 128.129 137.165  0.00  0.00    +0.000 C 
ENDROOT
BRANCH   4   9
ATOM      9  O   UNL     1     109.785 126.775 137.600  0.00  0.00    +0.000 OA
BRANCH   9  14
ATOM     10  O   UNL     1     110.493 126.200 136.500  0.00  0.00    +0.000 OA
ATOM     11  O   UNL     1     110.406 125.620 138.602  0.00  0.00    +0.000 OA
ATOM     12  O   UNL     1     111.425 124.469 138.003  0.00  0.00    +0.000 OA
ATOM     13  O   UNL     1     111.822 124.472 136.401  0.00  0.00    +0.000 OA
ATOM     14  C   UNL     1     110.294 126.199 137.301  0.00  0.00    +0.000 C 
ATOM     15  C   UNL     1     110.605 125.621 137.802  0.00  0.00    +0.000 C 
ATOM     16  C   UNL     1     111.115 125.046 137.502  0.00  0.00    +0.000 C 
ATOM     17  C   UNL     1     111.313 125.048 136.701  0.00  0.00    +0.000 C 
ATOM     18  C   UNL     1     111.003 125.625 136.200  0.00  0.00    +0.000 C 
ATOM     19  C   UNL     1     111.201 125.627 135.399  0.00  0.00    +0.000 C 
ENDBRANCH   9  14
ENDBRANCH   4   9
BRANCH   8  20
ATOM     20  O   UNL     1     110.537 128.240 137.692  0.00  0.00    +0.000 OA
BRANCH  20  25
ATOM     21  O   UNL     1     111.354 130.105 138.479  0.00  0.00    +0.000 OA
ATOM     22  O   UNL     1     109.289 128.750 138.644  0.00  0.00    +0.000 OA
ATOM     23  O   UNL     1     108.700 129.705 139.551  0.00  0.00    +0.000 OA
ATOM     24  O   UNL     1     110.229 132.075 140.306  0.00  0.00    +0.000 OA
ATOM     25  C   UNL     1     110.602 128.947 138.113  0.00  0.00    +0.000 A 
ATOM     26  C   UNL     1     111.290 129.399 138.058  0.00  0.00    +0.000 A 
ATOM     27  C   UNL     1     109.978 129.201 138.589  0.00  0.00    +0.000 A 
ATOM     28  C   UNL     1     110.042 129.908 139.010  0.00  0.00    +0.000 A 
ATOM     29  C   UNL     1     110.730 130.360 138.955  0.00  0.00    +0.000 A 
ATOM     30  C   UNL     1     109.385 130.163 139.502  0.00  0.00    +0.000 A 
ATOM     31  C   UNL     1     110.808 131.098 139.389  0.00  0.00    +0.000 A 
ATOM     32  C   UNL     1     109.445 130.898 139.943  0.00  0.00    +0.000 A 
ATOM     33  C   UNL     1     110.163 131.368 139.886  0.00  0.00    +0.000 A 
BRANCH  26  36
ATOM     34  O   UNL     1     112.705 129.482 135.576  0.00  0.00    +0.000 OA
ATOM     35  O   UNL     1     113.787 128.380 136.156  0.00  0.00    +0.000 OA
ATOM     36  C   UNL     1     111.914 129.144 137.583  0.00  0.00    +0.000 A 
ATOM     37  C   UNL     1     111.997 129.440 136.817  0.00  0.00    +0.000 A 
ATOM     38  C   UNL     1     112.455 128.593 137.873  0.00  0.00    +0.000 A 
ATOM     39  C   UNL     1     112.621 129.186 136.342  0.00  0.00    +0.000 A 
ATOM     40  C   UNL     1     113.080 128.338 137.397  0.00  0.00    +0.000 A 
ATOM     41  C   UNL     1     113.162 128.635 136.632  0.00  0.00    +0.000 A 
ENDBRANCH  26  36
ENDBRANCH  20  25
ENDBRANCH   8  20
BRANCH   7  42
ATOM     42  C   UNL     1     108.791 129.263 135.674  0.00  0.00    +0.000 C 
BRANCH  42  43
ATOM     43  O   UNL     1     108.776 130.033 135.971  0.00  0.00    +0.000 OA
BRANCH  43  45
ATOM     44  O   UNL     1     108.948 130.613 134.675  0.00  0.00    +0.000 OA
ATOM     45  C   UNL     1     108.686 130.671 135.455  0.00  0.00    +0.000 C 
BRANCH  45  46
ATOM     46  C   UNL     1     108.332 131.368 135.721  0.00  0.00    +0.000 C 
BRANCH  46  49
ATOM     47  O   UNL     1     108.816 132.556 135.091  0.00  0.00    +0.000 OA
ATOM     48  O   UNL     1     109.167 132.272 136.448  0.00  0.00    +0.000 OA
ATOM     49  C   UNL     1     108.772 132.065 135.754  0.00  0.00    +0.000 C 
ENDBRANCH  46  49
ENDBRANCH  45  46
ENDBRANCH  43  45
ENDBRANCH  42  43
ENDBRANCH   7  42
TORSDOF 10
ENDMDL
MODEL 8
REMARK VINA RESULT:      -9.4      1.650      4.628
REMARK  Name = 44258003
REMARK  10 active torsions:
REMARK  status: ('A' for Active; 'I' for Inactive)
REMARK    1  A    between atoms: O_1  and  C_20
REMARK    2  A    between atoms: O_1  and  C_23
REMARK    3  A    between atoms: O_5  and  C_25
REMARK    4  A    between atoms: O_5  and  C_32
REMARK    5  A    between atoms: O_10  and  C_30
REMARK    6  A    between atoms: O_10  and  C_35
REMARK    7  A    between atoms: C_24  and  C_30
REMARK    8  A    between atoms: C_33  and  C_37
REMARK    9  A    between atoms: C_35  and  C_39
REMARK   10  A    between atoms: C_39  and  C_46
REMARK                            x       y       z     vdW  Elec       q    Type
REMARK                         _______ _______ _______ _____ _____    ______ ____
ROOT
ATOM      1  O   UNL     1     113.153 127.486 139.119  0.00  0.00    +0.000 OA
ATOM      2  O   UNL     1     113.845 127.779 141.477  0.00  0.00    +0.000 OA
ATOM      3  O   UNL     1     114.433 126.514 140.596  0.00  0.00    +0.000 OA
ATOM      4  C   UNL     1     113.090 128.217 140.346  0.00  0.00    +0.000 C 
ATOM      5  C   UNL     1     113.614 127.681 140.691  0.00  0.00    +0.000 C 
ATOM      6  C   UNL     1     113.908 127.049 140.251  0.00  0.00    +0.000 C 
ATOM      7  C   UNL     1     113.677 126.951 139.465  0.00  0.00    +0.000 C 
ATOM      8  C   UNL     1     112.859 128.119 139.560  0.00  0.00    +0.000 C 
ENDROOT
BRANCH   4   9
ATOM      9  O   UNL     1     112.796 128.849 140.786  0.00  0.00    +0.000 OA
BRANCH   9  14
ATOM     10  O   UNL     1     114.009 129.572 140.564  0.00  0.00    +0.000 OA
ATOM     11  O   UNL     1     112.270 130.044 141.796  0.00  0.00    +0.000 OA
ATOM     12  O   UNL     1     113.220 131.363 142.078  0.00  0.00    +0.000 OA
ATOM     13  O   UNL     1     114.696 131.488 141.351  0.00  0.00    +0.000 OA
ATOM     14  C   UNL     1     113.271 129.509 140.927  0.00  0.00    +0.000 C 
ATOM     15  C   UNL     1     113.008 130.107 141.432  0.00  0.00    +0.000 C 
ATOM     16  C   UNL     1     113.483 130.767 141.574  0.00  0.00    +0.000 C 
ATOM     17  C   UNL     1     114.221 130.828 141.210  0.00  0.00    +0.000 C 
ATOM     18  C   UNL     1     114.484 130.232 140.705  0.00  0.00    +0.000 C 
ATOM     19  C   UNL     1     115.222 130.294 140.341  0.00  0.00    +0.000 C 
ENDBRANCH   9  14
ENDBRANCH   4   9
BRANCH   8  20
ATOM     20  O   UNL     1     112.335 128.654 139.214  0.00  0.00    +0.000 OA
BRANCH  20  25
ATOM     21  O   UNL     1     111.121 128.437 137.414  0.00  0.00    +0.000 OA
ATOM     22  O   UNL     1     111.282 127.475 139.689  0.00  0.00    +0.000 OA
ATOM     23  O   UNL     1     110.167 126.597 139.428  0.00  0.00    +0.000 OA
ATOM     24  O   UNL     1     108.864 126.695 136.817  0.00  0.00    +0.000 OA
ATOM     25  C   UNL     1     111.755 128.385 138.693  0.00  0.00    +0.000 A 
ATOM     26  C   UNL     1     111.701 128.706 137.935  0.00  0.00    +0.000 A 
ATOM     27  C   UNL     1     111.229 127.796 138.930  0.00  0.00    +0.000 A 
ATOM     28  C   UNL     1     110.649 127.527 138.409  0.00  0.00    +0.000 A 
ATOM     29  C   UNL     1     110.594 127.847 137.651  0.00  0.00    +0.000 A 
ATOM     30  C   UNL     1     110.106 126.912 138.668  0.00  0.00    +0.000 A 
ATOM     31  C   UNL     1     109.994 127.575 137.099  0.00  0.00    +0.000 A 
ATOM     32  C   UNL     1     109.499 126.628 138.130  0.00  0.00    +0.000 A 
ATOM     33  C   UNL     1     109.443 126.962 137.340  0.00  0.00    +0.000 A 
BRANCH  26  36
ATOM     34  O   UNL     1     112.467 131.458 137.864  0.00  0.00    +0.000 OA
ATOM     35  O   UNL     1     113.806 131.063 136.984  0.00  0.00    +0.000 OA
ATOM     36  C   UNL     1     112.227 129.295 137.697  0.00  0.00    +0.000 A 
ATOM     37  C   UNL     1     112.084 130.082 137.899  0.00  0.00    +0.000 A 
ATOM     38  C   UNL     1     112.896 129.097 137.258  0.00  0.00    +0.000 A 
ATOM     39  C   UNL     1     112.610 130.671 137.662  0.00  0.00    +0.000 A 
ATOM     40  C   UNL     1     113.423 129.687 137.020  0.00  0.00    +0.000 A 
ATOM     41  C   UNL     1     113.279 130.473 137.222  0.00  0.00    +0.000 A 
ENDBRANCH  26  36
ENDBRANCH  20  25
ENDBRANCH   8  20
BRANCH   7  42
ATOM     42  C   UNL     1     113.971 126.318 139.024  0.00  0.00    +0.000 C 
BRANCH  42  43
ATOM     43  O   UNL     1     113.756 126.233 138.232  0.00  0.00    +0.000 OA
BRANCH  43  45
ATOM     44  O   UNL     1     114.724 125.294 137.757  0.00  0.00    +0.000 OA
ATOM     45  C   UNL     1     113.938 125.536 137.828  0.00  0.00    +0.000 C 
BRANCH  45  46
ATOM     46  C   UNL     1     113.335 125.083 137.496  0.00  0.00    +0.000 C 
BRANCH  46  49
ATOM     47  O   UNL     1     113.641 124.385 136.287  0.00  0.00    +0.000 OA
ATOM     48  O   UNL     1     112.850 125.576 136.245  0.00  0.00    +0.000 OA
ATOM     49  C   UNL     1     113.275 125.015 136.676  0.00  0.00    +0.000 C 
ENDBRANCH  46  49
ENDBRANCH  45  46
ENDBRANCH  43  45
ENDBRANCH  42  43
ENDBRANCH   7  42
TORSDOF 10
ENDMDL
MODEL 9
REMARK VINA RESULT:      -9.4      1.839      4.670
REMARK  Name = 44258003
REMARK  10 active torsions:
REMARK  status: ('A' for Active; 'I' for Inactive)
REMARK    1  A    between atoms: O_1  and  C_20
REMARK    2  A    between atoms: O_1  and  C_23
REMARK    3  A    between atoms: O_5  and  C_25
REMARK    4  A    between atoms: O_5  and  C_32
REMARK    5  A    between atoms: O_10  and  C_30
REMARK    6  A    between atoms: O_10  and  C_35
REMARK    7  A    between atoms: C_24  and  C_30
REMARK    8  A    between atoms: C_33  and  C_37
REMARK    9  A    between atoms: C_35  and  C_39
REMARK   10  A    between atoms: C_39  and  C_46
REMARK                            x       y       z     vdW  Elec       q    Type
REMARK                         _______ _______ _______ _____ _____    ______ ____
ROOT
ATOM      1  O   UNL     1     112.410 128.520 136.958  0.00  0.00    +0.000 OA
ATOM      2  O   UNL     1     111.519 129.526 134.879  0.00  0.00    +0.000 OA
ATOM      3  O   UNL     1     112.670 128.346 134.798  0.00  0.00    +0.000 OA
ATOM      4  C   UNL     1     111.537 129.445 136.306  0.00  0.00    +0.000 C 
ATOM      5  C   UNL     1     111.816 129.190 135.572  0.00  0.00    +0.000 C 
ATOM      6  C   UNL     1     112.391 128.601 135.531  0.00  0.00    +0.000 C 
ATOM      7  C   UNL     1     112.688 128.266 136.224  0.00  0.00    +0.000 C 
ATOM      8  C   UNL     1     111.834 129.110 136.999  0.00  0.00    +0.000 C 
ENDROOT
BRANCH   4   9
ATOM      9  O   UNL     1     110.962 130.035 136.347  0.00  0.00    +0.000 OA
BRANCH   9  14
ATOM     10  O   UNL     1     109.949 129.067 136.067  0.00  0.00    +0.000 OA
ATOM     11  O   UNL     1     109.819 131.225 136.364  0.00  0.00    +0.000 OA
ATOM     12  O   UNL     1     108.235 130.852 136.093  0.00  0.00    +0.000 OA
ATOM     13  O   UNL     1     107.794 129.288 135.805  0.00  0.00    +0.000 OA
ATOM     14  C   UNL     1     110.170 129.848 136.211  0.00  0.00    +0.000 C 
ATOM     15  C   UNL     1     109.598 130.444 136.220  0.00  0.00    +0.000 C 
ATOM     16  C   UNL     1     108.806 130.257 136.084  0.00  0.00    +0.000 C 
ATOM     17  C   UNL     1     108.586 129.475 135.940  0.00  0.00    +0.000 C 
ATOM     18  C   UNL     1     109.156 128.880 135.932  0.00  0.00    +0.000 C 
ATOM     19  C   UNL     1     108.936 128.098 135.787  0.00  0.00    +0.000 C 
ENDBRANCH   9  14
ENDBRANCH   4   9
BRANCH   8  20
ATOM     20  O   UNL     1     111.556 129.364 137.732  0.00  0.00    +0.000 OA
BRANCH  20  25
ATOM     21  O   UNL     1     112.449 129.143 139.711  0.00  0.00    +0.000 OA
ATOM     22  O   UNL     1     112.900 130.307 137.574  0.00  0.00    +0.000 OA
ATOM     23  O   UNL     1     114.111 130.881 138.109  0.00  0.00    +0.000 OA
ATOM     24  O   UNL     1     114.880 130.265 140.858  0.00  0.00    +0.000 OA
ATOM     25  C   UNL     1     112.078 129.448 138.366  0.00  0.00    +0.000 A 
ATOM     26  C   UNL     1     111.927 129.059 139.078  0.00  0.00    +0.000 A 
ATOM     27  C   UNL     1     112.750 129.919 138.287  0.00  0.00    +0.000 A 
ATOM     28  C   UNL     1     113.272 130.002 138.920  0.00  0.00    +0.000 A 
ATOM     29  C   UNL     1     113.122 129.615 139.632  0.00  0.00    +0.000 A 
ATOM     30  C   UNL     1     113.969 130.497 138.825  0.00  0.00    +0.000 A 
ATOM     31  C   UNL     1     113.659 129.694 140.299  0.00  0.00    +0.000 A 
ATOM     32  C   UNL     1     114.517 130.588 139.481  0.00  0.00    +0.000 A 
ATOM     33  C   UNL     1     114.360 130.183 140.223  0.00  0.00    +0.000 A 
BRANCH  26  36
ATOM     34  O   UNL     1     109.128 128.806 139.595  0.00  0.00    +0.000 OA
ATOM     35  O   UNL     1     109.239 127.172 139.395  0.00  0.00    +0.000 OA
ATOM     36  C   UNL     1     111.256 128.588 139.157  0.00  0.00    +0.000 A 
ATOM     37  C   UNL     1     110.528 128.932 139.336  0.00  0.00    +0.000 A 
ATOM     38  C   UNL     1     111.311 127.771 139.057  0.00  0.00    +0.000 A 
ATOM     39  C   UNL     1     109.856 128.461 139.416  0.00  0.00    +0.000 A 
ATOM     40  C   UNL     1     110.639 127.298 139.136  0.00  0.00    +0.000 A 
ATOM     41  C   UNL     1     109.911 127.644 139.316  0.00  0.00    +0.000 A 
ENDBRANCH  26  36
ENDBRANCH  20  25
ENDBRANCH   8  20
BRANCH   7  42
ATOM     42  C   UNL     1     113.264 127.675 136.183  0.00  0.00    +0.000 C 
BRANCH  42  43
ATOM     43  O   UNL     1     113.206 127.010 136.667  0.00  0.00    +0.000 OA
BRANCH  43  45
ATOM     44  O   UNL     1     114.556 126.646 136.368  0.00  0.00    +0.000 OA
ATOM     45  C   UNL     1     113.816 126.453 136.677  0.00  0.00    +0.000 C 
BRANCH  45  46
ATOM     46  C   UNL     1     113.684 125.704 136.996  0.00  0.00    +0.000 C 
BRANCH  46  49
ATOM     47  O   UNL     1     114.133 125.681 138.353  0.00  0.00    +0.000 OA
ATOM     48  O   UNL     1     114.757 124.841 137.379  0.00  0.00    +0.000 OA
ATOM     49  C   UNL     1     114.192 125.409 137.575  0.00  0.00    +0.000 C 
ENDBRANCH  46  49
ENDBRANCH  45  46
ENDBRANCH  43  45
ENDBRANCH  42  43
ENDBRANCH   7  42
TORSDOF 10
ENDMDL
MODEL 10
REMARK VINA RESULT:      -9.3      1.507      4.125
REMARK  Name = 44258003
REMARK  10 active torsions:
REMARK  status: ('A' for Active; 'I' for Inactive)
REMARK    1  A    between atoms: O_1  and  C_20
REMARK    2  A    between atoms: O_1  and  C_23
REMARK    3  A    between atoms: O_5  and  C_25
REMARK    4  A    between atoms: O_5  and  C_32
REMARK    5  A    between atoms: O_10  and  C_30
REMARK    6  A    between atoms: O_10  and  C_35
REMARK    7  A    between atoms: C_24  and  C_30
REMARK    8  A    between atoms: C_33  and  C_37
REMARK    9  A    between atoms: C_35  and  C_39
REMARK   10  A    between atoms: C_39  and  C_46
REMARK                            x       y       z     vdW  Elec       q    Type
REMARK                         _______ _______ _______ _____ _____    ______ ____
ROOT
ATOM      1  O   UNL     1     110.883 127.444 138.468  0.00  0.00    +0.000 OA
ATOM      2  O   UNL     1     110.642 129.770 137.657  0.00  0.00    +0.000 OA
ATOM      3  O   UNL     1     109.369 129.014 138.386  0.00  0.00    +0.000 OA
ATOM      4  C   UNL     1     111.439 128.598 137.833  0.00  0.00    +0.000 C 
ATOM      5  C   UNL     1     110.722 128.994 137.928  0.00  0.00    +0.000 C 
ATOM      6  C   UNL     1     110.086 128.617 138.292  0.00  0.00    +0.000 C 
ATOM      7  C   UNL     1     110.167 127.841 138.562  0.00  0.00    +0.000 C 
ATOM      8  C   UNL     1     111.520 127.822 138.103  0.00  0.00    +0.000 C 
ENDROOT
BRANCH   4   9
ATOM      9  O   UNL     1     112.075 128.975 137.469  0.00  0.00    +0.000 OA
BRANCH   9  14
ATOM     10  O   UNL     1     112.390 129.632 138.699  0.00  0.00    +0.000 OA
ATOM     11  O   UNL     1     113.365 129.710 136.748  0.00  0.00    +0.000 OA
ATOM     12  O   UNL     1     114.323 130.734 137.617  0.00  0.00    +0.000 OA
ATOM     13  O   UNL     1     113.992 131.023 139.207  0.00  0.00    +0.000 OA
ATOM     14  C   UNL     1     112.555 129.487 137.904  0.00  0.00    +0.000 C 
ATOM     15  C   UNL     1     113.200 129.855 137.543  0.00  0.00    +0.000 C 
ATOM     16  C   UNL     1     113.679 130.367 137.977  0.00  0.00    +0.000 C 
ATOM     17  C   UNL     1     113.513 130.511 138.773  0.00  0.00    +0.000 C 
ATOM     18  C   UNL     1     112.869 130.144 139.133  0.00  0.00    +0.000 C 
ATOM     19  C   UNL     1     112.703 130.288 139.929  0.00  0.00    +0.000 C 
ENDBRANCH   9  14
ENDBRANCH   4   9
BRANCH   8  20
ATOM     20  O   UNL     1     112.236 127.424 138.010  0.00  0.00    +0.000 OA
BRANCH  20  25
ATOM     21  O   UNL     1     112.639 125.281 138.081  0.00  0.00    +0.000 OA
ATOM     22  O   UNL     1     111.462 126.916 136.644  0.00  0.00    +0.000 OA
ATOM     23  O   UNL     1     111.063 125.872 135.732  0.00  0.00    +0.000 OA
ATOM     24  O   UNL     1     111.870 123.121 136.285  0.00  0.00    +0.000 OA
ATOM     25  C   UNL     1     112.242 126.625 137.806  0.00  0.00    +0.000 A 
ATOM     26  C   UNL     1     112.634 126.080 138.285  0.00  0.00    +0.000 A 
ATOM     27  C   UNL     1     111.855 126.371 137.123  0.00  0.00    +0.000 A 
ATOM     28  C   UNL     1     111.860 125.572 136.919  0.00  0.00    +0.000 A 
ATOM     29  C   UNL     1     112.252 125.026 137.398  0.00  0.00    +0.000 A 
ATOM     30  C   UNL     1     111.452 125.319 136.205  0.00  0.00    +0.000 A 
ATOM     31  C   UNL     1     112.264 124.191 137.196  0.00  0.00    +0.000 A 
ATOM     32  C   UNL     1     111.454 124.488 135.987  0.00  0.00    +0.000 A 
ATOM     33  C   UNL     1     111.863 123.921 136.487  0.00  0.00    +0.000 A 
BRANCH  26  36
ATOM     34  O   UNL     1     112.634 126.538 141.106  0.00  0.00    +0.000 OA
ATOM     35  O   UNL     1     114.184 127.095 141.016  0.00  0.00    +0.000 OA
ATOM     36  C   UNL     1     113.021 126.334 138.967  0.00  0.00    +0.000 A 
ATOM     37  C   UNL     1     112.634 126.309 139.696  0.00  0.00    +0.000 A 
ATOM     38  C   UNL     1     113.796 126.612 138.922  0.00  0.00    +0.000 A 
ATOM     39  C   UNL     1     113.021 126.562 140.378  0.00  0.00    +0.000 A 
ATOM     40  C   UNL     1     114.184 126.867 139.605  0.00  0.00    +0.000 A 
ATOM     41  C   UNL     1     113.796 126.841 140.333  0.00  0.00    +0.000 A 
ENDBRANCH  26  36
ENDBRANCH  20  25
ENDBRANCH   8  20
BRANCH   7  42
ATOM     42  C   UNL     1     109.530 127.463 138.926  0.00  0.00    +0.000 C 
BRANCH  42  43
ATOM     43  O   UNL     1     109.661 126.966 139.572  0.00  0.00    +0.000 OA
BRANCH  43  45
ATOM     44  O   UNL     1     108.541 126.115 139.318  0.00  0.00    +0.000 OA
ATOM     45  C   UNL     1     109.052 126.483 139.851  0.00  0.00    +0.000 C 
BRANCH  45  46
ATOM     46  C   UNL     1     108.955 126.370 140.662  0.00  0.00    +0.000 C 
BRANCH  46  49
ATOM     47  O   UNL     1     109.577 125.133 141.017  0.00  0.00    +0.000 OA
ATOM     48  O   UNL     1     108.174 125.311 141.220  0.00  0.00    +0.000 OA
ATOM     49  C   UNL     1     108.901 125.605 140.966  0.00  0.00    +0.000 C 
ENDBRANCH  46  49
ENDBRANCH  45  46
ENDBRANCH  43  45
ENDBRANCH  42  43
ENDBRANCH   7  42
TORSDOF 10
ENDMDL
