MODEL 1
REMARK VINA RESULT:     -10.6      0.000      0.000
REMARK  Name = 131831876
REMARK  12 active torsions:
REMARK  status: ('A' for Active; 'I' for Inactive)
REMARK    1  A    between atoms: O_1  and  C_22
REMARK    2  A    between atoms: O_1  and  C_26
REMARK    3  A    between atoms: O_7  and  C_28
REMARK    4  A    between atoms: O_7  and  C_34
REMARK    5  A    between atoms: O_10  and  C_32
REMARK    6  A    between atoms: O_10  and  C_41
REMARK    7  A    between atoms: O_12  and  C_38
REMARK    8  A    between atoms: O_12  and  C_46
REMARK    9  A    between atoms: C_23  and  C_31
REMARK   10  A    between atoms: C_29  and  C_32
REMARK   11  A    between atoms: C_37  and  C_42
REMARK   12  A    between atoms: C_49  and  C_50
REMARK                            x       y       z     vdW  Elec       q    Type
REMARK                         _______ _______ _______ _____ _____    ______ ____
ROOT
ATOM      1  O   UNL     1     104.828 127.731 142.955  0.00  0.00    +0.000 OA
ATOM      2  O   UNL     1     107.482 126.692 142.481  0.00  0.00    +0.000 OA
ATOM      3  O   UNL     1     106.964 127.793 141.705  0.00  0.00    +0.000 OA
ATOM      4  C   UNL     1     105.922 126.062 143.960  0.00  0.00    +0.000 A 
ATOM      5  C   UNL     1     105.300 126.622 143.764  0.00  0.00    +0.000 A 
ATOM      6  C   UNL     1     106.663 126.083 143.526  0.00  0.00    +0.000 A 
ATOM      7  C   UNL     1     105.428 127.196 143.138  0.00  0.00    +0.000 A 
ATOM      8  C   UNL     1     106.773 126.664 142.903  0.00  0.00    +0.000 A 
ATOM      9  C   UNL     1     106.140 127.216 142.721  0.00  0.00    +0.000 A 
ATOM     10  C   UNL     1     106.252 127.772 142.121  0.00  0.00    +0.000 A 
ATOM     11  C   UNL     1     104.939 128.287 142.355  0.00  0.00    +0.000 A 
ATOM     12  C   UNL     1     105.651 128.307 141.939  0.00  0.00    +0.000 A 
ENDROOT
BRANCH  11  14
ATOM     13  C   UNL     1     103.138 129.893 141.806  0.00  0.00    +0.000 A 
ATOM     14  C   UNL     1     104.339 128.822 142.172  0.00  0.00    +0.000 A 
ATOM     15  C   UNL     1     103.359 129.317 141.258  0.00  0.00    +0.000 A 
ATOM     16  C   UNL     1     103.518 129.933 142.537  0.00  0.00    +0.000 A 
ATOM     17  C   UNL     1     103.959 128.782 141.440  0.00  0.00    +0.000 A 
ATOM     18  C   UNL     1     104.119 129.398 142.720  0.00  0.00    +0.000 A 
BRANCH  13  19
ATOM     19  O   UNL     1     102.538 130.428 141.623  0.00  0.00    +0.000 OA
BRANCH  19  28
ATOM     20  O   UNL     1     103.358 131.377 140.937  0.00  0.00    +0.000 OA
ATOM     21  O   UNL     1     102.019 133.225 141.894  0.00  0.00    +0.000 OA
ATOM     22  O   UNL     1     103.285 133.558 140.890  0.00  0.00    +0.000 OA
ATOM     23  O   UNL     1     101.646 131.660 142.260  0.00  0.00    +0.000 OA
ATOM     24  C   UNL     1     102.465 132.609 141.575  0.00  0.00    +0.000 C 
ATOM     25  C   UNL     1     103.099 132.775 141.073  0.00  0.00    +0.000 C 
ATOM     26  C   UNL     1     102.279 131.826 141.758  0.00  0.00    +0.000 C 
ATOM     27  C   UNL     1     103.545 132.159 140.754  0.00  0.00    +0.000 C 
ATOM     28  C   UNL     1     102.725 131.211 141.439  0.00  0.00    +0.000 C 
BRANCH  27  31
ATOM     29  O   UNL     1     104.057 132.377 139.437  0.00  0.00    +0.000 OA
ATOM     30  O   UNL     1     104.933 132.439 140.564  0.00  0.00    +0.000 OA
ATOM     31  C   UNL     1     104.178 132.325 140.252  0.00  0.00    +0.000 C 
ENDBRANCH  27  31
ENDBRANCH  19  28
ENDBRANCH  13  19
ENDBRANCH  11  14
BRANCH   4  32
ATOM     32  O   UNL     1     105.808 125.507 144.560  0.00  0.00    +0.000 OA
BRANCH  32  39
ATOM     33  O   UNL     1     106.530 126.340 145.470  0.00  0.00    +0.000 OA
ATOM     34  O   UNL     1     106.331 124.601 147.220  0.00  0.00    +0.000 OA
ATOM     35  O   UNL     1     107.120 126.013 147.546  0.00  0.00    +0.000 OA
ATOM     36  C   UNL     1     106.069 125.054 145.889  0.00  0.00    +0.000 C 
ATOM     37  C   UNL     1     106.398 125.181 146.636  0.00  0.00    +0.000 C 
ATOM     38  C   UNL     1     106.792 125.887 146.799  0.00  0.00    +0.000 C 
ATOM     39  C   UNL     1     106.136 125.634 145.306  0.00  0.00    +0.000 C 
ATOM     40  C   UNL     1     106.858 126.466 146.215  0.00  0.00    +0.000 C 
BRANCH  36  41
ATOM     41  O   UNL     1     105.675 124.348 145.727  0.00  0.00    +0.000 OA
BRANCH  41  47
ATOM     42  O   UNL     1     104.444 124.790 146.399  0.00  0.00    +0.000 OA
ATOM     43  O   UNL     1     102.883 123.642 146.360  0.00  0.00    +0.000 OA
ATOM     44  O   UNL     1     104.633 122.933 145.362  0.00  0.00    +0.000 OA
ATOM     45  C   UNL     1     103.670 123.738 146.128  0.00  0.00    +0.000 C 
ATOM     46  C   UNL     1     104.409 123.601 145.791  0.00  0.00    +0.000 C 
ATOM     47  C   UNL     1     104.889 124.252 145.959  0.00  0.00    +0.000 C 
ATOM     48  C   UNL     1     103.690 124.472 146.504  0.00  0.00    +0.000 C 
BRANCH  45  50
ATOM     49  O   UNL     1     102.651 122.739 146.036  0.00  0.00    +0.000 OA
ATOM     50  C   UNL     1     103.406 123.010 145.842  0.00  0.00    +0.000 C 
ENDBRANCH  45  50
ENDBRANCH  41  47
ENDBRANCH  36  41
BRANCH  40  51
ATOM     51  C   UNL     1     107.253 127.172 146.379  0.00  0.00    +0.000 C 
BRANCH  51  52
ATOM     52  O   UNL     1     106.878 127.895 146.249  0.00  0.00    +0.000 OA
BRANCH  52  54
ATOM     53  O   UNL     1     108.149 128.536 146.127  0.00  0.00    +0.000 OA
ATOM     54  C   UNL     1     107.325 128.581 146.147  0.00  0.00    +0.000 C 
ATOM     55  C   UNL     1     106.950 129.310 146.065  0.00  0.00    +0.000 C 
ENDBRANCH  52  54
ENDBRANCH  51  52
ENDBRANCH  40  51
ENDBRANCH  32  39
ENDBRANCH   4  32
TORSDOF 12
ENDMDL
MODEL 2
REMARK VINA RESULT:     -10.5      1.747      3.547
REMARK  Name = 131831876
REMARK  12 active torsions:
REMARK  status: ('A' for Active; 'I' for Inactive)
REMARK    1  A    between atoms: O_1  and  C_22
REMARK    2  A    between atoms: O_1  and  C_26
REMARK    3  A    between atoms: O_7  and  C_28
REMARK    4  A    between atoms: O_7  and  C_34
REMARK    5  A    between atoms: O_10  and  C_32
REMARK    6  A    between atoms: O_10  and  C_41
REMARK    7  A    between atoms: O_12  and  C_38
REMARK    8  A    between atoms: O_12  and  C_46
REMARK    9  A    between atoms: C_23  and  C_31
REMARK   10  A    between atoms: C_29  and  C_32
REMARK   11  A    between atoms: C_37  and  C_42
REMARK   12  A    between atoms: C_49  and  C_50
REMARK                            x       y       z     vdW  Elec       q    Type
REMARK                         _______ _______ _______ _____ _____    ______ ____
ROOT
ATOM      1  O   UNL     1     103.297 130.054 142.514  0.00  0.00    +0.000 OA
ATOM      2  O   UNL     1     103.969 128.154 140.444  0.00  0.00    +0.000 OA
ATOM      3  O   UNL     1     103.039 129.228 140.195  0.00  0.00    +0.000 OA
ATOM      4  C   UNL     1     104.680 128.299 142.564  0.00  0.00    +0.000 A 
ATOM      5  C   UNL     1     104.240 128.992 142.818  0.00  0.00    +0.000 A 
ATOM      6  C   UNL     1     104.590 128.012 141.759  0.00  0.00    +0.000 A 
ATOM      7  C   UNL     1     103.717 129.389 142.264  0.00  0.00    +0.000 A 
ATOM      8  C   UNL     1     104.062 128.422 141.219  0.00  0.00    +0.000 A 
ATOM      9  C   UNL     1     103.631 129.114 141.492  0.00  0.00    +0.000 A 
ATOM     10  C   UNL     1     103.125 129.503 140.968  0.00  0.00    +0.000 A 
ATOM     11  C   UNL     1     102.792 130.444 141.991  0.00  0.00    +0.000 A 
ATOM     12  C   UNL     1     102.706 130.168 141.219  0.00  0.00    +0.000 A 
ENDROOT
BRANCH  11  14
ATOM     13  C   UNL     1     101.533 132.438 142.740  0.00  0.00    +0.000 A 
ATOM     14  C   UNL     1     102.372 131.109 142.241  0.00  0.00    +0.000 A 
ATOM     15  C   UNL     1     102.226 132.217 143.130  0.00  0.00    +0.000 A 
ATOM     16  C   UNL     1     101.260 131.994 142.101  0.00  0.00    +0.000 A 
ATOM     17  C   UNL     1     102.645 131.553 142.881  0.00  0.00    +0.000 A 
ATOM     18  C   UNL     1     101.679 131.329 141.851  0.00  0.00    +0.000 A 
BRANCH  13  19
ATOM     19  O   UNL     1     101.113 133.103 142.990  0.00  0.00    +0.000 OA
BRANCH  19  28
ATOM     20  O   UNL     1     101.677 134.024 142.053  0.00  0.00    +0.000 OA
ATOM     21  O   UNL     1     101.661 135.793 143.784  0.00  0.00    +0.000 OA
ATOM     22  O   UNL     1     102.229 136.124 142.271  0.00  0.00    +0.000 OA
ATOM     23  O   UNL     1     101.103 134.282 144.143  0.00  0.00    +0.000 OA
ATOM     24  C   UNL     1     101.666 135.203 143.207  0.00  0.00    +0.000 C 
ATOM     25  C   UNL     1     101.950 135.369 142.451  0.00  0.00    +0.000 C 
ATOM     26  C   UNL     1     101.387 134.448 143.387  0.00  0.00    +0.000 C 
ATOM     27  C   UNL     1     101.956 134.780 141.873  0.00  0.00    +0.000 C 
ATOM     28  C   UNL     1     101.392 133.859 142.811  0.00  0.00    +0.000 C 
BRANCH  27  31
ATOM     29  O   UNL     1     103.042 134.858 140.949  0.00  0.00    +0.000 OA
ATOM     30  O   UNL     1     101.719 135.196 140.528  0.00  0.00    +0.000 OA
ATOM     31  C   UNL     1     102.239 134.944 141.117  0.00  0.00    +0.000 C 
ENDBRANCH  27  31
ENDBRANCH  19  28
ENDBRANCH  13  19
ENDBRANCH  11  14
BRANCH   4  32
ATOM     32  O   UNL     1     105.185 127.911 143.089  0.00  0.00    +0.000 OA
BRANCH  32  39
ATOM     33  O   UNL     1     106.320 128.764 142.924  0.00  0.00    +0.000 OA
ATOM     34  O   UNL     1     107.815 126.794 143.028  0.00  0.00    +0.000 OA
ATOM     35  O   UNL     1     108.452 128.303 142.829  0.00  0.00    +0.000 OA
ATOM     36  C   UNL     1     106.499 127.353 143.058  0.00  0.00    +0.000 C 
ATOM     37  C   UNL     1     107.317 127.451 142.994  0.00  0.00    +0.000 C 
ATOM     38  C   UNL     1     107.634 128.205 142.894  0.00  0.00    +0.000 C 
ATOM     39  C   UNL     1     106.001 128.009 143.024  0.00  0.00    +0.000 C 
ATOM     40  C   UNL     1     107.136 128.862 142.860  0.00  0.00    +0.000 C 
BRANCH  36  41
ATOM     41  O   UNL     1     106.182 126.598 143.158  0.00  0.00    +0.000 OA
BRANCH  41  47
ATOM     42  O   UNL     1     106.383 126.622 144.614  0.00  0.00    +0.000 OA
ATOM     43  O   UNL     1     105.898 125.064 145.660  0.00  0.00    +0.000 OA
ATOM     44  O   UNL     1     105.576 124.955 143.552  0.00  0.00    +0.000 OA
ATOM     45  C   UNL     1     105.933 125.400 144.907  0.00  0.00    +0.000 C 
ATOM     46  C   UNL     1     105.868 125.506 144.092  0.00  0.00    +0.000 C 
ATOM     47  C   UNL     1     106.146 126.262 143.911  0.00  0.00    +0.000 C 
ATOM     48  C   UNL     1     106.251 126.089 145.230  0.00  0.00    +0.000 C 
BRANCH  45  50
ATOM     49  O   UNL     1     105.549 124.156 145.497  0.00  0.00    +0.000 OA
ATOM     50  C   UNL     1     105.619 124.641 144.832  0.00  0.00    +0.000 C 
ENDBRANCH  45  50
ENDBRANCH  41  47
ENDBRANCH  36  41
BRANCH  40  51
ATOM     51  C   UNL     1     107.455 129.616 142.760  0.00  0.00    +0.000 C 
BRANCH  51  52
ATOM     52  O   UNL     1     107.056 130.276 143.052  0.00  0.00    +0.000 OA
BRANCH  52  54
ATOM     53  O   UNL     1     107.480 131.366 142.232  0.00  0.00    +0.000 OA
ATOM     54  C   UNL     1     107.388 131.027 142.978  0.00  0.00    +0.000 C 
ATOM     55  C   UNL     1     107.630 131.440 143.650  0.00  0.00    +0.000 C 
ENDBRANCH  52  54
ENDBRANCH  51  52
ENDBRANCH  40  51
ENDBRANCH  32  39
ENDBRANCH   4  32
TORSDOF 12
ENDMDL
MODEL 3
REMARK VINA RESULT:     -10.4      5.891      9.626
REMARK  Name = 131831876
REMARK  12 active torsions:
REMARK  status: ('A' for Active; 'I' for Inactive)
REMARK    1  A    between atoms: O_1  and  C_22
REMARK    2  A    between atoms: O_1  and  C_26
REMARK    3  A    between atoms: O_7  and  C_28
REMARK    4  A    between atoms: O_7  and  C_34
REMARK    5  A    between atoms: O_10  and  C_32
REMARK    6  A    between atoms: O_10  and  C_41
REMARK    7  A    between atoms: O_12  and  C_38
REMARK    8  A    between atoms: O_12  and  C_46
REMARK    9  A    between atoms: C_23  and  C_31
REMARK   10  A    between atoms: C_29  and  C_32
REMARK   11  A    between atoms: C_37  and  C_42
REMARK   12  A    between atoms: C_49  and  C_50
REMARK                            x       y       z     vdW  Elec       q    Type
REMARK                         _______ _______ _______ _____ _____    ______ ____
ROOT
ATOM      1  O   UNL     1     109.047 126.196 139.608  0.00  0.00    +0.000 OA
ATOM      2  O   UNL     1     111.858 126.779 139.930  0.00  0.00    +0.000 OA
ATOM      3  O   UNL     1     111.088 126.209 141.008  0.00  0.00    +0.000 OA
ATOM      4  C   UNL     1     110.512 127.068 138.163  0.00  0.00    +0.000 A 
ATOM      5  C   UNL     1     109.775 126.770 138.490  0.00  0.00    +0.000 A 
ATOM      6  C   UNL     1     111.220 127.072 138.649  0.00  0.00    +0.000 A 
ATOM      7  C   UNL     1     109.757 126.480 139.299  0.00  0.00    +0.000 A 
ATOM      8  C   UNL     1     111.183 126.779 139.455  0.00  0.00    +0.000 A 
ATOM      9  C   UNL     1     110.437 126.485 139.765  0.00  0.00    +0.000 A 
ATOM     10  C   UNL     1     110.408 126.204 140.542  0.00  0.00    +0.000 A 
ATOM     11  C   UNL     1     109.017 125.915 140.384  0.00  0.00    +0.000 A 
ATOM     12  C   UNL     1     109.698 125.920 140.850  0.00  0.00    +0.000 A 
ENDROOT
BRANCH  11  14
ATOM     13  C   UNL     1     106.888 125.061 141.311  0.00  0.00    +0.000 A 
ATOM     14  C   UNL     1     108.307 125.631 140.693  0.00  0.00    +0.000 A 
ATOM     15  C   UNL     1     107.033 125.873 141.291  0.00  0.00    +0.000 A 
ATOM     16  C   UNL     1     107.453 124.534 141.021  0.00  0.00    +0.000 A 
ATOM     17  C   UNL     1     107.743 126.158 140.982  0.00  0.00    +0.000 A 
ATOM     18  C   UNL     1     108.163 124.818 140.712  0.00  0.00    +0.000 A 
BRANCH  13  19
ATOM     19  O   UNL     1     106.178 124.776 141.620  0.00  0.00    +0.000 OA
BRANCH  19  28
ATOM     20  O   UNL     1     105.414 124.853 140.414  0.00  0.00    +0.000 OA
ATOM     21  O   UNL     1     104.269 122.741 141.007  0.00  0.00    +0.000 OA
ATOM     22  O   UNL     1     103.887 123.521 139.604  0.00  0.00    +0.000 OA
ATOM     23  O   UNL     1     105.414 123.369 142.015  0.00  0.00    +0.000 OA
ATOM     24  C   UNL     1     104.650 123.445 140.809  0.00  0.00    +0.000 C 
ATOM     25  C   UNL     1     104.459 123.835 140.108  0.00  0.00    +0.000 C 
ATOM     26  C   UNL     1     105.223 123.759 141.313  0.00  0.00    +0.000 C 
ATOM     27  C   UNL     1     104.841 124.539 139.910  0.00  0.00    +0.000 C 
ATOM     28  C   UNL     1     105.605 124.462 141.116  0.00  0.00    +0.000 C 
BRANCH  27  31
ATOM     29  O   UNL     1     104.982 124.682 138.495  0.00  0.00    +0.000 OA
ATOM     30  O   UNL     1     104.128 125.567 139.222  0.00  0.00    +0.000 OA
ATOM     31  C   UNL     1     104.651 124.929 139.209  0.00  0.00    +0.000 C 
ENDBRANCH  27  31
ENDBRANCH  19  28
ENDBRANCH  13  19
ENDBRANCH  11  14
BRANCH   4  32
ATOM     32  O   UNL     1     110.538 127.347 137.387  0.00  0.00    +0.000 OA
BRANCH  32  39
ATOM     33  O   UNL     1     111.010 126.144 136.777  0.00  0.00    +0.000 OA
ATOM     34  O   UNL     1     109.551 126.563 134.822  0.00  0.00    +0.000 OA
ATOM     35  O   UNL     1     110.509 125.220 134.864  0.00  0.00    +0.000 OA
ATOM     36  C   UNL     1     110.045 126.955 136.105  0.00  0.00    +0.000 C 
ATOM     37  C   UNL     1     110.037 126.423 135.474  0.00  0.00    +0.000 C 
ATOM     38  C   UNL     1     110.516 125.752 135.496  0.00  0.00    +0.000 C 
ATOM     39  C   UNL     1     110.531 126.816 136.757  0.00  0.00    +0.000 C 
ATOM     40  C   UNL     1     111.003 125.612 136.147  0.00  0.00    +0.000 C 
BRANCH  36  41
ATOM     41  O   UNL     1     109.566 127.626 136.083  0.00  0.00    +0.000 OA
BRANCH  41  47
ATOM     42  O   UNL     1     110.547 128.406 135.315  0.00  0.00    +0.000 OA
ATOM     43  O   UNL     1     110.036 130.139 134.612  0.00  0.00    +0.000 OA
ATOM     44  O   UNL     1     108.557 129.066 135.718  0.00  0.00    +0.000 OA
ATOM     45  C   UNL     1     109.797 129.476 135.043  0.00  0.00    +0.000 C 
ATOM     46  C   UNL     1     109.340 128.951 135.485  0.00  0.00    +0.000 C 
ATOM     47  C   UNL     1     109.804 128.289 135.653  0.00  0.00    +0.000 C 
ATOM     48  C   UNL     1     110.544 129.140 134.938  0.00  0.00    +0.000 C 
BRANCH  45  50
ATOM     49  O   UNL     1     109.240 130.719 134.612  0.00  0.00    +0.000 OA
ATOM     50  C   UNL     1     109.161 130.000 135.010  0.00  0.00    +0.000 C 
ENDBRANCH  45  50
ENDBRANCH  41  47
ENDBRANCH  36  41
BRANCH  40  51
ATOM     51  C   UNL     1     111.481 124.940 136.168  0.00  0.00    +0.000 C 
BRANCH  51  52
ATOM     52  O   UNL     1     111.673 124.592 136.890  0.00  0.00    +0.000 OA
BRANCH  52  54
ATOM     53  O   UNL     1     113.039 124.193 136.760  0.00  0.00    +0.000 OA
ATOM     54  C   UNL     1     112.253 124.006 136.925  0.00  0.00    +0.000 C 
ATOM     55  C   UNL     1     112.047 123.233 137.124  0.00  0.00    +0.000 C 
ENDBRANCH  52  54
ENDBRANCH  51  52
ENDBRANCH  40  51
ENDBRANCH  32  39
ENDBRANCH   4  32
TORSDOF 12
ENDMDL
MODEL 4
REMARK VINA RESULT:     -10.2      8.223     11.606
REMARK  Name = 131831876
REMARK  12 active torsions:
REMARK  status: ('A' for Active; 'I' for Inactive)
REMARK    1  A    between atoms: O_1  and  C_22
REMARK    2  A    between atoms: O_1  and  C_26
REMARK    3  A    between atoms: O_7  and  C_28
REMARK    4  A    between atoms: O_7  and  C_34
REMARK    5  A    between atoms: O_10  and  C_32
REMARK    6  A    between atoms: O_10  and  C_41
REMARK    7  A    between atoms: O_12  and  C_38
REMARK    8  A    between atoms: O_12  and  C_46
REMARK    9  A    between atoms: C_23  and  C_31
REMARK   10  A    between atoms: C_29  and  C_32
REMARK   11  A    between atoms: C_37  and  C_42
REMARK   12  A    between atoms: C_49  and  C_50
REMARK                            x       y       z     vdW  Elec       q    Type
REMARK                         _______ _______ _______ _____ _____    ______ ____
ROOT
ATOM      1  O   UNL     1     112.689 129.127 136.773  0.00  0.00    +0.000 OA
ATOM      2  O   UNL     1     113.723 131.824 136.829  0.00  0.00    +0.000 OA
ATOM      3  O   UNL     1     114.610 130.688 136.770  0.00  0.00    +0.000 OA
ATOM      4  C   UNL     1     111.609 131.083 136.863  0.00  0.00    +0.000 A 
ATOM      5  C   UNL     1     111.751 130.235 136.833  0.00  0.00    +0.000 A 
ATOM      6  C   UNL     1     112.276 131.624 136.862  0.00  0.00    +0.000 A 
ATOM      7  C   UNL     1     112.558 129.941 136.802  0.00  0.00    +0.000 A 
ATOM      8  C   UNL     1     113.076 131.312 136.830  0.00  0.00    +0.000 A 
ATOM      9  C   UNL     1     113.198 130.462 136.801  0.00  0.00    +0.000 A 
ATOM     10  C   UNL     1     113.970 130.168 136.771  0.00  0.00    +0.000 A 
ATOM     11  C   UNL     1     113.459 128.834 136.744  0.00  0.00    +0.000 A 
ATOM     12  C   UNL     1     114.099 129.354 136.742  0.00  0.00    +0.000 A 
ENDROOT
BRANCH  11  14
ATOM     13  C   UNL     1     113.850 126.391 136.658  0.00  0.00    +0.000 A 
ATOM     14  C   UNL     1     113.589 128.019 136.715  0.00  0.00    +0.000 A 
ATOM     15  C   UNL     1     113.925 126.846 135.974  0.00  0.00    +0.000 A 
ATOM     16  C   UNL     1     113.644 126.751 137.372  0.00  0.00    +0.000 A 
ATOM     17  C   UNL     1     113.795 127.659 136.002  0.00  0.00    +0.000 A 
ATOM     18  C   UNL     1     113.514 127.566 137.400  0.00  0.00    +0.000 A 
BRANCH  13  19
ATOM     19  O   UNL     1     113.980 125.577 136.630  0.00  0.00    +0.000 OA
BRANCH  19  28
ATOM     20  O   UNL     1     112.604 125.296 136.364  0.00  0.00    +0.000 OA
ATOM     21  O   UNL     1     112.895 123.015 137.280  0.00  0.00    +0.000 OA
ATOM     22  O   UNL     1     111.422 123.493 136.710  0.00  0.00    +0.000 OA
ATOM     23  O   UNL     1     114.174 124.057 137.240  0.00  0.00    +0.000 OA
ATOM     24  C   UNL     1     112.798 123.775 136.975  0.00  0.00    +0.000 C 
ATOM     25  C   UNL     1     112.062 124.014 136.690  0.00  0.00    +0.000 C 
ATOM     26  C   UNL     1     113.437 124.296 136.955  0.00  0.00    +0.000 C 
ATOM     27  C   UNL     1     111.964 124.775 136.385  0.00  0.00    +0.000 C 
ATOM     28  C   UNL     1     113.341 125.056 136.650  0.00  0.00    +0.000 C 
BRANCH  27  31
ATOM     29  O   UNL     1     110.724 125.458 136.579  0.00  0.00    +0.000 OA
ATOM     30  O   UNL     1     110.997 124.811 135.334  0.00  0.00    +0.000 OA
ATOM     31  C   UNL     1     111.229 125.015 136.100  0.00  0.00    +0.000 C 
ENDBRANCH  27  31
ENDBRANCH  19  28
ENDBRANCH  13  19
ENDBRANCH  11  14
BRANCH   4  32
ATOM     32  O   UNL     1     110.838 131.373 136.893  0.00  0.00    +0.000 OA
BRANCH  32  39
ATOM     33  O   UNL     1     110.766 131.084 138.290  0.00  0.00    +0.000 OA
ATOM     34  O   UNL     1     108.665 132.381 138.451  0.00  0.00    +0.000 OA
ATOM     35  O   UNL     1     109.293 131.659 139.795  0.00  0.00    +0.000 OA
ATOM     36  C   UNL     1     109.752 131.877 137.672  0.00  0.00    +0.000 C 
ATOM     37  C   UNL     1     109.365 131.949 138.398  0.00  0.00    +0.000 C 
ATOM     38  C   UNL     1     109.680 131.587 139.069  0.00  0.00    +0.000 C 
ATOM     39  C   UNL     1     110.452 131.445 137.618  0.00  0.00    +0.000 C 
ATOM     40  C   UNL     1     110.380 131.155 139.015  0.00  0.00    +0.000 C 
BRANCH  36  41
ATOM     41  O   UNL     1     109.437 132.239 137.000  0.00  0.00    +0.000 OA
BRANCH  41  47
ATOM     42  O   UNL     1     108.409 131.202 136.824  0.00  0.00    +0.000 OA
ATOM     43  O   UNL     1     107.292 131.238 135.241  0.00  0.00    +0.000 OA
ATOM     44  O   UNL     1     108.761 132.776 135.426  0.00  0.00    +0.000 OA
ATOM     45  C   UNL     1     107.907 131.602 135.654  0.00  0.00    +0.000 C 
ATOM     46  C   UNL     1     108.511 132.123 135.863  0.00  0.00    +0.000 C 
ATOM     47  C   UNL     1     108.821 131.875 136.587  0.00  0.00    +0.000 C 
ATOM     48  C   UNL     1     107.844 131.032 136.248  0.00  0.00    +0.000 C 
BRANCH  45  50
ATOM     49  O   UNL     1     107.030 132.033 134.612  0.00  0.00    +0.000 OA
ATOM     50  C   UNL     1     107.777 132.031 134.962  0.00  0.00    +0.000 C 
ENDBRANCH  45  50
ENDBRANCH  41  47
ENDBRANCH  36  41
BRANCH  40  51
ATOM     51  C   UNL     1     110.694 130.794 139.688  0.00  0.00    +0.000 C 
BRANCH  51  52
ATOM     52  O   UNL     1     111.483 130.917 139.893  0.00  0.00    +0.000 OA
BRANCH  52  54
ATOM     53  O   UNL     1     111.958 130.897 141.240  0.00  0.00    +0.000 OA
ATOM     54  C   UNL     1     111.814 130.507 140.527  0.00  0.00    +0.000 C 
ATOM     55  C   UNL     1     112.002 129.708 140.450  0.00  0.00    +0.000 C 
ENDBRANCH  52  54
ENDBRANCH  51  52
ENDBRANCH  40  51
ENDBRANCH  32  39
ENDBRANCH   4  32
TORSDOF 12
ENDMDL
MODEL 5
REMARK VINA RESULT:     -10.2      2.692      3.908
REMARK  Name = 131831876
REMARK  12 active torsions:
REMARK  status: ('A' for Active; 'I' for Inactive)
REMARK    1  A    between atoms: O_1  and  C_22
REMARK    2  A    between atoms: O_1  and  C_26
REMARK    3  A    between atoms: O_7  and  C_28
REMARK    4  A    between atoms: O_7  and  C_34
REMARK    5  A    between atoms: O_10  and  C_32
REMARK    6  A    between atoms: O_10  and  C_41
REMARK    7  A    between atoms: O_12  and  C_38
REMARK    8  A    between atoms: O_12  and  C_46
REMARK    9  A    between atoms: C_23  and  C_31
REMARK   10  A    between atoms: C_29  and  C_32
REMARK   11  A    between atoms: C_37  and  C_42
REMARK   12  A    between atoms: C_49  and  C_50
REMARK                            x       y       z     vdW  Elec       q    Type
REMARK                         _______ _______ _______ _____ _____    ______ ____
ROOT
ATOM      1  O   UNL     1     104.352 129.224 142.249  0.00  0.00    +0.000 OA
ATOM      2  O   UNL     1     105.406 127.785 144.522  0.00  0.00    +0.000 OA
ATOM      3  O   UNL     1     104.711 129.037 144.691  0.00  0.00    +0.000 OA
ATOM      4  C   UNL     1     105.464 127.287 142.338  0.00  0.00    +0.000 A 
ATOM      5  C   UNL     1     105.044 127.968 142.022  0.00  0.00    +0.000 A 
ATOM      6  C   UNL     1     105.588 127.223 143.186  0.00  0.00    +0.000 A 
ATOM      7  C   UNL     1     104.754 128.574 142.558  0.00  0.00    +0.000 A 
ATOM      8  C   UNL     1     105.291 127.839 143.706  0.00  0.00    +0.000 A 
ATOM      9  C   UNL     1     104.874 128.511 143.372  0.00  0.00    +0.000 A 
ATOM     10  C   UNL     1     104.591 129.100 143.877  0.00  0.00    +0.000 A 
ATOM     11  C   UNL     1     104.069 129.812 142.754  0.00  0.00    +0.000 A 
ATOM     12  C   UNL     1     104.189 129.750 143.568  0.00  0.00    +0.000 A 
ENDROOT
BRANCH  11  14
ATOM     13  C   UNL     1     102.863 131.764 141.827  0.00  0.00    +0.000 A 
ATOM     14  C   UNL     1     103.667 130.463 142.445  0.00  0.00    +0.000 A 
ATOM     15  C   UNL     1     102.721 131.010 141.525  0.00  0.00    +0.000 A 
ATOM     16  C   UNL     1     103.407 131.868 142.439  0.00  0.00    +0.000 A 
ATOM     17  C   UNL     1     103.123 130.359 141.833  0.00  0.00    +0.000 A 
ATOM     18  C   UNL     1     103.809 131.217 142.748  0.00  0.00    +0.000 A 
BRANCH  13  19
ATOM     19  O   UNL     1     102.460 132.415 141.518  0.00  0.00    +0.000 OA
BRANCH  19  28
ATOM     20  O   UNL     1     103.411 132.706 140.491  0.00  0.00    +0.000 OA
ATOM     21  O   UNL     1     102.966 135.125 140.765  0.00  0.00    +0.000 OA
ATOM     22  O   UNL     1     104.064 134.609 139.646  0.00  0.00    +0.000 OA
ATOM     23  O   UNL     1     102.164 134.027 141.701  0.00  0.00    +0.000 OA
ATOM     24  C   UNL     1     103.114 134.318 140.673  0.00  0.00    +0.000 C 
ATOM     25  C   UNL     1     103.663 134.061 140.114  0.00  0.00    +0.000 C 
ATOM     26  C   UNL     1     102.713 133.769 141.141  0.00  0.00    +0.000 C 
ATOM     27  C   UNL     1     103.812 133.254 140.023  0.00  0.00    +0.000 C 
ATOM     28  C   UNL     1     102.861 132.964 141.050  0.00  0.00    +0.000 C 
BRANCH  27  31
ATOM     29  O   UNL     1     105.160 132.951 139.661  0.00  0.00    +0.000 OA
ATOM     30  O   UNL     1     104.109 132.782 138.708  0.00  0.00    +0.000 OA
ATOM     31  C   UNL     1     104.360 132.996 139.464  0.00  0.00    +0.000 C 
ENDBRANCH  27  31
ENDBRANCH  19  28
ENDBRANCH  13  19
ENDBRANCH  11  14
BRANCH   4  32
ATOM     32  O   UNL     1     105.745 126.700 141.831  0.00  0.00    +0.000 OA
BRANCH  32  39
ATOM     33  O   UNL     1     107.025 127.308 141.645  0.00  0.00    +0.000 OA
ATOM     34  O   UNL     1     108.045 125.072 141.351  0.00  0.00    +0.000 OA
ATOM     35  O   UNL     1     108.985 126.426 141.263  0.00  0.00    +0.000 OA
ATOM     36  C   UNL     1     106.894 125.887 141.591  0.00  0.00    +0.000 C 
ATOM     37  C   UNL     1     107.705 125.818 141.449  0.00  0.00    +0.000 C 
ATOM     38  C   UNL     1     108.174 126.495 141.405  0.00  0.00    +0.000 C 
ATOM     39  C   UNL     1     106.554 126.632 141.689  0.00  0.00    +0.000 C 
ATOM     40  C   UNL     1     107.834 127.240 141.503  0.00  0.00    +0.000 C 
BRANCH  36  41
ATOM     41  O   UNL     1     106.425 125.210 141.635  0.00  0.00    +0.000 OA
BRANCH  41  47
ATOM     42  O   UNL     1     106.216 125.168 140.180  0.00  0.00    +0.000 OA
ATOM     43  O   UNL     1     105.120 123.759 139.423  0.00  0.00    +0.000 OA
ATOM     44  O   UNL     1     105.378 123.754 141.543  0.00  0.00    +0.000 OA
ATOM     45  C   UNL     1     105.438 124.086 140.112  0.00  0.00    +0.000 C 
ATOM     46  C   UNL     1     105.626 124.214 140.904  0.00  0.00    +0.000 C 
ATOM     47  C   UNL     1     106.108 124.883 140.946  0.00  0.00    +0.000 C 
ATOM     48  C   UNL     1     105.802 124.676 139.664  0.00  0.00    +0.000 C 
BRANCH  45  50
ATOM     49  O   UNL     1     104.568 123.011 139.751  0.00  0.00    +0.000 OA
ATOM     50  C   UNL     1     104.994 123.424 140.325  0.00  0.00    +0.000 C 
ENDBRANCH  45  50
ENDBRANCH  41  47
ENDBRANCH  36  41
BRANCH  40  51
ATOM     51  C   UNL     1     108.305 127.916 141.459  0.00  0.00    +0.000 C 
BRANCH  51  52
ATOM     52  O   UNL     1     108.006 128.606 141.122  0.00  0.00    +0.000 OA
BRANCH  52  54
ATOM     53  O   UNL     1     108.961 129.489 140.531  0.00  0.00    +0.000 OA
ATOM     54  C   UNL     1     108.446 129.304 141.148  0.00  0.00    +0.000 C 
ATOM     55  C   UNL     1     108.371 129.816 141.790  0.00  0.00    +0.000 C 
ENDBRANCH  52  54
ENDBRANCH  51  52
ENDBRANCH  40  51
ENDBRANCH  32  39
ENDBRANCH   4  32
TORSDOF 12
ENDMDL
MODEL 6
REMARK VINA RESULT:     -10.2      6.728      8.593
REMARK  Name = 131831876
REMARK  12 active torsions:
REMARK  status: ('A' for Active; 'I' for Inactive)
REMARK    1  A    between atoms: O_1  and  C_22
REMARK    2  A    between atoms: O_1  and  C_26
REMARK    3  A    between atoms: O_7  and  C_28
REMARK    4  A    between atoms: O_7  and  C_34
REMARK    5  A    between atoms: O_10  and  C_32
REMARK    6  A    between atoms: O_10  and  C_41
REMARK    7  A    between atoms: O_12  and  C_38
REMARK    8  A    between atoms: O_12  and  C_46
REMARK    9  A    between atoms: C_23  and  C_31
REMARK   10  A    between atoms: C_29  and  C_32
REMARK   11  A    between atoms: C_37  and  C_42
REMARK   12  A    between atoms: C_49  and  C_50
REMARK                            x       y       z     vdW  Elec       q    Type
REMARK                         _______ _______ _______ _____ _____    ______ ____
ROOT
ATOM      1  O   UNL     1     112.096 130.417 139.007  0.00  0.00    +0.000 OA
ATOM      2  O   UNL     1     114.749 130.045 140.090  0.00  0.00    +0.000 OA
ATOM      3  O   UNL     1     114.555 130.542 138.750  0.00  0.00    +0.000 OA
ATOM      4  C   UNL     1     112.742 129.676 141.015  0.00  0.00    +0.000 A 
ATOM      5  C   UNL     1     112.235 129.914 140.362  0.00  0.00    +0.000 A 
ATOM      6  C   UNL     1     113.596 129.720 140.925  0.00  0.00    +0.000 A 
ATOM      7  C   UNL     1     112.588 130.191 139.630  0.00  0.00    +0.000 A 
ATOM      8  C   UNL     1     113.930 130.000 140.185  0.00  0.00    +0.000 A 
ATOM      9  C   UNL     1     113.408 130.232 139.544  0.00  0.00    +0.000 A 
ATOM     10  C   UNL     1     113.736 130.500 138.835  0.00  0.00    +0.000 A 
ATOM     11  C   UNL     1     112.424 130.685 138.299  0.00  0.00    +0.000 A 
ATOM     12  C   UNL     1     113.243 130.727 138.214  0.00  0.00    +0.000 A 
ENDROOT
BRANCH  11  14
ATOM     13  C   UNL     1     110.948 131.365 136.432  0.00  0.00    +0.000 A 
ATOM     14  C   UNL     1     111.932 130.912 137.677  0.00  0.00    +0.000 A 
ATOM     15  C   UNL     1     111.457 130.722 136.343  0.00  0.00    +0.000 A 
ATOM     16  C   UNL     1     110.932 131.782 137.144  0.00  0.00    +0.000 A 
ATOM     17  C   UNL     1     111.949 130.495 136.965  0.00  0.00    +0.000 A 
ATOM     18  C   UNL     1     111.423 131.555 137.767  0.00  0.00    +0.000 A 
BRANCH  13  19
ATOM     19  O   UNL     1     110.457 131.591 135.810  0.00  0.00    +0.000 OA
BRANCH  19  28
ATOM     20  O   UNL     1     109.478 130.561 135.967  0.00  0.00    +0.000 OA
ATOM     21  O   UNL     1     107.688 132.179 135.416  0.00  0.00    +0.000 OA
ATOM     22  O   UNL     1     107.306 130.610 135.756  0.00  0.00    +0.000 OA
ATOM     23  O   UNL     1     109.264 132.669 135.443  0.00  0.00    +0.000 OA
ATOM     24  C   UNL     1     108.285 131.640 135.599  0.00  0.00    +0.000 C 
ATOM     25  C   UNL     1     108.094 130.855 135.769  0.00  0.00    +0.000 C 
ATOM     26  C   UNL     1     109.073 131.885 135.613  0.00  0.00    +0.000 C 
ATOM     27  C   UNL     1     108.690 130.316 135.953  0.00  0.00    +0.000 C 
ATOM     28  C   UNL     1     109.669 131.346 135.796  0.00  0.00    +0.000 C 
BRANCH  27  31
ATOM     29  O   UNL     1     108.326 129.308 136.898  0.00  0.00    +0.000 OA
ATOM     30  O   UNL     1     108.485 128.971 135.518  0.00  0.00    +0.000 OA
ATOM     31  C   UNL     1     108.500 129.532 136.123  0.00  0.00    +0.000 C 
ENDBRANCH  27  31
ENDBRANCH  19  28
ENDBRANCH  13  19
ENDBRANCH  11  14
BRANCH   4  32
ATOM     32  O   UNL     1     112.412 129.409 141.722  0.00  0.00    +0.000 OA
BRANCH  32  39
ATOM     33  O   UNL     1     112.161 128.087 141.240  0.00  0.00    +0.000 OA
ATOM     34  O   UNL     1     110.200 127.913 142.740  0.00  0.00    +0.000 OA
ATOM     35  O   UNL     1     110.602 126.649 141.757  0.00  0.00    +0.000 OA
ATOM     36  C   UNL     1     111.306 128.661 142.231  0.00  0.00    +0.000 C 
ATOM     37  C   UNL     1     110.853 127.971 142.240  0.00  0.00    +0.000 C 
ATOM     38  C   UNL     1     111.055 127.340 141.748  0.00  0.00    +0.000 C 
ATOM     39  C   UNL     1     111.960 128.719 141.731  0.00  0.00    +0.000 C 
ATOM     40  C   UNL     1     111.709 127.398 141.248  0.00  0.00    +0.000 C 
BRANCH  36  41
ATOM     41  O   UNL     1     111.105 129.292 142.722  0.00  0.00    +0.000 OA
BRANCH  41  47
ATOM     42  O   UNL     1     111.714 128.675 143.910  0.00  0.00    +0.000 OA
ATOM     43  O   UNL     1     111.896 129.723 145.530  0.00  0.00    +0.000 OA
ATOM     44  O   UNL     1     111.001 130.686 143.848  0.00  0.00    +0.000 OA
ATOM     45  C   UNL     1     111.637 129.712 144.746  0.00  0.00    +0.000 C 
ATOM     46  C   UNL     1     111.316 129.944 144.024  0.00  0.00    +0.000 C 
ATOM     47  C   UNL     1     111.363 129.303 143.506  0.00  0.00    +0.000 C 
ATOM     48  C   UNL     1     111.884 128.927 144.677  0.00  0.00    +0.000 C 
BRANCH  45  50
ATOM     49  O   UNL     1     111.765 130.665 145.804  0.00  0.00    +0.000 OA
ATOM     50  C   UNL     1     111.483 130.461 145.055  0.00  0.00    +0.000 C 
ENDBRANCH  45  50
ENDBRANCH  41  47
ENDBRANCH  36  41
BRANCH  40  51
ATOM     51  C   UNL     1     111.909 126.766 140.757  0.00  0.00    +0.000 C 
BRANCH  51  52
ATOM     52  O   UNL     1     112.016 126.889 139.949  0.00  0.00    +0.000 OA
BRANCH  52  54
ATOM     53  O   UNL     1     111.868 125.621 139.307  0.00  0.00    +0.000 OA
ATOM     54  C   UNL     1     112.325 126.286 139.477  0.00  0.00    +0.000 C 
ATOM     55  C   UNL     1     113.090 126.349 139.175  0.00  0.00    +0.000 C 
ENDBRANCH  52  54
ENDBRANCH  51  52
ENDBRANCH  40  51
ENDBRANCH  32  39
ENDBRANCH   4  32
TORSDOF 12
ENDMDL
MODEL 7
REMARK VINA RESULT:     -10.2      6.854      9.910
REMARK  Name = 131831876
REMARK  12 active torsions:
REMARK  status: ('A' for Active; 'I' for Inactive)
REMARK    1  A    between atoms: O_1  and  C_22
REMARK    2  A    between atoms: O_1  and  C_26
REMARK    3  A    between atoms: O_7  and  C_28
REMARK    4  A    between atoms: O_7  and  C_34
REMARK    5  A    between atoms: O_10  and  C_32
REMARK    6  A    between atoms: O_10  and  C_41
REMARK    7  A    between atoms: O_12  and  C_38
REMARK    8  A    between atoms: O_12  and  C_46
REMARK    9  A    between atoms: C_23  and  C_31
REMARK   10  A    between atoms: C_29  and  C_32
REMARK   11  A    between atoms: C_37  and  C_42
REMARK   12  A    between atoms: C_49  and  C_50
REMARK                            x       y       z     vdW  Elec       q    Type
REMARK                         _______ _______ _______ _____ _____    ______ ____
ROOT
ATOM      1  O   UNL     1     111.683 129.271 138.047  0.00  0.00    +0.000 OA
ATOM      2  O   UNL     1     111.122 132.100 137.876  0.00  0.00    +0.000 OA
ATOM      3  O   UNL     1     111.966 131.449 136.905  0.00  0.00    +0.000 OA
ATOM      4  C   UNL     1     110.435 130.575 139.366  0.00  0.00    +0.000 A 
ATOM      5  C   UNL     1     110.826 129.877 139.051  0.00  0.00    +0.000 A 
ATOM      6  C   UNL     1     110.534 131.330 138.969  0.00  0.00    +0.000 A 
ATOM      7  C   UNL     1     111.310 129.945 138.345  0.00  0.00    +0.000 A 
ATOM      8  C   UNL     1     111.021 131.379 138.264  0.00  0.00    +0.000 A 
ATOM      9  C   UNL     1     111.404 130.670 137.964  0.00  0.00    +0.000 A 
ATOM     10  C   UNL     1     111.872 130.723 137.285  0.00  0.00    +0.000 A 
ATOM     11  C   UNL     1     112.150 129.324 137.369  0.00  0.00    +0.000 A 
ATOM     12  C   UNL     1     112.244 130.050 136.989  0.00  0.00    +0.000 A 
ENDROOT
BRANCH  11  14
ATOM     13  C   UNL     1     113.270 127.305 136.478  0.00  0.00    +0.000 A 
ATOM     14  C   UNL     1     112.523 128.651 137.072  0.00  0.00    +0.000 A 
ATOM     15  C   UNL     1     112.715 127.707 136.018  0.00  0.00    +0.000 A 
ATOM     16  C   UNL     1     113.451 127.576 137.236  0.00  0.00    +0.000 A 
ATOM     17  C   UNL     1     112.342 128.380 136.314  0.00  0.00    +0.000 A 
ATOM     18  C   UNL     1     113.078 128.249 137.533  0.00  0.00    +0.000 A 
BRANCH  13  19
ATOM     19  O   UNL     1     113.643 126.632 136.181  0.00  0.00    +0.000 OA
BRANCH  19  28
ATOM     20  O   UNL     1     112.571 125.703 136.359  0.00  0.00    +0.000 OA
ATOM     21  O   UNL     1     114.184 123.992 137.131  0.00  0.00    +0.000 OA
ATOM     22  O   UNL     1     112.575 123.633 137.052  0.00  0.00    +0.000 OA
ATOM     23  O   UNL     1     114.717 125.491 136.695  0.00  0.00    +0.000 OA
ATOM     24  C   UNL     1     113.646 124.562 136.874  0.00  0.00    +0.000 C 
ATOM     25  C   UNL     1     112.842 124.383 136.834  0.00  0.00    +0.000 C 
ATOM     26  C   UNL     1     113.913 125.312 136.656  0.00  0.00    +0.000 C 
ATOM     27  C   UNL     1     112.304 124.953 136.577  0.00  0.00    +0.000 C 
ATOM     28  C   UNL     1     113.376 125.882 136.399  0.00  0.00    +0.000 C 
BRANCH  27  31
ATOM     29  O   UNL     1     111.167 124.524 135.826  0.00  0.00    +0.000 OA
ATOM     30  O   UNL     1     111.028 124.848 137.211  0.00  0.00    +0.000 OA
ATOM     31  C   UNL     1     111.500 124.775 136.538  0.00  0.00    +0.000 C 
ENDBRANCH  27  31
ENDBRANCH  19  28
ENDBRANCH  13  19
ENDBRANCH  11  14
BRANCH   4  32
ATOM     32  O   UNL     1     109.969 130.519 140.044  0.00  0.00    +0.000 OA
BRANCH  32  39
ATOM     33  O   UNL     1     111.105 130.547 140.911  0.00  0.00    +0.000 OA
ATOM     34  O   UNL     1     109.676 131.368 142.758  0.00  0.00    +0.000 OA
ATOM     35  O   UNL     1     111.288 131.121 143.009  0.00  0.00    +0.000 OA
ATOM     36  C   UNL     1     109.822 130.943 141.400  0.00  0.00    +0.000 C 
ATOM     37  C   UNL     1     110.152 131.094 142.142  0.00  0.00    +0.000 C 
ATOM     38  C   UNL     1     110.958 130.970 142.267  0.00  0.00    +0.000 C 
ATOM     39  C   UNL     1     110.298 130.670 140.785  0.00  0.00    +0.000 C 
ATOM     40  C   UNL     1     111.434 130.697 141.651  0.00  0.00    +0.000 C 
BRANCH  36  41
ATOM     41  O   UNL     1     109.016 131.067 141.276  0.00  0.00    +0.000 OA
BRANCH  41  47
ATOM     42  O   UNL     1     108.652 129.748 141.816  0.00  0.00    +0.000 OA
ATOM     43  O   UNL     1     106.792 129.204 141.805  0.00  0.00    +0.000 OA
ATOM     44  O   UNL     1     107.243 131.132 141.005  0.00  0.00    +0.000 OA
ATOM     45  C   UNL     1     107.334 129.797 141.614  0.00  0.00    +0.000 C 
ATOM     46  C   UNL     1     107.659 130.504 141.342  0.00  0.00    +0.000 C 
ATOM     47  C   UNL     1     108.474 130.474 141.467  0.00  0.00    +0.000 C 
ATOM     48  C   UNL     1     107.947 129.329 141.907  0.00  0.00    +0.000 C 
BRANCH  45  50
ATOM     49  O   UNL     1     105.948 129.531 141.386  0.00  0.00    +0.000 OA
ATOM     50  C   UNL     1     106.583 130.059 141.395  0.00  0.00    +0.000 C 
ENDBRANCH  45  50
ENDBRANCH  41  47
ENDBRANCH  36  41
BRANCH  40  51
ATOM     51  C   UNL     1     112.240 130.574 141.777  0.00  0.00    +0.000 C 
BRANCH  51  52
ATOM     52  O   UNL     1     112.794 130.900 141.260  0.00  0.00    +0.000 OA
BRANCH  52  54
ATOM     53  O   UNL     1     114.099 131.267 141.710  0.00  0.00    +0.000 OA
ATOM     54  C   UNL     1     113.595 130.723 141.348  0.00  0.00    +0.000 C 
ATOM     55  C   UNL     1     113.892 130.005 141.074  0.00  0.00    +0.000 C 
ENDBRANCH  52  54
ENDBRANCH  51  52
ENDBRANCH  40  51
ENDBRANCH  32  39
ENDBRANCH   4  32
TORSDOF 12
ENDMDL
MODEL 8
REMARK VINA RESULT:     -10.1      3.321      6.137
REMARK  Name = 131831876
REMARK  12 active torsions:
REMARK  status: ('A' for Active; 'I' for Inactive)
REMARK    1  A    between atoms: O_1  and  C_22
REMARK    2  A    between atoms: O_1  and  C_26
REMARK    3  A    between atoms: O_7  and  C_28
REMARK    4  A    between atoms: O_7  and  C_34
REMARK    5  A    between atoms: O_10  and  C_32
REMARK    6  A    between atoms: O_10  and  C_41
REMARK    7  A    between atoms: O_12  and  C_38
REMARK    8  A    between atoms: O_12  and  C_46
REMARK    9  A    between atoms: C_23  and  C_31
REMARK   10  A    between atoms: C_29  and  C_32
REMARK   11  A    between atoms: C_37  and  C_42
REMARK   12  A    between atoms: C_49  and  C_50
REMARK                            x       y       z     vdW  Elec       q    Type
REMARK                         _______ _______ _______ _____ _____    ______ ____
ROOT
ATOM      1  O   UNL     1     108.782 129.208 145.327  0.00  0.00    +0.000 OA
ATOM      2  O   UNL     1     106.303 130.151 146.472  0.00  0.00    +0.000 OA
ATOM      3  O   UNL     1     107.265 131.072 145.920  0.00  0.00    +0.000 OA
ATOM      4  C   UNL     1     107.098 128.068 146.254  0.00  0.00    +0.000 A 
ATOM      5  C   UNL     1     107.848 128.238 145.870  0.00  0.00    +0.000 A 
ATOM      6  C   UNL     1     106.572 128.715 146.460  0.00  0.00    +0.000 A 
ATOM      7  C   UNL     1     108.061 129.052 145.696  0.00  0.00    +0.000 A 
ATOM      8  C   UNL     1     106.802 129.523 146.278  0.00  0.00    +0.000 A 
ATOM      9  C   UNL     1     107.555 129.673 145.894  0.00  0.00    +0.000 A 
ATOM     10  C   UNL     1     107.771 130.451 145.722  0.00  0.00    +0.000 A 
ATOM     11  C   UNL     1     108.997 129.986 145.156  0.00  0.00    +0.000 A 
ATOM     12  C   UNL     1     108.491 130.607 145.353  0.00  0.00    +0.000 A 
ENDROOT
BRANCH  11  14
ATOM     13  C   UNL     1     111.160 130.456 144.049  0.00  0.00    +0.000 A 
ATOM     14  C   UNL     1     109.718 130.143 144.787  0.00  0.00    +0.000 A 
ATOM     15  C   UNL     1     110.465 130.784 143.752  0.00  0.00    +0.000 A 
ATOM     16  C   UNL     1     111.135 129.970 144.716  0.00  0.00    +0.000 A 
ATOM     17  C   UNL     1     109.744 130.628 144.120  0.00  0.00    +0.000 A 
ATOM     18  C   UNL     1     110.414 129.813 145.085  0.00  0.00    +0.000 A 
BRANCH  13  19
ATOM     19  O   UNL     1     111.882 130.612 143.680  0.00  0.00    +0.000 OA
BRANCH  19  28
ATOM     20  O   UNL     1     111.886 129.466 142.826  0.00  0.00    +0.000 OA
ATOM     21  O   UNL     1     112.926 130.812 141.028  0.00  0.00    +0.000 OA
ATOM     22  O   UNL     1     112.584 129.218 140.773  0.00  0.00    +0.000 OA
ATOM     23  O   UNL     1     112.575 131.509 142.482  0.00  0.00    +0.000 OA
ATOM     24  C   UNL     1     112.579 130.364 141.627  0.00  0.00    +0.000 C 
ATOM     25  C   UNL     1     112.408 129.567 141.500  0.00  0.00    +0.000 C 
ATOM     26  C   UNL     1     112.404 130.712 142.354  0.00  0.00    +0.000 C 
ATOM     27  C   UNL     1     112.061 129.118 142.099  0.00  0.00    +0.000 C 
ATOM     28  C   UNL     1     112.057 130.264 142.953  0.00  0.00    +0.000 C 
BRANCH  27  31
ATOM     29  O   UNL     1     111.151 128.099 141.679  0.00  0.00    +0.000 OA
ATOM     30  O   UNL     1     112.458 127.746 142.138  0.00  0.00    +0.000 OA
ATOM     31  C   UNL     1     111.890 128.321 141.972  0.00  0.00    +0.000 C 
ENDBRANCH  27  31
ENDBRANCH  19  28
ENDBRANCH  13  19
ENDBRANCH  11  14
BRANCH   4  32
ATOM     32  O   UNL     1     106.885 127.289 146.424  0.00  0.00    +0.000 OA
BRANCH  32  39
ATOM     33  O   UNL     1     106.100 127.136 145.240  0.00  0.00    +0.000 OA
ATOM     34  O   UNL     1     106.582 124.708 145.236  0.00  0.00    +0.000 OA
ATOM     35  O   UNL     1     105.636 125.364 144.053  0.00  0.00    +0.000 OA
ATOM     36  C   UNL     1     106.734 125.999 145.830  0.00  0.00    +0.000 C 
ATOM     37  C   UNL     1     106.421 125.517 145.237  0.00  0.00    +0.000 C 
ATOM     38  C   UNL     1     105.949 125.846 144.646  0.00  0.00    +0.000 C 
ATOM     39  C   UNL     1     106.573 126.808 145.832  0.00  0.00    +0.000 C 
ATOM     40  C   UNL     1     105.788 126.655 144.648  0.00  0.00    +0.000 C 
BRANCH  36  41
ATOM     41  O   UNL     1     107.206 125.671 146.421  0.00  0.00    +0.000 OA
BRANCH  41  47
ATOM     42  O   UNL     1     106.047 125.225 147.209  0.00  0.00    +0.000 OA
ATOM     43  O   UNL     1     106.342 124.402 148.939  0.00  0.00    +0.000 OA
ATOM     44  O   UNL     1     108.073 125.023 147.854  0.00  0.00    +0.000 OA
ATOM     45  C   UNL     1     106.692 124.744 148.274  0.00  0.00    +0.000 C 
ATOM     46  C   UNL     1     107.255 125.031 147.745  0.00  0.00    +0.000 C 
ATOM     47  C   UNL     1     106.856 125.329 147.086  0.00  0.00    +0.000 C 
ATOM     48  C   UNL     1     105.945 124.863 147.944  0.00  0.00    +0.000 C 
BRANCH  45  50
ATOM     49  O   UNL     1     107.108 124.143 149.502  0.00  0.00    +0.000 OA
ATOM     50  C   UNL     1     107.294 124.524 148.794  0.00  0.00    +0.000 C 
ENDBRANCH  45  50
ENDBRANCH  41  47
ENDBRANCH  36  41
BRANCH  40  51
ATOM     51  C   UNL     1     105.315 126.982 144.056  0.00  0.00    +0.000 C 
BRANCH  51  52
ATOM     52  O   UNL     1     105.596 127.612 143.604  0.00  0.00    +0.000 OA
BRANCH  52  54
ATOM     53  O   UNL     1     104.841 127.598 142.391  0.00  0.00    +0.000 OA
ATOM     54  C   UNL     1     105.095 127.993 143.070  0.00  0.00    +0.000 C 
ATOM     55  C   UNL     1     104.850 128.766 143.213  0.00  0.00    +0.000 C 
ENDBRANCH  52  54
ENDBRANCH  51  52
ENDBRANCH  40  51
ENDBRANCH  32  39
ENDBRANCH   4  32
TORSDOF 12
ENDMDL
MODEL 9
REMARK VINA RESULT:     -10.1      4.340      8.189
REMARK  Name = 131831876
REMARK  12 active torsions:
REMARK  status: ('A' for Active; 'I' for Inactive)
REMARK    1  A    between atoms: O_1  and  C_22
REMARK    2  A    between atoms: O_1  and  C_26
REMARK    3  A    between atoms: O_7  and  C_28
REMARK    4  A    between atoms: O_7  and  C_34
REMARK    5  A    between atoms: O_10  and  C_32
REMARK    6  A    between atoms: O_10  and  C_41
REMARK    7  A    between atoms: O_12  and  C_38
REMARK    8  A    between atoms: O_12  and  C_46
REMARK    9  A    between atoms: C_23  and  C_31
REMARK   10  A    between atoms: C_29  and  C_32
REMARK   11  A    between atoms: C_37  and  C_42
REMARK   12  A    between atoms: C_49  and  C_50
REMARK                            x       y       z     vdW  Elec       q    Type
REMARK                         _______ _______ _______ _____ _____    ______ ____
ROOT
ATOM      1  O   UNL     1     108.148 129.177 142.834  0.00  0.00    +0.000 OA
ATOM      2  O   UNL     1     108.615 130.898 140.562  0.00  0.00    +0.000 OA
ATOM      3  O   UNL     1     107.464 130.032 140.614  0.00  0.00    +0.000 OA
ATOM      4  C   UNL     1     109.807 130.621 142.438  0.00  0.00    +0.000 A 
ATOM      5  C   UNL     1     109.323 130.030 142.833  0.00  0.00    +0.000 A 
ATOM      6  C   UNL     1     109.569 130.917 141.668  0.00  0.00    +0.000 A 
ATOM      7  C   UNL     1     108.609 129.744 142.451  0.00  0.00    +0.000 A 
ATOM      8  C   UNL     1     108.852 130.619 141.302  0.00  0.00    +0.000 A 
ATOM      9  C   UNL     1     108.381 130.029 141.711  0.00  0.00    +0.000 A 
ATOM     10  C   UNL     1     107.692 129.747 141.354  0.00  0.00    +0.000 A 
ATOM     11  C   UNL     1     107.460 128.895 142.478  0.00  0.00    +0.000 A 
ATOM     12  C   UNL     1     107.232 129.180 141.738  0.00  0.00    +0.000 A 
ENDROOT
BRANCH  11  14
ATOM     13  C   UNL     1     106.077 127.194 143.628  0.00  0.00    +0.000 A 
ATOM     14  C   UNL     1     106.999 128.328 142.861  0.00  0.00    +0.000 A 
ATOM     15  C   UNL     1     106.707 126.960 143.149  0.00  0.00    +0.000 A 
ATOM     16  C   UNL     1     105.909 127.996 143.723  0.00  0.00    +0.000 A 
ATOM     17  C   UNL     1     107.168 127.526 142.766  0.00  0.00    +0.000 A 
ATOM     18  C   UNL     1     106.369 128.563 143.340  0.00  0.00    +0.000 A 
BRANCH  13  19
ATOM     19  O   UNL     1     105.617 126.627 144.011  0.00  0.00    +0.000 OA
BRANCH  19  28
ATOM     20  O   UNL     1     106.226 126.703 145.302  0.00  0.00    +0.000 OA
ATOM     21  O   UNL     1     106.109 124.239 145.501  0.00  0.00    +0.000 OA
ATOM     22  O   UNL     1     106.757 125.136 146.725  0.00  0.00    +0.000 OA
ATOM     23  O   UNL     1     105.539 124.985 144.144  0.00  0.00    +0.000 OA
ATOM     24  C   UNL     1     106.148 125.061 145.435  0.00  0.00    +0.000 C 
ATOM     25  C   UNL     1     106.472 125.509 146.047  0.00  0.00    +0.000 C 
ATOM     26  C   UNL     1     105.863 125.434 144.756  0.00  0.00    +0.000 C 
ATOM     27  C   UNL     1     106.511 126.330 145.981  0.00  0.00    +0.000 C 
ATOM     28  C   UNL     1     105.902 126.254 144.690  0.00  0.00    +0.000 C 
BRANCH  27  31
ATOM     29  O   UNL     1     106.347 127.086 147.182  0.00  0.00    +0.000 OA
ATOM     30  O   UNL     1     107.647 126.921 146.613  0.00  0.00    +0.000 OA
ATOM     31  C   UNL     1     106.835 126.779 146.592  0.00  0.00    +0.000 C 
ENDBRANCH  27  31
ENDBRANCH  19  28
ENDBRANCH  13  19
ENDBRANCH  11  14
BRANCH   4  32
ATOM     32  O   UNL     1     110.495 130.901 142.797  0.00  0.00    +0.000 OA
BRANCH  32  39
ATOM     33  O   UNL     1     111.356 129.899 142.253  0.00  0.00    +0.000 OA
ATOM     34  O   UNL     1     113.205 131.541 142.150  0.00  0.00    +0.000 OA
ATOM     35  O   UNL     1     113.449 129.991 141.640  0.00  0.00    +0.000 OA
ATOM     36  C   UNL     1     111.849 131.221 142.474  0.00  0.00    +0.000 C 
ATOM     37  C   UNL     1     112.588 130.994 142.184  0.00  0.00    +0.000 C 
ATOM     38  C   UNL     1     112.710 130.219 141.929  0.00  0.00    +0.000 C 
ATOM     39  C   UNL     1     111.233 130.674 142.508  0.00  0.00    +0.000 C 
ATOM     40  C   UNL     1     112.094 129.671 141.963  0.00  0.00    +0.000 C 
BRANCH  36  41
ATOM     41  O   UNL     1     111.728 131.996 142.729  0.00  0.00    +0.000 OA
BRANCH  41  47
ATOM     42  O   UNL     1     112.216 131.708 144.085  0.00  0.00    +0.000 OA
ATOM     43  O   UNL     1     112.310 133.147 145.381  0.00  0.00    +0.000 OA
ATOM     44  O   UNL     1     111.592 133.642 143.432  0.00  0.00    +0.000 OA
ATOM     45  C   UNL     1     112.114 132.932 144.608  0.00  0.00    +0.000 C 
ATOM     46  C   UNL     1     111.861 132.968 143.825  0.00  0.00    +0.000 C 
ATOM     47  C   UNL     1     111.924 132.211 143.501  0.00  0.00    +0.000 C 
ATOM     48  C   UNL     1     112.334 132.153 144.770  0.00  0.00    +0.000 C 
BRANCH  45  50
ATOM     49  O   UNL     1     111.958 134.080 145.444  0.00  0.00    +0.000 OA
ATOM     50  C   UNL     1     111.966 133.739 144.693  0.00  0.00    +0.000 C 
ENDBRANCH  45  50
ENDBRANCH  41  47
ENDBRANCH  36  41
BRANCH  40  51
ATOM     51  C   UNL     1     112.216 128.896 141.708  0.00  0.00    +0.000 C 
BRANCH  51  52
ATOM     52  O   UNL     1     111.797 128.276 142.053  0.00  0.00    +0.000 OA
BRANCH  52  54
ATOM     53  O   UNL     1     112.544 127.103 141.728  0.00  0.00    +0.000 OA
ATOM     54  C   UNL     1     111.832 127.520 141.725  0.00  0.00    +0.000 C 
ATOM     55  C   UNL     1     111.157 127.181 141.395  0.00  0.00    +0.000 C 
ENDBRANCH  52  54
ENDBRANCH  51  52
ENDBRANCH  40  51
ENDBRANCH  32  39
ENDBRANCH   4  32
TORSDOF 12
ENDMDL
MODEL 10
REMARK VINA RESULT:     -10.1      6.483      8.821
REMARK  Name = 131831876
REMARK  12 active torsions:
REMARK  status: ('A' for Active; 'I' for Inactive)
REMARK    1  A    between atoms: O_1  and  C_22
REMARK    2  A    between atoms: O_1  and  C_26
REMARK    3  A    between atoms: O_7  and  C_28
REMARK    4  A    between atoms: O_7  and  C_34
REMARK    5  A    between atoms: O_10  and  C_32
REMARK    6  A    between atoms: O_10  and  C_41
REMARK    7  A    between atoms: O_12  and  C_38
REMARK    8  A    between atoms: O_12  and  C_46
REMARK    9  A    between atoms: C_23  and  C_31
REMARK   10  A    between atoms: C_29  and  C_32
REMARK   11  A    between atoms: C_37  and  C_42
REMARK   12  A    between atoms: C_49  and  C_50
REMARK                            x       y       z     vdW  Elec       q    Type
REMARK                         _______ _______ _______ _____ _____    ______ ____
ROOT
ATOM      1  O   UNL     1     112.185 130.479 139.617  0.00  0.00    +0.000 OA
ATOM      2  O   UNL     1     114.672 130.340 141.080  0.00  0.00    +0.000 OA
ATOM      3  O   UNL     1     114.633 130.113 139.656  0.00  0.00    +0.000 OA
ATOM      4  C   UNL     1     112.594 130.774 141.794  0.00  0.00    +0.000 A 
ATOM      5  C   UNL     1     112.168 130.716 141.049  0.00  0.00    +0.000 A 
ATOM      6  C   UNL     1     113.443 130.646 141.807  0.00  0.00    +0.000 A 
ATOM      7  C   UNL     1     112.598 130.533 140.329  0.00  0.00    +0.000 A 
ATOM      8  C   UNL     1     113.856 130.464 141.077  0.00  0.00    +0.000 A 
ATOM      9  C   UNL     1     113.414 130.411 140.342  0.00  0.00    +0.000 A 
ATOM     10  C   UNL     1     113.817 130.235 139.643  0.00  0.00    +0.000 A 
ATOM     11  C   UNL     1     112.587 130.304 138.918  0.00  0.00    +0.000 A 
ATOM     12  C   UNL     1     113.403 130.182 138.931  0.00  0.00    +0.000 A 
ENDROOT
BRANCH  11  14
ATOM     13  C   UNL     1     111.347 130.144 136.782  0.00  0.00    +0.000 A 
ATOM     14  C   UNL     1     112.174 130.250 138.206  0.00  0.00    +0.000 A 
ATOM     15  C   UNL     1     111.396 129.488 137.281  0.00  0.00    +0.000 A 
ATOM     16  C   UNL     1     111.711 130.852 136.996  0.00  0.00    +0.000 A 
ATOM     17  C   UNL     1     111.809 129.541 137.993  0.00  0.00    +0.000 A 
ATOM     18  C   UNL     1     112.125 130.906 137.708  0.00  0.00    +0.000 A 
BRANCH  13  19
ATOM     19  O   UNL     1     110.934 130.090 136.070  0.00  0.00    +0.000 OA
BRANCH  19  28
ATOM     20  O   UNL     1     109.726 130.763 136.435  0.00  0.00    +0.000 OA
ATOM     21  O   UNL     1     108.404 128.990 135.327  0.00  0.00    +0.000 OA
ATOM     22  O   UNL     1     107.638 130.253 136.061  0.00  0.00    +0.000 OA
ATOM     23  O   UNL     1     110.052 128.908 135.332  0.00  0.00    +0.000 OA
ATOM     24  C   UNL     1     108.845 129.581 135.696  0.00  0.00    +0.000 C 
ATOM     25  C   UNL     1     108.462 130.213 136.063  0.00  0.00    +0.000 C 
ATOM     26  C   UNL     1     109.669 129.540 135.699  0.00  0.00    +0.000 C 
ATOM     27  C   UNL     1     108.902 130.804 136.433  0.00  0.00    +0.000 C 
ATOM     28  C   UNL     1     110.110 130.131 136.068  0.00  0.00    +0.000 C 
BRANCH  27  31
ATOM     29  O   UNL     1     108.253 131.362 137.577  0.00  0.00    +0.000 OA
ATOM     30  O   UNL     1     108.405 132.142 136.389  0.00  0.00    +0.000 OA
ATOM     31  C   UNL     1     108.520 131.436 136.800  0.00  0.00    +0.000 C 
ENDBRANCH  27  31
ENDBRANCH  19  28
ENDBRANCH  13  19
ENDBRANCH  11  14
BRANCH   4  32
ATOM     32  O   UNL     1     112.189 130.949 142.491  0.00  0.00    +0.000 OA
BRANCH  32  39
ATOM     33  O   UNL     1     111.705 129.620 142.694  0.00  0.00    +0.000 OA
ATOM     34  O   UNL     1     111.791 129.961 145.143  0.00  0.00    +0.000 OA
ATOM     35  O   UNL     1     111.279 128.518 144.529  0.00  0.00    +0.000 OA
ATOM     36  C   UNL     1     111.990 130.456 143.817  0.00  0.00    +0.000 C 
ATOM     37  C   UNL     1     111.763 129.847 144.327  0.00  0.00    +0.000 C 
ATOM     38  C   UNL     1     111.507 129.126 144.019  0.00  0.00    +0.000 C 
ATOM     39  C   UNL     1     111.961 130.342 143.000  0.00  0.00    +0.000 C 
ATOM     40  C   UNL     1     111.478 129.012 143.202  0.00  0.00    +0.000 C 
BRANCH  36  41
ATOM     41  O   UNL     1     112.246 131.177 144.125  0.00  0.00    +0.000 OA
BRANCH  41  47
ATOM     42  O   UNL     1     110.875 131.680 144.291  0.00  0.00    +0.000 OA
ATOM     43  O   UNL     1     110.600 133.432 145.073  0.00  0.00    +0.000 OA
ATOM     44  O   UNL     1     112.619 132.770 144.863  0.00  0.00    +0.000 OA
ATOM     45  C   UNL     1     111.152 132.864 144.840  0.00  0.00    +0.000 C 
ATOM     46  C   UNL     1     111.866 132.477 144.697  0.00  0.00    +0.000 C 
ATOM     47  C   UNL     1     111.694 131.745 144.357  0.00  0.00    +0.000 C 
ATOM     48  C   UNL     1     110.539 132.372 144.590  0.00  0.00    +0.000 C 
BRANCH  45  50
ATOM     49  O   UNL     1     111.151 134.148 145.469  0.00  0.00    +0.000 OA
ATOM     50  C   UNL     1     111.564 133.508 145.150  0.00  0.00    +0.000 C 
ENDBRANCH  45  50
ENDBRANCH  41  47
ENDBRANCH  36  41
BRANCH  40  51
ATOM     51  C   UNL     1     111.222 128.290 142.896  0.00  0.00    +0.000 C 
BRANCH  51  52
ATOM     52  O   UNL     1     110.854 128.262 142.159  0.00  0.00    +0.000 OA
BRANCH  52  54
ATOM     53  O   UNL     1     109.915 127.198 141.995  0.00  0.00    +0.000 OA
ATOM     54  C   UNL     1     110.649 127.535 141.827  0.00  0.00    +0.000 C 
ATOM     55  C   UNL     1     111.176 127.145 141.328  0.00  0.00    +0.000 C 
ENDBRANCH  52  54
ENDBRANCH  51  52
ENDBRANCH  40  51
ENDBRANCH  32  39
ENDBRANCH   4  32
TORSDOF 12
ENDMDL
