MODEL 1
REMARK VINA RESULT:      -9.9      0.000      0.000
REMARK  Name = 14681460
REMARK  5 active torsions:
REMARK  status: ('A' for Active; 'I' for Inactive)
REMARK    1  A    between atoms: O_2  and  C_13
REMARK    2  A    between atoms: O_2  and  C_25
REMARK    3  A    between atoms: C_15  and  C_18
REMARK    4  A    between atoms: C_17  and  C_19
REMARK    5  A    between atoms: C_27  and  C_30
REMARK                            x       y       z     vdW  Elec       q    Type
REMARK                         _______ _______ _______ _____ _____    ______ ____
ROOT
ATOM      1  O   UNL     1     112.590 126.606 136.905  0.00  0.00    +0.000 OA
ATOM      2  O   UNL     1     111.408 123.982 136.771  0.00  0.00    +0.000 OA
ATOM      3  O   UNL     1     114.202 124.292 136.251  0.00  0.00    +0.000 OA
ATOM      4  O   UNL     1     114.831 125.588 136.308  0.00  0.00    +0.000 OA
ATOM      5  C   UNL     1     112.007 125.278 136.835  0.00  0.00    +0.000 A 
ATOM      6  C   UNL     1     112.672 125.761 136.769  0.00  0.00    +0.000 A 
ATOM      7  C   UNL     1     112.073 124.465 136.706  0.00  0.00    +0.000 A 
ATOM      8  C   UNL     1     113.403 125.432 136.574  0.00  0.00    +0.000 A 
ATOM      9  C   UNL     1     112.804 124.136 136.511  0.00  0.00    +0.000 A 
ATOM     10  C   UNL     1     113.469 124.621 136.446  0.00  0.00    +0.000 A 
ATOM     11  C   UNL     1     114.104 125.926 136.503  0.00  0.00    +0.000 A 
ATOM     12  C   UNL     1     113.279 127.114 136.838  0.00  0.00    +0.000 A 
ATOM     13  C   UNL     1     114.041 126.772 136.636  0.00  0.00    +0.000 A 
ENDROOT
BRANCH   5  19
ATOM     14  O   UNL     1     111.067 125.710 137.820  0.00  0.00    +0.000 OA
ATOM     15  O   UNL     1     109.499 126.384 136.029  0.00  0.00    +0.000 OA
ATOM     16  O   UNL     1     109.081 126.592 137.612  0.00  0.00    +0.000 OA
ATOM     17  C   UNL     1     110.752 125.831 136.431  0.00  0.00    +0.000 C 
ATOM     18  C   UNL     1     110.021 126.160 136.625  0.00  0.00    +0.000 C 
ATOM     19  C   UNL     1     111.276 125.606 137.029  0.00  0.00    +0.000 C 
ATOM     20  C   UNL     1     109.813 126.263 137.417  0.00  0.00    +0.000 C 
ATOM     21  C   UNL     1     110.336 126.039 138.014  0.00  0.00    +0.000 C 
BRANCH  21  23
ATOM     22  O   UNL     1     110.513 125.708 139.394  0.00  0.00    +0.000 OA
ATOM     23  C   UNL     1     110.128 126.142 138.806  0.00  0.00    +0.000 C 
ENDBRANCH  21  23
BRANCH  17  24
ATOM     24  O   UNL     1     110.961 125.727 135.640  0.00  0.00    +0.000 OA
BRANCH  24  26
ATOM     25  O   UNL     1     109.809 125.354 134.881  0.00  0.00    +0.000 OA
ATOM     26  C   UNL     1     110.414 125.890 135.044  0.00  0.00    +0.000 C 
ATOM     27  C   UNL     1     110.472 126.591 134.612  0.00  0.00    +0.000 C 
ENDBRANCH  24  26
ENDBRANCH  17  24
ENDBRANCH   5  19
BRANCH  12  30
ATOM     28  O   UNL     1     113.110 129.329 138.638  0.00  0.00    +0.000 OA
ATOM     29  O   UNL     1     113.003 130.362 137.356  0.00  0.00    +0.000 OA
ATOM     30  C   UNL     1     113.210 127.926 136.968  0.00  0.00    +0.000 A 
ATOM     31  C   UNL     1     113.195 128.221 137.738  0.00  0.00    +0.000 A 
ATOM     32  C   UNL     1     113.157 128.443 136.327  0.00  0.00    +0.000 A 
ATOM     33  C   UNL     1     113.126 129.034 137.868  0.00  0.00    +0.000 A 
ATOM     34  C   UNL     1     113.088 129.255 136.457  0.00  0.00    +0.000 A 
ATOM     35  C   UNL     1     113.072 129.550 137.227  0.00  0.00    +0.000 A 
ENDBRANCH  12  30
TORSDOF 5
ENDMDL
MODEL 2
REMARK VINA RESULT:      -9.8      1.413      2.909
REMARK  Name = 14681460
REMARK  5 active torsions:
REMARK  status: ('A' for Active; 'I' for Inactive)
REMARK    1  A    between atoms: O_2  and  C_13
REMARK    2  A    between atoms: O_2  and  C_25
REMARK    3  A    between atoms: C_15  and  C_18
REMARK    4  A    between atoms: C_17  and  C_19
REMARK    5  A    between atoms: C_27  and  C_30
REMARK                            x       y       z     vdW  Elec       q    Type
REMARK                         _______ _______ _______ _____ _____    ______ ____
ROOT
ATOM      1  O   UNL     1     112.127 127.085 136.514  0.00  0.00    +0.000 OA
ATOM      2  O   UNL     1     111.723 124.387 137.440  0.00  0.00    +0.000 OA
ATOM      3  O   UNL     1     110.341 125.294 135.108  0.00  0.00    +0.000 OA
ATOM      4  O   UNL     1     110.516 126.637 134.613  0.00  0.00    +0.000 OA
ATOM      5  C   UNL     1     111.915 125.723 136.970  0.00  0.00    +0.000 A 
ATOM      6  C   UNL     1     111.748 126.319 136.425  0.00  0.00    +0.000 A 
ATOM      7  C   UNL     1     111.556 124.983 136.894  0.00  0.00    +0.000 A 
ATOM      8  C   UNL     1     111.223 126.176 135.804  0.00  0.00    +0.000 A 
ATOM      9  C   UNL     1     111.032 124.840 136.274  0.00  0.00    +0.000 A 
ATOM     10  C   UNL     1     110.866 125.437 135.729  0.00  0.00    +0.000 A 
ATOM     11  C   UNL     1     111.042 126.790 135.230  0.00  0.00    +0.000 A 
ATOM     12  C   UNL     1     111.958 127.710 135.949  0.00  0.00    +0.000 A 
ATOM     13  C   UNL     1     111.412 127.561 135.303  0.00  0.00    +0.000 A 
ENDROOT
BRANCH   5  19
ATOM     14  O   UNL     1     112.167 126.208 138.290  0.00  0.00    +0.000 OA
ATOM     15  O   UNL     1     114.557 125.611 138.052  0.00  0.00    +0.000 OA
ATOM     16  O   UNL     1     114.013 126.295 139.452  0.00  0.00    +0.000 OA
ATOM     17  C   UNL     1     113.236 125.667 137.510  0.00  0.00    +0.000 C 
ATOM     18  C   UNL     1     113.761 125.809 138.131  0.00  0.00    +0.000 C 
ATOM     19  C   UNL     1     112.439 125.866 137.590  0.00  0.00    +0.000 C 
ATOM     20  C   UNL     1     113.488 126.151 138.831  0.00  0.00    +0.000 C 
ATOM     21  C   UNL     1     112.692 126.350 138.910  0.00  0.00    +0.000 C 
BRANCH  21  23
ATOM     22  O   UNL     1     111.793 126.345 140.022  0.00  0.00    +0.000 OA
ATOM     23  C   UNL     1     112.419 126.692 139.610  0.00  0.00    +0.000 C 
ENDBRANCH  21  23
BRANCH  17  24
ATOM     24  O   UNL     1     113.508 125.325 136.811  0.00  0.00    +0.000 OA
BRANCH  24  26
ATOM     25  O   UNL     1     114.424 124.288 137.171  0.00  0.00    +0.000 OA
ATOM     26  C   UNL     1     114.265 124.996 136.779  0.00  0.00    +0.000 C 
ATOM     27  C   UNL     1     114.861 125.377 136.355  0.00  0.00    +0.000 C 
ENDBRANCH  24  26
ENDBRANCH  17  24
ENDBRANCH   5  19
BRANCH  12  30
ATOM     28  O   UNL     1     111.953 130.367 137.005  0.00  0.00    +0.000 OA
ATOM     29  O   UNL     1     113.395 130.665 136.261  0.00  0.00    +0.000 OA
ATOM     30  C   UNL     1     112.317 128.449 136.027  0.00  0.00    +0.000 A 
ATOM     31  C   UNL     1     111.956 129.038 136.477  0.00  0.00    +0.000 A 
ATOM     32  C   UNL     1     113.038 128.598 135.656  0.00  0.00    +0.000 A 
ATOM     33  C   UNL     1     112.315 129.777 136.555  0.00  0.00    +0.000 A 
ATOM     34  C   UNL     1     113.398 129.337 135.733  0.00  0.00    +0.000 A 
ATOM     35  C   UNL     1     113.036 129.926 136.183  0.00  0.00    +0.000 A 
ENDBRANCH  12  30
TORSDOF 5
ENDMDL
MODEL 3
REMARK VINA RESULT:      -9.7      1.189      3.802
REMARK  Name = 14681460
REMARK  5 active torsions:
REMARK  status: ('A' for Active; 'I' for Inactive)
REMARK    1  A    between atoms: O_2  and  C_13
REMARK    2  A    between atoms: O_2  and  C_25
REMARK    3  A    between atoms: C_15  and  C_18
REMARK    4  A    between atoms: C_17  and  C_19
REMARK    5  A    between atoms: C_27  and  C_30
REMARK                            x       y       z     vdW  Elec       q    Type
REMARK                         _______ _______ _______ _____ _____    ______ ____
ROOT
ATOM      1  O   UNL     1     111.835 126.025 136.671  0.00  0.00    +0.000 OA
ATOM      2  O   UNL     1     114.540 125.806 137.640  0.00  0.00    +0.000 OA
ATOM      3  O   UNL     1     113.180 123.462 136.729  0.00  0.00    +0.000 OA
ATOM      4  O   UNL     1     111.826 123.530 136.237  0.00  0.00    +0.000 OA
ATOM      5  C   UNL     1     113.198 125.901 137.157  0.00  0.00    +0.000 A 
ATOM      6  C   UNL     1     112.525 125.542 136.844  0.00  0.00    +0.000 A 
ATOM      7  C   UNL     1     113.866 125.447 137.327  0.00  0.00    +0.000 A 
ATOM      8  C   UNL     1     112.519 124.729 136.702  0.00  0.00    +0.000 A 
ATOM      9  C   UNL     1     113.860 124.634 137.185  0.00  0.00    +0.000 A 
ATOM     10  C   UNL     1     113.186 124.276 136.872  0.00  0.00    +0.000 A 
ATOM     11  C   UNL     1     111.823 124.344 136.376  0.00  0.00    +0.000 A 
ATOM     12  C   UNL     1     111.131 125.657 136.345  0.00  0.00    +0.000 A 
ATOM     13  C   UNL     1     111.125 124.811 136.197  0.00  0.00    +0.000 A 
ENDROOT
BRANCH   5  19
ATOM     14  O   UNL     1     113.347 127.240 136.681  0.00  0.00    +0.000 OA
ATOM     15  O   UNL     1     112.937 128.098 138.965  0.00  0.00    +0.000 OA
ATOM     16  O   UNL     1     113.222 129.151 137.727  0.00  0.00    +0.000 OA
ATOM     17  C   UNL     1     113.067 126.999 138.062  0.00  0.00    +0.000 C 
ATOM     18  C   UNL     1     113.073 127.812 138.204  0.00  0.00    +0.000 C 
ATOM     19  C   UNL     1     113.204 126.713 137.299  0.00  0.00    +0.000 C 
ATOM     20  C   UNL     1     113.216 128.338 137.584  0.00  0.00    +0.000 C 
ATOM     21  C   UNL     1     113.353 128.052 136.823  0.00  0.00    +0.000 C 
BRANCH  21  23
ATOM     22  O   UNL     1     114.043 128.384 135.616  0.00  0.00    +0.000 OA
ATOM     23  C   UNL     1     113.496 128.578 136.204  0.00  0.00    +0.000 C 
ENDBRANCH  21  23
BRANCH  17  24
ATOM     24  O   UNL     1     112.925 126.473 138.680  0.00  0.00    +0.000 OA
BRANCH  24  26
ATOM     25  O   UNL     1     111.811 126.951 139.438  0.00  0.00    +0.000 OA
ATOM     26  C   UNL     1     112.609 126.748 139.392  0.00  0.00    +0.000 C 
ATOM     27  C   UNL     1     113.093 126.820 140.056  0.00  0.00    +0.000 C 
ENDBRANCH  24  26
ENDBRANCH  17  24
ENDBRANCH   5  19
BRANCH  12  30
ATOM     28  O   UNL     1     108.713 126.920 137.200  0.00  0.00    +0.000 OA
ATOM     29  O   UNL     1     108.465 127.481 135.669  0.00  0.00    +0.000 OA
ATOM     30  C   UNL     1     110.465 126.113 136.176  0.00  0.00    +0.000 A 
ATOM     31  C   UNL     1     109.922 126.288 136.772  0.00  0.00    +0.000 A 
ATOM     32  C   UNL     1     110.340 126.394 135.411  0.00  0.00    +0.000 A 
ATOM     33  C   UNL     1     109.255 126.744 136.604  0.00  0.00    +0.000 A 
ATOM     34  C   UNL     1     109.674 126.850 135.241  0.00  0.00    +0.000 A 
ATOM     35  C   UNL     1     109.131 127.025 135.838  0.00  0.00    +0.000 A 
ENDBRANCH  12  30
TORSDOF 5
ENDMDL
MODEL 4
REMARK VINA RESULT:      -9.7      0.755      2.032
REMARK  Name = 14681460
REMARK  5 active torsions:
REMARK  status: ('A' for Active; 'I' for Inactive)
REMARK    1  A    between atoms: O_2  and  C_13
REMARK    2  A    between atoms: O_2  and  C_25
REMARK    3  A    between atoms: C_15  and  C_18
REMARK    4  A    between atoms: C_17  and  C_19
REMARK    5  A    between atoms: C_27  and  C_30
REMARK                            x       y       z     vdW  Elec       q    Type
REMARK                         _______ _______ _______ _____ _____    ______ ____
ROOT
ATOM      1  O   UNL     1     112.590 126.569 136.609  0.00  0.00    +0.000 OA
ATOM      2  O   UNL     1     111.394 123.988 137.066  0.00  0.00    +0.000 OA
ATOM      3  O   UNL     1     114.230 124.189 136.773  0.00  0.00    +0.000 OA
ATOM      4  O   UNL     1     114.867 125.463 136.544  0.00  0.00    +0.000 OA
ATOM      5  C   UNL     1     112.000 125.262 136.839  0.00  0.00    +0.000 A 
ATOM      6  C   UNL     1     112.675 125.719 136.715  0.00  0.00    +0.000 A 
ATOM      7  C   UNL     1     112.068 124.445 136.941  0.00  0.00    +0.000 A 
ATOM      8  C   UNL     1     113.418 125.362 136.693  0.00  0.00    +0.000 A 
ATOM      9  C   UNL     1     112.812 124.088 136.920  0.00  0.00    +0.000 A 
ATOM     10  C   UNL     1     113.486 124.547 136.795  0.00  0.00    +0.000 A 
ATOM     11  C   UNL     1     114.128 125.829 136.564  0.00  0.00    +0.000 A 
ATOM     12  C   UNL     1     113.289 127.051 136.480  0.00  0.00    +0.000 A 
ATOM     13  C   UNL     1     114.063 126.679 136.457  0.00  0.00    +0.000 A 
ENDROOT
BRANCH   5  19
ATOM     14  O   UNL     1     110.843 125.754 136.160  0.00  0.00    +0.000 OA
ATOM     15  O   UNL     1     109.855 126.422 138.328  0.00  0.00    +0.000 OA
ATOM     16  O   UNL     1     109.027 126.691 136.926  0.00  0.00    +0.000 OA
ATOM     17  C   UNL     1     110.927 125.842 137.584  0.00  0.00    +0.000 C 
ATOM     18  C   UNL     1     110.184 126.199 137.606  0.00  0.00    +0.000 C 
ATOM     19  C   UNL     1     111.257 125.619 136.861  0.00  0.00    +0.000 C 
ATOM     20  C   UNL     1     109.771 126.334 136.905  0.00  0.00    +0.000 C 
ATOM     21  C   UNL     1     110.100 126.111 136.182  0.00  0.00    +0.000 C 
BRANCH  21  23
ATOM     22  O   UNL     1     109.866 125.805 134.806  0.00  0.00    +0.000 OA
ATOM     23  C   UNL     1     109.686 126.245 135.481  0.00  0.00    +0.000 C 
ENDBRANCH  21  23
BRANCH  17  24
ATOM     24  O   UNL     1     111.342 125.707 138.285  0.00  0.00    +0.000 OA
BRANCH  24  26
ATOM     25  O   UNL     1     110.448 125.314 139.329  0.00  0.00    +0.000 OA
ATOM     26  C   UNL     1     110.981 125.858 139.012  0.00  0.00    +0.000 C 
ATOM     27  C   UNL     1     111.155 126.553 139.421  0.00  0.00    +0.000 C 
ENDBRANCH  24  26
ENDBRANCH  17  24
ENDBRANCH   5  19
BRANCH  12  30
ATOM     28  O   UNL     1     112.866 129.304 134.772  0.00  0.00    +0.000 OA
ATOM     29  O   UNL     1     113.003 130.313 136.070  0.00  0.00    +0.000 OA
ATOM     30  C   UNL     1     113.218 127.866 136.378  0.00  0.00    +0.000 A 
ATOM     31  C   UNL     1     113.078 128.177 135.626  0.00  0.00    +0.000 A 
ATOM     32  C   UNL     1     113.286 128.371 137.026  0.00  0.00    +0.000 A 
ATOM     33  C   UNL     1     113.006 128.993 135.523  0.00  0.00    +0.000 A 
ATOM     34  C   UNL     1     113.214 129.187 136.924  0.00  0.00    +0.000 A 
ATOM     35  C   UNL     1     113.074 129.498 136.172  0.00  0.00    +0.000 A 
ENDBRANCH  12  30
TORSDOF 5
ENDMDL
MODEL 5
REMARK VINA RESULT:      -9.6      1.366      3.313
REMARK  Name = 14681460
REMARK  5 active torsions:
REMARK  status: ('A' for Active; 'I' for Inactive)
REMARK    1  A    between atoms: O_2  and  C_13
REMARK    2  A    between atoms: O_2  and  C_25
REMARK    3  A    between atoms: C_15  and  C_18
REMARK    4  A    between atoms: C_17  and  C_19
REMARK    5  A    between atoms: C_27  and  C_30
REMARK                            x       y       z     vdW  Elec       q    Type
REMARK                         _______ _______ _______ _____ _____    ______ ____
ROOT
ATOM      1  O   UNL     1     112.463 127.278 136.115  0.00  0.00    +0.000 OA
ATOM      2  O   UNL     1     111.519 124.615 136.676  0.00  0.00    +0.000 OA
ATOM      3  O   UNL     1     110.017 126.296 134.919  0.00  0.00    +0.000 OA
ATOM      4  O   UNL     1     110.456 127.635 134.613  0.00  0.00    +0.000 OA
ATOM      5  C   UNL     1     111.976 125.938 136.389  0.00  0.00    +0.000 A 
ATOM      6  C   UNL     1     111.878 126.659 136.001  0.00  0.00    +0.000 A 
ATOM      7  C   UNL     1     111.420 125.336 136.288  0.00  0.00    +0.000 A 
ATOM      8  C   UNL     1     111.225 126.778 135.511  0.00  0.00    +0.000 A 
ATOM      9  C   UNL     1     110.767 125.455 135.798  0.00  0.00    +0.000 A 
ATOM     10  C   UNL     1     110.670 126.177 135.409  0.00  0.00    +0.000 A 
ATOM     11  C   UNL     1     111.112 127.525 135.101  0.00  0.00    +0.000 A 
ATOM     12  C   UNL     1     112.366 128.031 135.713  0.00  0.00    +0.000 A 
ATOM     13  C   UNL     1     111.687 128.156 135.203  0.00  0.00    +0.000 A 
ENDROOT
BRANCH   5  19
ATOM     14  O   UNL     1     113.336 125.537 136.563  0.00  0.00    +0.000 OA
ATOM     15  O   UNL     1     113.171 126.024 138.983  0.00  0.00    +0.000 OA
ATOM     16  O   UNL     1     114.587 125.460 138.350  0.00  0.00    +0.000 OA
ATOM     17  C   UNL     1     112.573 125.981 137.687  0.00  0.00    +0.000 C 
ATOM     18  C   UNL     1     113.226 125.861 138.177  0.00  0.00    +0.000 C 
ATOM     19  C   UNL     1     112.628 125.819 136.879  0.00  0.00    +0.000 C 
ATOM     20  C   UNL     1     113.934 125.580 137.859  0.00  0.00    +0.000 C 
ATOM     21  C   UNL     1     113.989 125.417 137.053  0.00  0.00    +0.000 C 
BRANCH  21  23
ATOM     22  O   UNL     1     114.958 125.412 136.002  0.00  0.00    +0.000 OA
ATOM     23  C   UNL     1     114.696 125.136 136.735  0.00  0.00    +0.000 C 
ENDBRANCH  21  23
BRANCH  17  24
ATOM     24  O   UNL     1     111.865 126.263 138.003  0.00  0.00    +0.000 OA
BRANCH  24  26
ATOM     25  O   UNL     1     111.586 125.613 139.246  0.00  0.00    +0.000 OA
ATOM     26  C   UNL     1     111.765 126.298 138.822  0.00  0.00    +0.000 C 
ATOM     27  C   UNL     1     111.844 127.019 139.215  0.00  0.00    +0.000 C 
ENDBRANCH  24  26
ENDBRANCH  17  24
ENDBRANCH   5  19
BRANCH  12  30
ATOM     28  O   UNL     1     114.850 129.253 134.999  0.00  0.00    +0.000 OA
ATOM     29  O   UNL     1     114.594 130.431 136.126  0.00  0.00    +0.000 OA
ATOM     30  C   UNL     1     112.923 128.631 135.816  0.00  0.00    +0.000 A 
ATOM     31  C   UNL     1     113.608 128.642 135.356  0.00  0.00    +0.000 A 
ATOM     32  C   UNL     1     112.796 129.220 136.379  0.00  0.00    +0.000 A 
ATOM     33  C   UNL     1     114.165 129.242 135.459  0.00  0.00    +0.000 A 
ATOM     34  C   UNL     1     113.352 129.820 136.482  0.00  0.00    +0.000 A 
ATOM     35  C   UNL     1     114.037 129.831 136.023  0.00  0.00    +0.000 A 
ENDBRANCH  12  30
TORSDOF 5
ENDMDL
MODEL 6
REMARK VINA RESULT:      -9.5     10.032     12.724
REMARK  Name = 14681460
REMARK  5 active torsions:
REMARK  status: ('A' for Active; 'I' for Inactive)
REMARK    1  A    between atoms: O_2  and  C_13
REMARK    2  A    between atoms: O_2  and  C_25
REMARK    3  A    between atoms: C_15  and  C_18
REMARK    4  A    between atoms: C_17  and  C_19
REMARK    5  A    between atoms: C_27  and  C_30
REMARK                            x       y       z     vdW  Elec       q    Type
REMARK                         _______ _______ _______ _____ _____    ______ ____
ROOT
ATOM      1  O   UNL     1     105.265 124.995 147.395  0.00  0.00    +0.000 OA
ATOM      2  O   UNL     1     107.973 125.691 146.700  0.00  0.00    +0.000 OA
ATOM      3  O   UNL     1     107.442 124.464 149.227  0.00  0.00    +0.000 OA
ATOM      4  O   UNL     1     106.101 124.101 149.612  0.00  0.00    +0.000 OA
ATOM      5  C   UNL     1     106.634 125.341 147.057  0.00  0.00    +0.000 A 
ATOM      6  C   UNL     1     106.100 125.020 147.598  0.00  0.00    +0.000 A 
ATOM      7  C   UNL     1     107.439 125.370 147.240  0.00  0.00    +0.000 A 
ATOM      8  C   UNL     1     106.370 124.728 148.320  0.00  0.00    +0.000 A 
ATOM      9  C   UNL     1     107.708 125.078 147.963  0.00  0.00    +0.000 A 
ATOM     10  C   UNL     1     107.173 124.756 148.503  0.00  0.00    +0.000 A 
ATOM     11  C   UNL     1     105.822 124.390 148.891  0.00  0.00    +0.000 A 
ATOM     12  C   UNL     1     104.704 124.662 147.954  0.00  0.00    +0.000 A 
ATOM     13  C   UNL     1     104.984 124.358 148.706  0.00  0.00    +0.000 A 
ENDROOT
BRANCH   5  19
ATOM     14  O   UNL     1     106.243 125.119 145.702  0.00  0.00    +0.000 OA
ATOM     15  O   UNL     1     105.802 127.539 145.433  0.00  0.00    +0.000 OA
ATOM     16  O   UNL     1     105.557 126.511 144.165  0.00  0.00    +0.000 OA
ATOM     17  C   UNL     1     106.218 126.441 146.245  0.00  0.00    +0.000 C 
ATOM     18  C   UNL     1     105.949 126.733 145.522  0.00  0.00    +0.000 C 
ATOM     19  C   UNL     1     106.365 125.633 146.335  0.00  0.00    +0.000 C 
ATOM     20  C   UNL     1     105.827 126.218 144.889  0.00  0.00    +0.000 C 
ATOM     21  C   UNL     1     105.973 125.412 144.979  0.00  0.00    +0.000 C 
BRANCH  21  23
ATOM     22  O   UNL     1     106.218 124.157 144.340  0.00  0.00    +0.000 OA
ATOM     23  C   UNL     1     105.851 124.897 144.346  0.00  0.00    +0.000 C 
ENDBRANCH  21  23
BRANCH  17  24
ATOM     24  O   UNL     1     106.341 126.955 146.879  0.00  0.00    +0.000 OA
BRANCH  24  26
ATOM     25  O   UNL     1     106.792 128.228 146.412  0.00  0.00    +0.000 OA
ATOM     26  C   UNL     1     106.218 127.765 146.781  0.00  0.00    +0.000 C 
ATOM     27  C   UNL     1     105.521 128.112 147.054  0.00  0.00    +0.000 C 
ENDBRANCH  24  26
ENDBRANCH  17  24
ENDBRANCH   5  19
BRANCH  12  30
ATOM     28  O   UNL     1     102.497 123.349 146.697  0.00  0.00    +0.000 OA
ATOM     29  O   UNL     1     101.490 124.551 147.211  0.00  0.00    +0.000 OA
ATOM     30  C   UNL     1     103.900 124.635 147.768  0.00  0.00    +0.000 A 
ATOM     31  C   UNL     1     103.600 124.006 147.326  0.00  0.00    +0.000 A 
ATOM     32  C   UNL     1     103.396 125.235 148.025  0.00  0.00    +0.000 A 
ATOM     33  C   UNL     1     102.797 123.978 147.140  0.00  0.00    +0.000 A 
ATOM     34  C   UNL     1     102.593 125.207 147.839  0.00  0.00    +0.000 A 
ATOM     35  C   UNL     1     102.293 124.579 147.397  0.00  0.00    +0.000 A 
ENDBRANCH  12  30
TORSDOF 5
ENDMDL
MODEL 7
REMARK VINA RESULT:      -9.4      1.663      4.024
REMARK  Name = 14681460
REMARK  5 active torsions:
REMARK  status: ('A' for Active; 'I' for Inactive)
REMARK    1  A    between atoms: O_2  and  C_13
REMARK    2  A    between atoms: O_2  and  C_25
REMARK    3  A    between atoms: C_15  and  C_18
REMARK    4  A    between atoms: C_17  and  C_19
REMARK    5  A    between atoms: C_27  and  C_30
REMARK                            x       y       z     vdW  Elec       q    Type
REMARK                         _______ _______ _______ _____ _____    ______ ____
ROOT
ATOM      1  O   UNL     1     112.163 126.841 136.101  0.00  0.00    +0.000 OA
ATOM      2  O   UNL     1     110.543 128.701 134.612  0.00  0.00    +0.000 OA
ATOM      3  O   UNL     1     109.834 125.932 134.642  0.00  0.00    +0.000 OA
ATOM      4  O   UNL     1     110.619 124.970 135.375  0.00  0.00    +0.000 OA
ATOM      5  C   UNL     1     111.338 127.768 135.347  0.00  0.00    +0.000 A 
ATOM      6  C   UNL     1     111.484 126.996 135.596  0.00  0.00    +0.000 A 
ATOM      7  C   UNL     1     110.689 127.929 134.862  0.00  0.00    +0.000 A 
ATOM      8  C   UNL     1     110.983 126.384 135.361  0.00  0.00    +0.000 A 
ATOM      9  C   UNL     1     110.188 127.317 134.627  0.00  0.00    +0.000 A 
ATOM     10  C   UNL     1     110.336 126.544 134.877  0.00  0.00    +0.000 A 
ATOM     11  C   UNL     1     111.126 125.575 135.615  0.00  0.00    +0.000 A 
ATOM     12  C   UNL     1     112.321 126.039 136.364  0.00  0.00    +0.000 A 
ATOM     13  C   UNL     1     111.799 125.402 136.120  0.00  0.00    +0.000 A 
ENDROOT
BRANCH   5  19
ATOM     14  O   UNL     1     112.548 128.508 135.181  0.00  0.00    +0.000 OA
ATOM     15  O   UNL     1     111.923 129.957 137.087  0.00  0.00    +0.000 OA
ATOM     16  O   UNL     1     113.343 130.215 136.286  0.00  0.00    +0.000 OA
ATOM     17  C   UNL     1     111.630 128.863 136.217  0.00  0.00    +0.000 C 
ATOM     18  C   UNL     1     112.132 129.475 136.452  0.00  0.00    +0.000 C 
ATOM     19  C   UNL     1     111.839 128.379 135.581  0.00  0.00    +0.000 C 
ATOM     20  C   UNL     1     112.841 129.603 136.051  0.00  0.00    +0.000 C 
ATOM     21  C   UNL     1     113.050 129.120 135.416  0.00  0.00    +0.000 C 
BRANCH  21  23
ATOM     22  O   UNL     1     114.368 128.692 135.066  0.00  0.00    +0.000 OA
ATOM     23  C   UNL     1     113.759 129.248 135.015  0.00  0.00    +0.000 C 
ENDBRANCH  21  23
BRANCH  17  24
ATOM     24  O   UNL     1     110.921 128.734 136.617  0.00  0.00    +0.000 OA
BRANCH  24  26
ATOM     25  O   UNL     1     111.171 128.813 138.022  0.00  0.00    +0.000 OA
ATOM     26  C   UNL     1     110.788 129.094 137.348  0.00  0.00    +0.000 C 
ATOM     27  C   UNL     1     110.272 129.736 137.403  0.00  0.00    +0.000 C 
ENDBRANCH  24  26
ENDBRANCH  17  24
ENDBRANCH   5  19
BRANCH  12  30
ATOM     28  O   UNL     1     113.546 126.065 138.947  0.00  0.00    +0.000 OA
ATOM     29  O   UNL     1     114.915 125.407 138.304  0.00  0.00    +0.000 OA
ATOM     30  C   UNL     1     112.969 125.881 136.849  0.00  0.00    +0.000 A 
ATOM     31  C   UNL     1     112.933 126.052 137.655  0.00  0.00    +0.000 A 
ATOM     32  C   UNL     1     113.654 125.552 136.528  0.00  0.00    +0.000 A 
ATOM     33  C   UNL     1     113.582 125.894 138.141  0.00  0.00    +0.000 A 
ATOM     34  C   UNL     1     114.303 125.394 137.013  0.00  0.00    +0.000 A 
ATOM     35  C   UNL     1     114.267 125.565 137.819  0.00  0.00    +0.000 A 
ENDBRANCH  12  30
TORSDOF 5
ENDMDL
MODEL 8
REMARK VINA RESULT:      -9.3     10.030     12.804
REMARK  Name = 14681460
REMARK  5 active torsions:
REMARK  status: ('A' for Active; 'I' for Inactive)
REMARK    1  A    between atoms: O_2  and  C_13
REMARK    2  A    between atoms: O_2  and  C_25
REMARK    3  A    between atoms: C_15  and  C_18
REMARK    4  A    between atoms: C_17  and  C_19
REMARK    5  A    between atoms: C_27  and  C_30
REMARK                            x       y       z     vdW  Elec       q    Type
REMARK                         _______ _______ _______ _____ _____    ______ ____
ROOT
ATOM      1  O   UNL     1     105.695 125.251 146.999  0.00  0.00    +0.000 OA
ATOM      2  O   UNL     1     104.866 124.364 149.612  0.00  0.00    +0.000 OA
ATOM      3  O   UNL     1     107.654 124.614 149.032  0.00  0.00    +0.000 OA
ATOM      4  O   UNL     1     108.109 125.055 147.737  0.00  0.00    +0.000 OA
ATOM      5  C   UNL     1     105.290 124.803 148.320  0.00  0.00    +0.000 A 
ATOM      6  C   UNL     1     105.897 124.991 147.793  0.00  0.00    +0.000 A 
ATOM      7  C   UNL     1     105.472 124.552 149.085  0.00  0.00    +0.000 A 
ATOM      8  C   UNL     1     106.684 124.928 148.031  0.00  0.00    +0.000 A 
ATOM      9  C   UNL     1     106.260 124.489 149.323  0.00  0.00    +0.000 A 
ATOM     10  C   UNL     1     106.865 124.677 148.795  0.00  0.00    +0.000 A 
ATOM     11  C   UNL     1     107.324 125.121 147.490  0.00  0.00    +0.000 A 
ATOM     12  C   UNL     1     106.322 125.448 146.446  0.00  0.00    +0.000 A 
ATOM     13  C   UNL     1     107.142 125.382 146.693  0.00  0.00    +0.000 A 
ENDROOT
BRANCH   5  19
ATOM     14  O   UNL     1     104.139 124.238 147.691  0.00  0.00    +0.000 OA
ATOM     15  O   UNL     1     102.869 126.310 148.155  0.00  0.00    +0.000 OA
ATOM     16  O   UNL     1     102.140 125.055 147.370  0.00  0.00    +0.000 OA
ATOM     17  C   UNL     1     104.079 125.557 148.237  0.00  0.00    +0.000 C 
ATOM     18  C   UNL     1     103.292 125.620 148.000  0.00  0.00    +0.000 C 
ATOM     19  C   UNL     1     104.504 124.866 148.083  0.00  0.00    +0.000 C 
ATOM     20  C   UNL     1     102.928 124.992 147.608  0.00  0.00    +0.000 C 
ATOM     21  C   UNL     1     103.351 124.301 147.453  0.00  0.00    +0.000 C 
BRANCH  21  23
ATOM     22  O   UNL     1     103.435 123.174 146.578  0.00  0.00    +0.000 OA
ATOM     23  C   UNL     1     102.988 123.673 147.061  0.00  0.00    +0.000 C 
ENDBRANCH  21  23
BRANCH  17  24
ATOM     24  O   UNL     1     104.444 126.185 148.630  0.00  0.00    +0.000 OA
BRANCH  24  26
ATOM     25  O   UNL     1     103.534 126.801 149.544  0.00  0.00    +0.000 OA
ATOM     26  C   UNL     1     103.998 126.839 148.863  0.00  0.00    +0.000 C 
ATOM     27  C   UNL     1     104.018 127.532 148.415  0.00  0.00    +0.000 C 
ENDBRANCH  24  26
ENDBRANCH  17  24
ENDBRANCH   5  19
BRANCH  12  30
ATOM     28  O   UNL     1     105.649 124.837 143.735  0.00  0.00    +0.000 OA
ATOM     29  O   UNL     1     105.584 126.449 143.388  0.00  0.00    +0.000 OA
ATOM     30  C   UNL     1     106.137 125.698 145.681  0.00  0.00    +0.000 A 
ATOM     31  C   UNL     1     105.986 125.143 145.091  0.00  0.00    +0.000 A 
ATOM     32  C   UNL     1     106.104 126.504 145.507  0.00  0.00    +0.000 A 
ATOM     33  C   UNL     1     105.801 125.392 144.326  0.00  0.00    +0.000 A 
ATOM     34  C   UNL     1     105.920 126.754 144.743  0.00  0.00    +0.000 A 
ATOM     35  C   UNL     1     105.768 126.198 144.153  0.00  0.00    +0.000 A 
ENDBRANCH  12  30
TORSDOF 5
ENDMDL
MODEL 9
REMARK VINA RESULT:      -9.3      1.670      3.488
REMARK  Name = 14681460
REMARK  5 active torsions:
REMARK  status: ('A' for Active; 'I' for Inactive)
REMARK    1  A    between atoms: O_2  and  C_13
REMARK    2  A    between atoms: O_2  and  C_25
REMARK    3  A    between atoms: C_15  and  C_18
REMARK    4  A    between atoms: C_17  and  C_19
REMARK    5  A    between atoms: C_27  and  C_30
REMARK                            x       y       z     vdW  Elec       q    Type
REMARK                         _______ _______ _______ _____ _____    ______ ____
ROOT
ATOM      1  O   UNL     1     111.773 127.591 136.247  0.00  0.00    +0.000 OA
ATOM      2  O   UNL     1     114.188 126.183 136.943  0.00  0.00    +0.000 OA
ATOM      3  O   UNL     1     114.364 128.650 135.511  0.00  0.00    +0.000 OA
ATOM      4  O   UNL     1     113.178 129.385 135.144  0.00  0.00    +0.000 OA
ATOM      5  C   UNL     1     112.998 126.891 136.592  0.00  0.00    +0.000 A 
ATOM      6  C   UNL     1     112.631 127.538 136.236  0.00  0.00    +0.000 A 
ATOM      7  C   UNL     1     113.821 126.830 136.587  0.00  0.00    +0.000 A 
ATOM      8  C   UNL     1     113.086 128.125 135.876  0.00  0.00    +0.000 A 
ATOM      9  C   UNL     1     114.276 127.416 136.227  0.00  0.00    +0.000 A 
ATOM     10  C   UNL     1     113.908 128.064 135.871  0.00  0.00    +0.000 A 
ATOM     11  C   UNL     1     112.714 128.804 135.502  0.00  0.00    +0.000 A 
ATOM     12  C   UNL     1     111.384 128.262 135.878  0.00  0.00    +0.000 A 
ATOM     13  C   UNL     1     111.858 128.872 135.503  0.00  0.00    +0.000 A 
ENDROOT
BRANCH   5  19
ATOM     14  O   UNL     1     112.209 125.704 136.497  0.00  0.00    +0.000 OA
ATOM     15  O   UNL     1     111.846 125.749 138.944  0.00  0.00    +0.000 OA
ATOM     16  O   UNL     1     111.177 124.546 138.033  0.00  0.00    +0.000 OA
ATOM     17  C   UNL     1     112.422 126.320 137.768  0.00  0.00    +0.000 C 
ATOM     18  C   UNL     1     111.967 125.734 138.129  0.00  0.00    +0.000 C 
ATOM     19  C   UNL     1     112.543 126.305 136.952  0.00  0.00    +0.000 C 
ATOM     20  C   UNL     1     111.633 125.133 137.672  0.00  0.00    +0.000 C 
ATOM     21  C   UNL     1     111.754 125.118 136.857  0.00  0.00    +0.000 C 
BRANCH  21  23
ATOM     22  O   UNL     1     111.065 124.698 135.677  0.00  0.00    +0.000 OA
ATOM     23  C   UNL     1     111.419 124.517 136.401  0.00  0.00    +0.000 C 
ENDBRANCH  21  23
BRANCH  17  24
ATOM     24  O   UNL     1     112.757 126.921 138.224  0.00  0.00    +0.000 OA
BRANCH  24  26
ATOM     25  O   UNL     1     111.791 127.387 139.170  0.00  0.00    +0.000 OA
ATOM     26  C   UNL     1     112.516 127.028 139.006  0.00  0.00    +0.000 C 
ATOM     27  C   UNL     1     113.001 126.776 139.624  0.00  0.00    +0.000 C 
ENDBRANCH  24  26
ENDBRANCH  17  24
ENDBRANCH   5  19
BRANCH  12  30
ATOM     28  O   UNL     1     108.971 129.090 137.167  0.00  0.00    +0.000 OA
ATOM     29  O   UNL     1     108.092 128.496 135.902  0.00  0.00    +0.000 OA
ATOM     30  C   UNL     1     110.561 128.320 135.884  0.00  0.00    +0.000 A 
ATOM     31  C   UNL     1     110.178 128.676 136.522  0.00  0.00    +0.000 A 
ATOM     32  C   UNL     1     110.122 128.024 135.253  0.00  0.00    +0.000 A 
ATOM     33  C   UNL     1     109.354 128.734 136.529  0.00  0.00    +0.000 A 
ATOM     34  C   UNL     1     109.299 128.082 135.258  0.00  0.00    +0.000 A 
ATOM     35  C   UNL     1     108.915 128.438 135.897  0.00  0.00    +0.000 A 
ENDBRANCH  12  30
TORSDOF 5
ENDMDL
MODEL 10
REMARK VINA RESULT:      -9.3      1.248      2.660
REMARK  Name = 14681460
REMARK  5 active torsions:
REMARK  status: ('A' for Active; 'I' for Inactive)
REMARK    1  A    between atoms: O_2  and  C_13
REMARK    2  A    between atoms: O_2  and  C_25
REMARK    3  A    between atoms: C_15  and  C_18
REMARK    4  A    between atoms: C_17  and  C_19
REMARK    5  A    between atoms: C_27  and  C_30
REMARK                            x       y       z     vdW  Elec       q    Type
REMARK                         _______ _______ _______ _____ _____    ______ ____
ROOT
ATOM      1  O   UNL     1     112.213 127.258 137.490  0.00  0.00    +0.000 OA
ATOM      2  O   UNL     1     110.623 125.309 138.895  0.00  0.00    +0.000 OA
ATOM      3  O   UNL     1     112.422 126.976 140.364  0.00  0.00    +0.000 OA
ATOM      4  O   UNL     1     113.235 127.963 139.697  0.00  0.00    +0.000 OA
ATOM      5  C   UNL     1     111.417 126.279 138.211  0.00  0.00    +0.000 A 
ATOM      6  C   UNL     1     111.981 126.881 138.228  0.00  0.00    +0.000 A 
ATOM      7  C   UNL     1     111.187 125.910 138.912  0.00  0.00    +0.000 A 
ATOM      8  C   UNL     1     112.316 127.113 138.945  0.00  0.00    +0.000 A 
ATOM      9  C   UNL     1     111.522 126.142 139.630  0.00  0.00    +0.000 A 
ATOM     10  C   UNL     1     112.087 126.743 139.645  0.00  0.00    +0.000 A 
ATOM     11  C   UNL     1     112.905 127.738 138.975  0.00  0.00    +0.000 A 
ATOM     12  C   UNL     1     112.800 127.885 137.501  0.00  0.00    +0.000 A 
ATOM     13  C   UNL     1     113.149 128.126 138.248  0.00  0.00    +0.000 A 
ENDROOT
BRANCH   5  19
ATOM     14  O   UNL     1     110.434 126.456 137.190  0.00  0.00    +0.000 OA
ATOM     15  O   UNL     1     111.376 124.533 135.950  0.00  0.00    +0.000 OA
ATOM     16  O   UNL     1     110.078 125.351 135.341  0.00  0.00    +0.000 OA
ATOM     17  C   UNL     1     111.397 125.406 137.080  0.00  0.00    +0.000 C 
ATOM     18  C   UNL     1     111.062 125.174 136.363  0.00  0.00    +0.000 C 
ATOM     19  C   UNL     1     111.083 126.048 137.494  0.00  0.00    +0.000 C 
ATOM     20  C   UNL     1     110.413 125.583 136.059  0.00  0.00    +0.000 C 
ATOM     21  C   UNL     1     110.099 126.224 136.472  0.00  0.00    +0.000 C 
BRANCH  21  23
ATOM     22  O   UNL     1     108.907 126.985 136.683  0.00  0.00    +0.000 OA
ATOM     23  C   UNL     1     109.450 126.634 136.169  0.00  0.00    +0.000 C 
ENDBRANCH  21  23
BRANCH  17  24
ATOM     24  O   UNL     1     112.045 124.997 137.384  0.00  0.00    +0.000 OA
BRANCH  24  26
ATOM     25  O   UNL     1     111.868 123.598 137.150  0.00  0.00    +0.000 OA
ATOM     26  C   UNL     1     112.294 124.295 137.029  0.00  0.00    +0.000 C 
ATOM     27  C   UNL     1     112.967 124.290 136.552  0.00  0.00    +0.000 C 
ENDBRANCH  24  26
ENDBRANCH  17  24
ENDBRANCH   5  19
BRANCH  12  30
ATOM     28  O   UNL     1     112.384 129.894 135.511  0.00  0.00    +0.000 OA
ATOM     29  O   UNL     1     113.711 129.356 134.691  0.00  0.00    +0.000 OA
ATOM     30  C   UNL     1     113.028 128.252 136.799  0.00  0.00    +0.000 A 
ATOM     31  C   UNL     1     112.592 128.889 136.506  0.00  0.00    +0.000 A 
ATOM     32  C   UNL     1     113.691 127.984 136.388  0.00  0.00    +0.000 A 
ATOM     33  C   UNL     1     112.819 129.257 135.803  0.00  0.00    +0.000 A 
ATOM     34  C   UNL     1     113.918 128.352 135.686  0.00  0.00    +0.000 A 
ATOM     35  C   UNL     1     113.483 128.988 135.393  0.00  0.00    +0.000 A 
ENDBRANCH  12  30
TORSDOF 5
ENDMDL
