MODEL 1
REMARK VINA RESULT:     -10.1      0.000      0.000
REMARK  Name = 44258112
REMARK  10 active torsions:
REMARK  status: ('A' for Active; 'I' for Inactive)
REMARK    1  A    between atoms: O_1  and  C_19
REMARK    2  A    between atoms: O_1  and  C_22
REMARK    3  A    between atoms: O_5  and  C_24
REMARK    4  A    between atoms: O_5  and  C_31
REMARK    5  A    between atoms: O_10  and  C_29
REMARK    6  A    between atoms: O_10  and  C_34
REMARK    7  A    between atoms: C_23  and  C_29
REMARK    8  A    between atoms: C_34  and  C_38
REMARK    9  A    between atoms: C_38  and  C_42
REMARK   10  A    between atoms: C_40  and  C_43
REMARK                            x       y       z     vdW  Elec       q    Type
REMARK                         _______ _______ _______ _____ _____    ______ ____
ROOT
ATOM      1  O   UNL     1     113.266 127.788 138.838  0.00  0.00    +0.000 OA
ATOM      2  O   UNL     1     111.972 125.788 139.508  0.00  0.00    +0.000 OA
ATOM      3  O   UNL     1     112.853 126.615 140.632  0.00  0.00    +0.000 OA
ATOM      4  C   UNL     1     112.394 126.708 138.499  0.00  0.00    +0.000 C 
ATOM      5  C   UNL     1     112.403 126.454 139.285  0.00  0.00    +0.000 C 
ATOM      6  C   UNL     1     112.844 126.868 139.846  0.00  0.00    +0.000 C 
ATOM      7  C   UNL     1     113.275 127.535 139.622  0.00  0.00    +0.000 C 
ATOM      8  C   UNL     1     112.826 127.374 138.275  0.00  0.00    +0.000 C 
ENDROOT
BRANCH   4   9
ATOM      9  O   UNL     1     111.954 126.293 137.938  0.00  0.00    +0.000 OA
BRANCH   9  14
ATOM     10  O   UNL     1     113.088 125.483 137.623  0.00  0.00    +0.000 OA
ATOM     11  O   UNL     1     110.988 125.280 137.065  0.00  0.00    +0.000 OA
ATOM     12  O   UNL     1     111.639 123.963 136.314  0.00  0.00    +0.000 OA
ATOM     13  O   UNL     1     113.257 123.660 136.436  0.00  0.00    +0.000 OA
ATOM     14  C   UNL     1     112.280 125.635 137.562  0.00  0.00    +0.000 C 
ATOM     15  C   UNL     1     111.796 125.128 137.126  0.00  0.00    +0.000 C 
ATOM     16  C   UNL     1     112.123 124.469 136.750  0.00  0.00    +0.000 C 
ATOM     17  C   UNL     1     112.931 124.318 136.811  0.00  0.00    +0.000 C 
ATOM     18  C   UNL     1     113.414 124.825 137.248  0.00  0.00    +0.000 C 
ATOM     19  C   UNL     1     114.223 124.674 137.309  0.00  0.00    +0.000 C 
ENDBRANCH   9  14
ENDBRANCH   4   9
BRANCH   8  20
ATOM     20  O   UNL     1     112.816 127.627 137.491  0.00  0.00    +0.000 OA
BRANCH  20  24
ATOM     21  O   UNL     1     111.483 130.216 137.425  0.00  0.00    +0.000 OA
ATOM     22  O   UNL     1     114.209 129.993 136.492  0.00  0.00    +0.000 OA
ATOM     23  O   UNL     1     113.517 131.259 136.474  0.00  0.00    +0.000 OA
ATOM     24  C   UNL     1     112.827 128.433 137.317  0.00  0.00    +0.000 A 
ATOM     25  C   UNL     1     112.132 128.917 137.465  0.00  0.00    +0.000 A 
ATOM     26  C   UNL     1     113.533 128.796 136.987  0.00  0.00    +0.000 A 
ATOM     27  C   UNL     1     112.153 129.756 137.281  0.00  0.00    +0.000 A 
ATOM     28  C   UNL     1     113.535 129.636 136.810  0.00  0.00    +0.000 A 
ATOM     29  C   UNL     1     112.831 130.104 136.964  0.00  0.00    +0.000 A 
ATOM     30  C   UNL     1     112.839 130.910 136.791  0.00  0.00    +0.000 A 
ATOM     31  C   UNL     1     111.490 131.022 137.252  0.00  0.00    +0.000 A 
ATOM     32  C   UNL     1     112.168 131.370 136.935  0.00  0.00    +0.000 A 
BRANCH  31  35
ATOM     33  O   UNL     1     110.042 132.830 138.927  0.00  0.00    +0.000 OA
ATOM     34  O   UNL     1     108.811 132.860 137.829  0.00  0.00    +0.000 OA
ATOM     35  C   UNL     1     110.820 131.482 137.396  0.00  0.00    +0.000 A 
ATOM     36  C   UNL     1     110.767 131.926 138.090  0.00  0.00    +0.000 A 
ATOM     37  C   UNL     1     110.205 131.497 136.847  0.00  0.00    +0.000 A 
ATOM     38  C   UNL     1     110.097 132.385 138.234  0.00  0.00    +0.000 A 
ATOM     39  C   UNL     1     109.536 131.956 136.992  0.00  0.00    +0.000 A 
ATOM     40  C   UNL     1     109.481 132.401 137.685  0.00  0.00    +0.000 A 
ENDBRANCH  31  35
ENDBRANCH  20  24
ENDBRANCH   8  20
BRANCH   7  41
ATOM     41  C   UNL     1     113.715 127.948 140.185  0.00  0.00    +0.000 C 
BRANCH  41  42
ATOM     42  O   UNL     1     113.670 128.771 140.222  0.00  0.00    +0.000 OA
BRANCH  42  44
ATOM     43  O   UNL     1     114.977 128.869 140.791  0.00  0.00    +0.000 OA
ATOM     44  C   UNL     1     114.233 129.197 140.648  0.00  0.00    +0.000 C 
BRANCH  44  45
ATOM     45  C   UNL     1     114.054 129.950 140.931  0.00  0.00    +0.000 C 
BRANCH  45  48
ATOM     46  O   UNL     1     114.214 131.008 139.983  0.00  0.00    +0.000 OA
ATOM     47  O   UNL     1     115.151 130.857 141.051  0.00  0.00    +0.000 OA
ATOM     48  C   UNL     1     114.473 130.605 140.655  0.00  0.00    +0.000 C 
ENDBRANCH  45  48
ENDBRANCH  44  45
ENDBRANCH  42  44
ENDBRANCH  41  42
ENDBRANCH   7  41
TORSDOF 10
ENDMDL
MODEL 2
REMARK VINA RESULT:      -9.9      6.535      8.791
REMARK  Name = 44258112
REMARK  10 active torsions:
REMARK  status: ('A' for Active; 'I' for Inactive)
REMARK    1  A    between atoms: O_1  and  C_19
REMARK    2  A    between atoms: O_1  and  C_22
REMARK    3  A    between atoms: O_5  and  C_24
REMARK    4  A    between atoms: O_5  and  C_31
REMARK    5  A    between atoms: O_10  and  C_29
REMARK    6  A    between atoms: O_10  and  C_34
REMARK    7  A    between atoms: C_23  and  C_29
REMARK    8  A    between atoms: C_34  and  C_38
REMARK    9  A    between atoms: C_38  and  C_42
REMARK   10  A    between atoms: C_40  and  C_43
REMARK                            x       y       z     vdW  Elec       q    Type
REMARK                         _______ _______ _______ _____ _____    ______ ____
ROOT
ATOM      1  O   UNL     1     106.533 126.710 141.388  0.00  0.00    +0.000 OA
ATOM      2  O   UNL     1     108.635 127.227 142.587  0.00  0.00    +0.000 OA
ATOM      3  O   UNL     1     107.254 128.054 142.950  0.00  0.00    +0.000 OA
ATOM      4  C   UNL     1     107.924 126.469 141.606  0.00  0.00    +0.000 C 
ATOM      5  C   UNL     1     107.934 127.055 142.187  0.00  0.00    +0.000 C 
ATOM      6  C   UNL     1     107.243 127.468 142.368  0.00  0.00    +0.000 C 
ATOM      7  C   UNL     1     106.543 127.295 141.968  0.00  0.00    +0.000 C 
ATOM      8  C   UNL     1     107.223 126.297 141.206  0.00  0.00    +0.000 C 
ENDROOT
BRANCH   4   9
ATOM      9  O   UNL     1     108.615 126.057 141.425  0.00  0.00    +0.000 OA
BRANCH   9  14
ATOM     10  O   UNL     1     108.987 127.056 140.472  0.00  0.00    +0.000 OA
ATOM     11  O   UNL     1     110.137 125.424 141.355  0.00  0.00    +0.000 OA
ATOM     12  O   UNL     1     111.270 126.106 140.368  0.00  0.00    +0.000 OA
ATOM     13  O   UNL     1     110.880 127.421 139.451  0.00  0.00    +0.000 OA
ATOM     14  C   UNL     1     109.182 126.398 140.931  0.00  0.00    +0.000 C 
ATOM     15  C   UNL     1     109.943 126.081 140.896  0.00  0.00    +0.000 C 
ATOM     16  C   UNL     1     110.509 126.423 140.402  0.00  0.00    +0.000 C 
ATOM     17  C   UNL     1     110.314 127.081 139.944  0.00  0.00    +0.000 C 
ATOM     18  C   UNL     1     109.553 127.397 139.979  0.00  0.00    +0.000 C 
ATOM     19  C   UNL     1     109.358 128.054 139.521  0.00  0.00    +0.000 C 
ENDBRANCH   9  14
ENDBRANCH   4   9
BRANCH   8  20
ATOM     20  O   UNL     1     107.214 125.712 140.625  0.00  0.00    +0.000 OA
BRANCH  20  24
ATOM     21  O   UNL     1     105.000 124.355 139.303  0.00  0.00    +0.000 OA
ATOM     22  O   UNL     1     105.789 123.540 141.961  0.00  0.00    +0.000 OA
ATOM     23  O   UNL     1     104.698 122.891 141.276  0.00  0.00    +0.000 OA
ATOM     24  C   UNL     1     106.622 125.137 140.629  0.00  0.00    +0.000 A 
ATOM     25  C   UNL     1     106.106 125.042 139.947  0.00  0.00    +0.000 A 
ATOM     26  C   UNL     1     106.516 124.628 141.313  0.00  0.00    +0.000 A 
ATOM     27  C   UNL     1     105.492 124.441 139.960  0.00  0.00    +0.000 A 
ATOM     28  C   UNL     1     105.897 124.033 141.308  0.00  0.00    +0.000 A 
ATOM     29  C   UNL     1     105.392 123.953 140.618  0.00  0.00    +0.000 A 
ATOM     30  C   UNL     1     104.799 123.379 140.619  0.00  0.00    +0.000 A 
ATOM     31  C   UNL     1     104.408 123.781 139.304  0.00  0.00    +0.000 A 
ATOM     32  C   UNL     1     104.307 123.293 139.962  0.00  0.00    +0.000 A 
BRANCH  31  35
ATOM     33  O   UNL     1     101.810 123.928 138.123  0.00  0.00    +0.000 OA
ATOM     34  O   UNL     1     102.439 123.438 136.678  0.00  0.00    +0.000 OA
ATOM     35  C   UNL     1     103.916 123.695 138.648  0.00  0.00    +0.000 A 
ATOM     36  C   UNL     1     103.108 123.855 138.714  0.00  0.00    +0.000 A 
ATOM     37  C   UNL     1     104.230 123.450 137.926  0.00  0.00    +0.000 A 
ATOM     38  C   UNL     1     102.616 123.769 138.057  0.00  0.00    +0.000 A 
ATOM     39  C   UNL     1     103.738 123.365 137.270  0.00  0.00    +0.000 A 
ATOM     40  C   UNL     1     102.931 123.524 137.335  0.00  0.00    +0.000 A 
ENDBRANCH  31  35
ENDBRANCH  20  24
ENDBRANCH   8  20
BRANCH   7  41
ATOM     41  C   UNL     1     105.852 127.709 142.150  0.00  0.00    +0.000 C 
BRANCH  41  42
ATOM     42  O   UNL     1     105.327 127.920 141.551  0.00  0.00    +0.000 OA
BRANCH  42  44
ATOM     43  O   UNL     1     104.151 128.022 142.355  0.00  0.00    +0.000 OA
ATOM     44  C   UNL     1     104.619 128.301 141.736  0.00  0.00    +0.000 C 
BRANCH  44  45
ATOM     45  C   UNL     1     104.380 128.961 141.304  0.00  0.00    +0.000 C 
BRANCH  45  48
ATOM     46  O   UNL     1     103.110 129.525 141.636  0.00  0.00    +0.000 OA
ATOM     47  O   UNL     1     103.254 128.735 140.454  0.00  0.00    +0.000 OA
ATOM     48  C   UNL     1     103.582 129.074 141.132  0.00  0.00    +0.000 C 
ENDBRANCH  45  48
ENDBRANCH  44  45
ENDBRANCH  42  44
ENDBRANCH  41  42
ENDBRANCH   7  41
TORSDOF 10
ENDMDL
MODEL 3
REMARK VINA RESULT:      -9.9      1.619      4.628
REMARK  Name = 44258112
REMARK  10 active torsions:
REMARK  status: ('A' for Active; 'I' for Inactive)
REMARK    1  A    between atoms: O_1  and  C_19
REMARK    2  A    between atoms: O_1  and  C_22
REMARK    3  A    between atoms: O_5  and  C_24
REMARK    4  A    between atoms: O_5  and  C_31
REMARK    5  A    between atoms: O_10  and  C_29
REMARK    6  A    between atoms: O_10  and  C_34
REMARK    7  A    between atoms: C_23  and  C_29
REMARK    8  A    between atoms: C_34  and  C_38
REMARK    9  A    between atoms: C_38  and  C_42
REMARK   10  A    between atoms: C_40  and  C_43
REMARK                            x       y       z     vdW  Elec       q    Type
REMARK                         _______ _______ _______ _____ _____    ______ ____
ROOT
ATOM      1  O   UNL     1     112.683 127.967 139.109  0.00  0.00    +0.000 OA
ATOM      2  O   UNL     1     114.237 127.755 141.024  0.00  0.00    +0.000 OA
ATOM      3  O   UNL     1     113.150 126.554 140.706  0.00  0.00    +0.000 OA
ATOM      4  C   UNL     1     113.744 128.497 139.906  0.00  0.00    +0.000 C 
ATOM      5  C   UNL     1     113.719 127.826 140.386  0.00  0.00    +0.000 C 
ATOM      6  C   UNL     1     113.175 127.226 140.226  0.00  0.00    +0.000 C 
ATOM      7  C   UNL     1     112.657 127.297 139.588  0.00  0.00    +0.000 C 
ATOM      8  C   UNL     1     113.226 128.568 139.268  0.00  0.00    +0.000 C 
ENDROOT
BRANCH   4   9
ATOM      9  O   UNL     1     114.288 129.097 140.065  0.00  0.00    +0.000 OA
BRANCH   9  14
ATOM     10  O   UNL     1     113.369 129.686 140.988  0.00  0.00    +0.000 OA
ATOM     11  O   UNL     1     115.333 130.350 140.306  0.00  0.00    +0.000 OA
ATOM     12  O   UNL     1     114.937 131.566 141.349  0.00  0.00    +0.000 OA
ATOM     13  O   UNL     1     113.496 131.528 142.152  0.00  0.00    +0.000 OA
ATOM     14  C   UNL     1     114.089 129.705 140.587  0.00  0.00    +0.000 C 
ATOM     15  C   UNL     1     114.612 130.331 140.707  0.00  0.00    +0.000 C 
ATOM     16  C   UNL     1     114.414 130.939 141.229  0.00  0.00    +0.000 C 
ATOM     17  C   UNL     1     113.693 130.920 141.630  0.00  0.00    +0.000 C 
ATOM     18  C   UNL     1     113.171 130.293 141.509  0.00  0.00    +0.000 C 
ATOM     19  C   UNL     1     112.450 130.274 141.911  0.00  0.00    +0.000 C 
ENDBRANCH   9  14
ENDBRANCH   4   9
BRANCH   8  20
ATOM     20  O   UNL     1     113.252 129.238 138.789  0.00  0.00    +0.000 OA
BRANCH  20  24
ATOM     21  O   UNL     1     111.100 129.670 136.873  0.00  0.00    +0.000 OA
ATOM     22  O   UNL     1     113.627 128.603 135.962  0.00  0.00    +0.000 OA
ATOM     23  O   UNL     1     112.539 128.830 135.042  0.00  0.00    +0.000 OA
ATOM     24  C   UNL     1     112.964 129.205 138.016  0.00  0.00    +0.000 A 
ATOM     25  C   UNL     1     112.162 129.461 137.842  0.00  0.00    +0.000 A 
ATOM     26  C   UNL     1     113.463 128.913 137.381  0.00  0.00    +0.000 A 
ATOM     27  C   UNL     1     111.871 129.422 137.035  0.00  0.00    +0.000 A 
ATOM     28  C   UNL     1     113.154 128.882 136.579  0.00  0.00    +0.000 A 
ATOM     29  C   UNL     1     112.350 129.142 136.425  0.00  0.00    +0.000 A 
ATOM     30  C   UNL     1     112.060 129.110 135.653  0.00  0.00    +0.000 A 
ATOM     31  C   UNL     1     110.809 129.637 136.102  0.00  0.00    +0.000 A 
ATOM     32  C   UNL     1     111.289 129.357 135.492  0.00  0.00    +0.000 A 
BRANCH  31  35
ATOM     33  O   UNL     1     108.019 129.059 135.886  0.00  0.00    +0.000 OA
ATOM     34  O   UNL     1     107.728 130.625 135.456  0.00  0.00    +0.000 OA
ATOM     35  C   UNL     1     110.039 129.884 135.940  0.00  0.00    +0.000 A 
ATOM     36  C   UNL     1     109.414 129.348 135.994  0.00  0.00    +0.000 A 
ATOM     37  C   UNL     1     109.894 130.668 135.726  0.00  0.00    +0.000 A 
ATOM     38  C   UNL     1     108.644 129.595 135.833  0.00  0.00    +0.000 A 
ATOM     39  C   UNL     1     109.123 130.914 135.565  0.00  0.00    +0.000 A 
ATOM     40  C   UNL     1     108.498 130.378 135.618  0.00  0.00    +0.000 A 
ENDBRANCH  31  35
ENDBRANCH  20  24
ENDBRANCH   8  20
BRANCH   7  41
ATOM     41  C   UNL     1     112.114 126.696 139.430  0.00  0.00    +0.000 C 
BRANCH  41  42
ATOM     42  O   UNL     1     112.125 126.311 138.701  0.00  0.00    +0.000 OA
BRANCH  42  44
ATOM     43  O   UNL     1     111.166 125.303 139.028  0.00  0.00    +0.000 OA
ATOM     44  C   UNL     1     111.495 125.826 138.481  0.00  0.00    +0.000 C 
BRANCH  44  45
ATOM     45  C   UNL     1     111.193 125.863 137.714  0.00  0.00    +0.000 C 
BRANCH  45  48
ATOM     46  O   UNL     1     111.251 124.536 137.188  0.00  0.00    +0.000 OA
ATOM     47  O   UNL     1     111.930 125.600 136.519  0.00  0.00    +0.000 OA
ATOM     48  C   UNL     1     111.458 125.333 137.141  0.00  0.00    +0.000 C 
ENDBRANCH  45  48
ENDBRANCH  44  45
ENDBRANCH  42  44
ENDBRANCH  41  42
ENDBRANCH   7  41
TORSDOF 10
ENDMDL
MODEL 4
REMARK VINA RESULT:      -9.9      7.893      9.991
REMARK  Name = 44258112
REMARK  10 active torsions:
REMARK  status: ('A' for Active; 'I' for Inactive)
REMARK    1  A    between atoms: O_1  and  C_19
REMARK    2  A    between atoms: O_1  and  C_22
REMARK    3  A    between atoms: O_5  and  C_24
REMARK    4  A    between atoms: O_5  and  C_31
REMARK    5  A    between atoms: O_10  and  C_29
REMARK    6  A    between atoms: O_10  and  C_34
REMARK    7  A    between atoms: C_23  and  C_29
REMARK    8  A    between atoms: C_34  and  C_38
REMARK    9  A    between atoms: C_38  and  C_42
REMARK   10  A    between atoms: C_40  and  C_43
REMARK                            x       y       z     vdW  Elec       q    Type
REMARK                         _______ _______ _______ _____ _____    ______ ____
ROOT
ATOM      1  O   UNL     1     105.731 127.020 143.583  0.00  0.00    +0.000 OA
ATOM      2  O   UNL     1     106.463 127.516 145.895  0.00  0.00    +0.000 OA
ATOM      3  O   UNL     1     105.733 128.688 144.991  0.00  0.00    +0.000 OA
ATOM      4  C   UNL     1     106.341 126.599 144.805  0.00  0.00    +0.000 C 
ATOM      5  C   UNL     1     106.219 127.351 145.124  0.00  0.00    +0.000 C 
ATOM      6  C   UNL     1     105.854 127.936 144.672  0.00  0.00    +0.000 C 
ATOM      7  C   UNL     1     105.610 127.771 143.901  0.00  0.00    +0.000 C 
ATOM      8  C   UNL     1     106.097 126.433 144.035  0.00  0.00    +0.000 C 
ENDROOT
BRANCH   4   9
ATOM      9  O   UNL     1     106.706 126.014 145.257  0.00  0.00    +0.000 OA
BRANCH   9  14
ATOM     10  O   UNL     1     105.450 125.561 145.769  0.00  0.00    +0.000 OA
ATOM     11  O   UNL     1     107.483 125.274 146.511  0.00  0.00    +0.000 OA
ATOM     12  O   UNL     1     106.616 124.452 147.649  0.00  0.00    +0.000 OA
ATOM     13  O   UNL     1     104.972 124.368 147.533  0.00  0.00    +0.000 OA
ATOM     14  C   UNL     1     106.272 125.602 145.827  0.00  0.00    +0.000 C 
ATOM     15  C   UNL     1     106.661 125.233 146.453  0.00  0.00    +0.000 C 
ATOM     16  C   UNL     1     106.227 124.821 147.023  0.00  0.00    +0.000 C 
ATOM     17  C   UNL     1     105.405 124.780 146.965  0.00  0.00    +0.000 C 
ATOM     18  C   UNL     1     105.017 125.150 146.337  0.00  0.00    +0.000 C 
ATOM     19  C   UNL     1     104.195 125.108 146.279  0.00  0.00    +0.000 C 
ENDBRANCH   9  14
ENDBRANCH   4   9
BRANCH   8  20
ATOM     20  O   UNL     1     106.218 125.683 143.716  0.00  0.00    +0.000 OA
BRANCH  20  24
ATOM     21  O   UNL     1     105.495 124.842 141.023  0.00  0.00    +0.000 OA
ATOM     22  O   UNL     1     108.096 126.007 141.502  0.00  0.00    +0.000 OA
ATOM     23  O   UNL     1     107.703 125.579 140.181  0.00  0.00    +0.000 OA
ATOM     24  C   UNL     1     106.407 125.599 142.918  0.00  0.00    +0.000 A 
ATOM     25  C   UNL     1     105.838 125.255 142.372  0.00  0.00    +0.000 A 
ATOM     26  C   UNL     1     107.173 125.855 142.625  0.00  0.00    +0.000 A 
ATOM     27  C   UNL     1     106.044 125.172 141.542  0.00  0.00    +0.000 A 
ATOM     28  C   UNL     1     107.361 125.764 141.792  0.00  0.00    +0.000 A 
ATOM     29  C   UNL     1     106.780 125.418 141.262  0.00  0.00    +0.000 A 
ATOM     30  C   UNL     1     106.967 125.333 140.463  0.00  0.00    +0.000 A 
ATOM     31  C   UNL     1     105.681 124.757 140.224  0.00  0.00    +0.000 A 
ATOM     32  C   UNL     1     106.417 125.003 139.943  0.00  0.00    +0.000 A 
BRANCH  31  35
ATOM     33  O   UNL     1     103.263 124.969 138.715  0.00  0.00    +0.000 OA
ATOM     34  O   UNL     1     103.482 123.436 138.148  0.00  0.00    +0.000 OA
ATOM     35  C   UNL     1     105.131 124.426 139.705  0.00  0.00    +0.000 A 
ATOM     36  C   UNL     1     104.472 124.864 139.470  0.00  0.00    +0.000 A 
ATOM     37  C   UNL     1     105.241 123.659 139.421  0.00  0.00    +0.000 A 
ATOM     38  C   UNL     1     103.922 124.533 138.951  0.00  0.00    +0.000 A 
ATOM     39  C   UNL     1     104.691 123.330 138.902  0.00  0.00    +0.000 A 
ATOM     40  C   UNL     1     104.032 123.766 138.667  0.00  0.00    +0.000 A 
ENDBRANCH  31  35
ENDBRANCH  20  24
ENDBRANCH   8  20
BRANCH   7  41
ATOM     41  C   UNL     1     105.245 128.357 143.450  0.00  0.00    +0.000 C 
BRANCH  41  42
ATOM     42  O   UNL     1     104.780 128.149 142.802  0.00  0.00    +0.000 OA
BRANCH  42  44
ATOM     43  O   UNL     1     105.127 129.304 142.035  0.00  0.00    +0.000 OA
ATOM     44  C   UNL     1     104.583 128.716 142.236  0.00  0.00    +0.000 C 
BRANCH  44  45
ATOM     45  C   UNL     1     103.845 128.696 141.870  0.00  0.00    +0.000 C 
BRANCH  45  48
ATOM     46  O   UNL     1     103.991 128.048 140.604  0.00  0.00    +0.000 OA
ATOM     47  O   UNL     1     103.538 129.402 140.666  0.00  0.00    +0.000 OA
ATOM     48  C   UNL     1     103.792 128.715 141.047  0.00  0.00    +0.000 C 
ENDBRANCH  45  48
ENDBRANCH  44  45
ENDBRANCH  42  44
ENDBRANCH  41  42
ENDBRANCH   7  41
TORSDOF 10
ENDMDL
MODEL 5
REMARK VINA RESULT:      -9.8      2.460      5.278
REMARK  Name = 44258112
REMARK  10 active torsions:
REMARK  status: ('A' for Active; 'I' for Inactive)
REMARK    1  A    between atoms: O_1  and  C_19
REMARK    2  A    between atoms: O_1  and  C_22
REMARK    3  A    between atoms: O_5  and  C_24
REMARK    4  A    between atoms: O_5  and  C_31
REMARK    5  A    between atoms: O_10  and  C_29
REMARK    6  A    between atoms: O_10  and  C_34
REMARK    7  A    between atoms: C_23  and  C_29
REMARK    8  A    between atoms: C_34  and  C_38
REMARK    9  A    between atoms: C_38  and  C_42
REMARK   10  A    between atoms: C_40  and  C_43
REMARK                            x       y       z     vdW  Elec       q    Type
REMARK                         _______ _______ _______ _____ _____    ______ ____
ROOT
ATOM      1  O   UNL     1     111.028 125.985 136.948  0.00  0.00    +0.000 OA
ATOM      2  O   UNL     1     109.603 125.922 134.925  0.00  0.00    +0.000 OA
ATOM      3  O   UNL     1     110.900 124.909 135.053  0.00  0.00    +0.000 OA
ATOM      4  C   UNL     1     109.905 126.471 136.210  0.00  0.00    +0.000 C 
ATOM      5  C   UNL     1     110.078 125.943 135.599  0.00  0.00    +0.000 C 
ATOM      6  C   UNL     1     110.727 125.437 135.664  0.00  0.00    +0.000 C 
ATOM      7  C   UNL     1     111.201 125.458 136.338  0.00  0.00    +0.000 C 
ATOM      8  C   UNL     1     110.379 126.492 136.884  0.00  0.00    +0.000 C 
ENDROOT
BRANCH   4   9
ATOM      9  O   UNL     1     109.256 126.976 136.145  0.00  0.00    +0.000 OA
BRANCH   9  14
ATOM     10  O   UNL     1     110.049 127.911 135.408  0.00  0.00    +0.000 OA
ATOM     11  O   UNL     1     108.031 128.079 136.225  0.00  0.00    +0.000 OA
ATOM     12  O   UNL     1     108.211 129.564 135.528  0.00  0.00    +0.000 OA
ATOM     13  O   UNL     1     109.615 129.946 134.752  0.00  0.00    +0.000 OA
ATOM     14  C   UNL     1     109.346 127.719 135.796  0.00  0.00    +0.000 C 
ATOM     15  C   UNL     1     108.734 128.270 135.837  0.00  0.00    +0.000 C 
ATOM     16  C   UNL     1     108.824 129.013 135.488  0.00  0.00    +0.000 C 
ATOM     17  C   UNL     1     109.526 129.204 135.100  0.00  0.00    +0.000 C 
ATOM     18  C   UNL     1     110.138 128.652 135.060  0.00  0.00    +0.000 C 
ATOM     19  C   UNL     1     110.840 128.844 134.672  0.00  0.00    +0.000 C 
ENDBRANCH   9  14
ENDBRANCH   4   9
BRANCH   8  20
ATOM     20  O   UNL     1     110.206 127.019 137.494  0.00  0.00    +0.000 OA
BRANCH  20  24
ATOM     21  O   UNL     1     112.218 127.948 139.385  0.00  0.00    +0.000 OA
ATOM     22  O   UNL     1     110.565 125.676 140.063  0.00  0.00    +0.000 OA
ATOM     23  O   UNL     1     111.572 126.164 140.975  0.00  0.00    +0.000 OA
ATOM     24  C   UNL     1     110.591 126.950 138.220  0.00  0.00    +0.000 A 
ATOM     25  C   UNL     1     111.220 127.498 138.430  0.00  0.00    +0.000 A 
ATOM     26  C   UNL     1     110.367 126.331 138.772  0.00  0.00    +0.000 A 
ATOM     27  C   UNL     1     111.615 127.419 139.189  0.00  0.00    +0.000 A 
ATOM     28  C   UNL     1     110.774 126.268 139.526  0.00  0.00    +0.000 A 
ATOM     29  C   UNL     1     111.400 126.824 139.718  0.00  0.00    +0.000 A 
ATOM     30  C   UNL     1     111.787 126.758 140.444  0.00  0.00    +0.000 A 
ATOM     31  C   UNL     1     112.605 127.882 140.110  0.00  0.00    +0.000 A 
ATOM     32  C   UNL     1     112.389 127.287 140.640  0.00  0.00    +0.000 A 
BRANCH  31  35
ATOM     33  O   UNL     1     113.459 130.532 140.753  0.00  0.00    +0.000 OA
ATOM     34  O   UNL     1     115.013 129.996 140.894  0.00  0.00    +0.000 OA
ATOM     35  C   UNL     1     113.207 128.410 140.306  0.00  0.00    +0.000 A 
ATOM     36  C   UNL     1     113.031 129.207 140.432  0.00  0.00    +0.000 A 
ATOM     37  C   UNL     1     113.984 128.142 140.377  0.00  0.00    +0.000 A 
ATOM     38  C   UNL     1     113.634 129.736 140.628  0.00  0.00    +0.000 A 
ATOM     39  C   UNL     1     114.586 128.671 140.573  0.00  0.00    +0.000 A 
ATOM     40  C   UNL     1     114.411 129.468 140.698  0.00  0.00    +0.000 A 
ENDBRANCH  31  35
ENDBRANCH  20  24
ENDBRANCH   8  20
BRANCH   7  41
ATOM     41  C   UNL     1     111.850 124.952 136.401  0.00  0.00    +0.000 C 
BRANCH  41  42
ATOM     42  O   UNL     1     112.585 125.248 136.629  0.00  0.00    +0.000 OA
BRANCH  42  44
ATOM     43  O   UNL     1     113.031 123.949 137.022  0.00  0.00    +0.000 OA
ATOM     44  C   UNL     1     113.199 124.730 136.816  0.00  0.00    +0.000 C 
BRANCH  44  45
ATOM     45  C   UNL     1     113.980 124.993 136.798  0.00  0.00    +0.000 C 
BRANCH  45  48
ATOM     46  O   UNL     1     114.372 125.516 138.068  0.00  0.00    +0.000 OA
ATOM     47  O   UNL     1     114.989 124.331 137.563  0.00  0.00    +0.000 OA
ATOM     48  C   UNL     1     114.447 124.947 137.476  0.00  0.00    +0.000 C 
ENDBRANCH  45  48
ENDBRANCH  44  45
ENDBRANCH  42  44
ENDBRANCH  41  42
ENDBRANCH   7  41
TORSDOF 10
ENDMDL
MODEL 6
REMARK VINA RESULT:      -9.8      7.585      9.328
REMARK  Name = 44258112
REMARK  10 active torsions:
REMARK  status: ('A' for Active; 'I' for Inactive)
REMARK    1  A    between atoms: O_1  and  C_19
REMARK    2  A    between atoms: O_1  and  C_22
REMARK    3  A    between atoms: O_5  and  C_24
REMARK    4  A    between atoms: O_5  and  C_31
REMARK    5  A    between atoms: O_10  and  C_29
REMARK    6  A    between atoms: O_10  and  C_34
REMARK    7  A    between atoms: C_23  and  C_29
REMARK    8  A    between atoms: C_34  and  C_38
REMARK    9  A    between atoms: C_38  and  C_42
REMARK   10  A    between atoms: C_40  and  C_43
REMARK                            x       y       z     vdW  Elec       q    Type
REMARK                         _______ _______ _______ _____ _____    ______ ____
ROOT
ATOM      1  O   UNL     1     106.041 128.982 142.898  0.00  0.00    +0.000 OA
ATOM      2  O   UNL     1     107.700 127.188 143.289  0.00  0.00    +0.000 OA
ATOM      3  O   UNL     1     108.203 128.746 143.083  0.00  0.00    +0.000 OA
ATOM      4  C   UNL     1     106.342 127.605 143.131  0.00  0.00    +0.000 C 
ATOM      5  C   UNL     1     107.147 127.786 143.158  0.00  0.00    +0.000 C 
ATOM      6  C   UNL     1     107.397 128.565 143.055  0.00  0.00    +0.000 C 
ATOM      7  C   UNL     1     106.844 129.163 142.925  0.00  0.00    +0.000 C 
ATOM      8  C   UNL     1     105.789 128.203 143.000  0.00  0.00    +0.000 C 
ENDROOT
BRANCH   4   9
ATOM      9  O   UNL     1     106.091 126.826 143.234  0.00  0.00    +0.000 OA
BRANCH   9  14
ATOM     10  O   UNL     1     105.918 127.007 144.641  0.00  0.00    +0.000 OA
ATOM     11  O   UNL     1     106.202 125.195 143.459  0.00  0.00    +0.000 OA
ATOM     12  O   UNL     1     106.084 124.561 144.978  0.00  0.00    +0.000 OA
ATOM     13  O   UNL     1     105.856 125.559 146.272  0.00  0.00    +0.000 OA
ATOM     14  C   UNL     1     106.032 126.509 143.994  0.00  0.00    +0.000 C 
ATOM     15  C   UNL     1     106.088 125.693 144.106  0.00  0.00    +0.000 C 
ATOM     16  C   UNL     1     106.029 125.377 144.866  0.00  0.00    +0.000 C 
ATOM     17  C   UNL     1     105.915 125.875 145.513  0.00  0.00    +0.000 C 
ATOM     18  C   UNL     1     105.859 126.691 145.400  0.00  0.00    +0.000 C 
ATOM     19  C   UNL     1     105.745 127.189 146.047  0.00  0.00    +0.000 C 
ENDBRANCH   9  14
ENDBRANCH   4   9
BRANCH   8  20
ATOM     20  O   UNL     1     104.985 128.022 142.973  0.00  0.00    +0.000 OA
BRANCH  20  24
ATOM     21  O   UNL     1     103.180 130.129 142.086  0.00  0.00    +0.000 OA
ATOM     22  O   UNL     1     103.850 127.973 140.282  0.00  0.00    +0.000 OA
ATOM     23  O   UNL     1     102.960 129.034 139.877  0.00  0.00    +0.000 OA
ATOM     24  C   UNL     1     104.507 128.356 142.390  0.00  0.00    +0.000 A 
ATOM     25  C   UNL     1     104.081 129.087 142.545  0.00  0.00    +0.000 A 
ATOM     26  C   UNL     1     104.430 127.976 141.623  0.00  0.00    +0.000 A 
ATOM     27  C   UNL     1     103.585 129.427 141.931  0.00  0.00    +0.000 A 
ATOM     28  C   UNL     1     103.930 128.332 141.022  0.00  0.00    +0.000 A 
ATOM     29  C   UNL     1     103.512 129.062 141.195  0.00  0.00    +0.000 A 
ATOM     30  C   UNL     1     103.033 129.399 140.614  0.00  0.00    +0.000 A 
ATOM     31  C   UNL     1     102.701 130.465 141.505  0.00  0.00    +0.000 A 
ATOM     32  C   UNL     1     102.628 130.100 140.768  0.00  0.00    +0.000 A 
BRANCH  31  35
ATOM     33  O   UNL     1     102.597 133.321 141.479  0.00  0.00    +0.000 OA
ATOM     34  O   UNL     1     101.078 133.271 142.123  0.00  0.00    +0.000 OA
ATOM     35  C   UNL     1     102.295 131.167 141.659  0.00  0.00    +0.000 A 
ATOM     36  C   UNL     1     102.649 131.893 141.492  0.00  0.00    +0.000 A 
ATOM     37  C   UNL     1     101.536 131.142 141.981  0.00  0.00    +0.000 A 
ATOM     38  C   UNL     1     102.243 132.595 141.646  0.00  0.00    +0.000 A 
ATOM     39  C   UNL     1     101.131 131.844 142.135  0.00  0.00    +0.000 A 
ATOM     40  C   UNL     1     101.484 132.570 141.968  0.00  0.00    +0.000 A 
ENDBRANCH  31  35
ENDBRANCH  20  24
ENDBRANCH   8  20
BRANCH   7  41
ATOM     41  C   UNL     1     107.096 129.942 142.822  0.00  0.00    +0.000 C 
BRANCH  41  42
ATOM     42  O   UNL     1     106.641 130.565 143.112  0.00  0.00    +0.000 OA
BRANCH  42  44
ATOM     43  O   UNL     1     107.200 131.507 142.195  0.00  0.00    +0.000 OA
ATOM     44  C   UNL     1     106.832 131.343 142.915  0.00  0.00    +0.000 C 
BRANCH  44  45
ATOM     45  C   UNL     1     106.656 131.957 143.437  0.00  0.00    +0.000 C 
BRANCH  45  48
ATOM     46  O   UNL     1     105.280 132.298 143.622  0.00  0.00    +0.000 OA
ATOM     47  O   UNL     1     106.115 133.114 142.798  0.00  0.00    +0.000 OA
ATOM     48  C   UNL     1     106.017 132.456 143.286  0.00  0.00    +0.000 C 
ENDBRANCH  45  48
ENDBRANCH  44  45
ENDBRANCH  42  44
ENDBRANCH  41  42
ENDBRANCH   7  41
TORSDOF 10
ENDMDL
MODEL 7
REMARK VINA RESULT:      -9.7      2.489      3.266
REMARK  Name = 44258112
REMARK  10 active torsions:
REMARK  status: ('A' for Active; 'I' for Inactive)
REMARK    1  A    between atoms: O_1  and  C_19
REMARK    2  A    between atoms: O_1  and  C_22
REMARK    3  A    between atoms: O_5  and  C_24
REMARK    4  A    between atoms: O_5  and  C_31
REMARK    5  A    between atoms: O_10  and  C_29
REMARK    6  A    between atoms: O_10  and  C_34
REMARK    7  A    between atoms: C_23  and  C_29
REMARK    8  A    between atoms: C_34  and  C_38
REMARK    9  A    between atoms: C_38  and  C_42
REMARK   10  A    between atoms: C_40  and  C_43
REMARK                            x       y       z     vdW  Elec       q    Type
REMARK                         _______ _______ _______ _____ _____    ______ ____
ROOT
ATOM      1  O   UNL     1     110.247 127.297 138.647  0.00  0.00    +0.000 OA
ATOM      2  O   UNL     1     110.705 124.874 138.861  0.00  0.00    +0.000 OA
ATOM      3  O   UNL     1     110.063 125.708 140.132  0.00  0.00    +0.000 OA
ATOM      4  C   UNL     1     110.721 126.073 138.082  0.00  0.00    +0.000 C 
ATOM      5  C   UNL     1     110.552 125.682 138.790  0.00  0.00    +0.000 C 
ATOM      6  C   UNL     1     110.231 126.099 139.425  0.00  0.00    +0.000 C 
ATOM      7  C   UNL     1     110.078 126.907 139.353  0.00  0.00    +0.000 C 
ATOM      8  C   UNL     1     110.568 126.881 138.011  0.00  0.00    +0.000 C 
ENDROOT
BRANCH   4   9
ATOM      9  O   UNL     1     111.042 125.656 137.448  0.00  0.00    +0.000 OA
BRANCH   9  14
ATOM     10  O   UNL     1     112.366 125.890 137.934  0.00  0.00    +0.000 OA
ATOM     11  O   UNL     1     111.624 124.508 136.415  0.00  0.00    +0.000 OA
ATOM     12  O   UNL     1     113.239 124.169 136.384  0.00  0.00    +0.000 OA
ATOM     13  O   UNL     1     114.271 124.976 137.387  0.00  0.00    +0.000 OA
ATOM     14  C   UNL     1     111.850 125.486 137.432  0.00  0.00    +0.000 C 
ATOM     15  C   UNL     1     112.140 124.912 136.916  0.00  0.00    +0.000 C 
ATOM     16  C   UNL     1     112.948 124.742 136.901  0.00  0.00    +0.000 C 
ATOM     17  C   UNL     1     113.464 125.146 137.402  0.00  0.00    +0.000 C 
ATOM     18  C   UNL     1     113.172 125.720 137.918  0.00  0.00    +0.000 C 
ATOM     19  C   UNL     1     113.688 126.124 138.420  0.00  0.00    +0.000 C 
ENDBRANCH   9  14
ENDBRANCH   4   9
BRANCH   8  20
ATOM     20  O   UNL     1     110.736 127.271 137.305  0.00  0.00    +0.000 OA
BRANCH  20  24
ATOM     21  O   UNL     1     110.145 130.110 137.027  0.00  0.00    +0.000 OA
ATOM     22  O   UNL     1     108.299 128.158 135.961  0.00  0.00    +0.000 OA
ATOM     23  O   UNL     1     108.039 129.572 135.842  0.00  0.00    +0.000 OA
ATOM     24  C   UNL     1     110.242 127.877 137.040  0.00  0.00    +0.000 A 
ATOM     25  C   UNL     1     110.456 128.699 137.175  0.00  0.00    +0.000 A 
ATOM     26  C   UNL     1     109.511 127.691 136.629  0.00  0.00    +0.000 A 
ATOM     27  C   UNL     1     109.935 129.323 136.896  0.00  0.00    +0.000 A 
ATOM     28  C   UNL     1     109.003 128.328 136.358  0.00  0.00    +0.000 A 
ATOM     29  C   UNL     1     109.233 129.143 136.501  0.00  0.00    +0.000 A 
ATOM     30  C   UNL     1     108.741 129.751 136.238  0.00  0.00    +0.000 A 
ATOM     31  C   UNL     1     109.652 130.717 136.764  0.00  0.00    +0.000 A 
ATOM     32  C   UNL     1     108.951 130.538 136.369  0.00  0.00    +0.000 A 
BRANCH  31  35
ATOM     33  O   UNL     1     110.070 132.900 138.561  0.00  0.00    +0.000 OA
ATOM     34  O   UNL     1     110.491 133.865 137.291  0.00  0.00    +0.000 OA
ATOM     35  C   UNL     1     109.862 131.504 136.895  0.00  0.00    +0.000 A 
ATOM     36  C   UNL     1     109.861 131.808 137.663  0.00  0.00    +0.000 A 
ATOM     37  C   UNL     1     110.072 131.987 136.260  0.00  0.00    +0.000 A 
ATOM     38  C   UNL     1     110.071 132.595 137.795  0.00  0.00    +0.000 A 
ATOM     39  C   UNL     1     110.282 132.773 136.393  0.00  0.00    +0.000 A 
ATOM     40  C   UNL     1     110.281 133.078 137.159  0.00  0.00    +0.000 A 
ENDBRANCH  31  35
ENDBRANCH  20  24
ENDBRANCH   8  20
BRANCH   7  41
ATOM     41  C   UNL     1     109.757 127.323 139.989  0.00  0.00    +0.000 C 
BRANCH  41  42
ATOM     42  O   UNL     1     109.226 127.938 139.854  0.00  0.00    +0.000 OA
BRANCH  42  44
ATOM     43  O   UNL     1     108.460 128.064 141.054  0.00  0.00    +0.000 OA
ATOM     44  C   UNL     1     108.955 128.397 140.484  0.00  0.00    +0.000 C 
BRANCH  44  45
ATOM     45  C   UNL     1     109.179 129.188 140.545  0.00  0.00    +0.000 C 
BRANCH  45  48
ATOM     46  O   UNL     1     108.178 129.990 139.914  0.00  0.00    +0.000 OA
ATOM     47  O   UNL     1     108.454 130.156 141.306  0.00  0.00    +0.000 OA
ATOM     48  C   UNL     1     108.604 129.777 140.588  0.00  0.00    +0.000 C 
ENDBRANCH  45  48
ENDBRANCH  44  45
ENDBRANCH  42  44
ENDBRANCH  41  42
ENDBRANCH   7  41
TORSDOF 10
ENDMDL
MODEL 8
REMARK VINA RESULT:      -9.7      1.695      5.502
REMARK  Name = 44258112
REMARK  10 active torsions:
REMARK  status: ('A' for Active; 'I' for Inactive)
REMARK    1  A    between atoms: O_1  and  C_19
REMARK    2  A    between atoms: O_1  and  C_22
REMARK    3  A    between atoms: O_5  and  C_24
REMARK    4  A    between atoms: O_5  and  C_31
REMARK    5  A    between atoms: O_10  and  C_29
REMARK    6  A    between atoms: O_10  and  C_34
REMARK    7  A    between atoms: C_23  and  C_29
REMARK    8  A    between atoms: C_34  and  C_38
REMARK    9  A    between atoms: C_38  and  C_42
REMARK   10  A    between atoms: C_40  and  C_43
REMARK                            x       y       z     vdW  Elec       q    Type
REMARK                         _______ _______ _______ _____ _____    ______ ____
ROOT
ATOM      1  O   UNL     1     111.237 129.796 138.115  0.00  0.00    +0.000 OA
ATOM      2  O   UNL     1     108.808 129.958 138.558  0.00  0.00    +0.000 OA
ATOM      3  O   UNL     1     109.884 130.102 139.800  0.00  0.00    +0.000 OA
ATOM      4  C   UNL     1     109.889 129.777 137.641  0.00  0.00    +0.000 C 
ATOM      5  C   UNL     1     109.617 129.904 138.410  0.00  0.00    +0.000 C 
ATOM      6  C   UNL     1     110.156 129.976 139.031  0.00  0.00    +0.000 C 
ATOM      7  C   UNL     1     110.966 129.922 138.883  0.00  0.00    +0.000 C 
ATOM      8  C   UNL     1     110.699 129.724 137.493  0.00  0.00    +0.000 C 
ENDROOT
BRANCH   4   9
ATOM      9  O   UNL     1     109.351 129.705 137.020  0.00  0.00    +0.000 OA
BRANCH   9  14
ATOM     10  O   UNL     1     109.443 131.102 136.730  0.00  0.00    +0.000 OA
ATOM     11  O   UNL     1     107.952 129.617 136.150  0.00  0.00    +0.000 OA
ATOM     12  O   UNL     1     107.344 130.969 135.425  0.00  0.00    +0.000 OA
ATOM     13  O   UNL     1     108.136 132.409 135.570  0.00  0.00    +0.000 OA
ATOM     14  C   UNL     1     109.047 130.382 136.657  0.00  0.00    +0.000 C 
ATOM     15  C   UNL     1     108.348 130.337 136.223  0.00  0.00    +0.000 C 
ATOM     16  C   UNL     1     108.044 131.014 135.860  0.00  0.00    +0.000 C 
ATOM     17  C   UNL     1     108.440 131.734 135.932  0.00  0.00    +0.000 C 
ATOM     18  C   UNL     1     109.139 131.777 136.368  0.00  0.00    +0.000 C 
ATOM     19  C   UNL     1     109.535 132.497 136.440  0.00  0.00    +0.000 C 
ENDBRANCH   9  14
ENDBRANCH   4   9
BRANCH   8  20
ATOM     20  O   UNL     1     110.971 129.598 136.725  0.00  0.00    +0.000 OA
BRANCH  20  24
ATOM     21  O   UNL     1     112.245 126.978 136.684  0.00  0.00    +0.000 OA
ATOM     22  O   UNL     1     113.778 129.321 135.966  0.00  0.00    +0.000 OA
ATOM     23  O   UNL     1     114.376 128.008 135.957  0.00  0.00    +0.000 OA
ATOM     24  C   UNL     1     111.636 129.127 136.595  0.00  0.00    +0.000 A 
ATOM     25  C   UNL     1     111.593 128.276 136.710  0.00  0.00    +0.000 A 
ATOM     26  C   UNL     1     112.375 129.484 136.342  0.00  0.00    +0.000 A 
ATOM     27  C   UNL     1     112.291 127.794 136.572  0.00  0.00    +0.000 A 
ATOM     28  C   UNL     1     113.063 128.986 136.209  0.00  0.00    +0.000 A 
ATOM     29  C   UNL     1     113.001 128.138 136.330  0.00  0.00    +0.000 A 
ATOM     30  C   UNL     1     113.665 127.665 136.200  0.00  0.00    +0.000 A 
ATOM     31  C   UNL     1     112.908 126.506 136.554  0.00  0.00    +0.000 A 
ATOM     32  C   UNL     1     113.618 126.849 136.312  0.00  0.00    +0.000 A 
BRANCH  31  35
ATOM     33  O   UNL     1     111.595 124.012 136.076  0.00  0.00    +0.000 OA
ATOM     34  O   UNL     1     112.722 123.242 137.004  0.00  0.00    +0.000 OA
ATOM     35  C   UNL     1     112.862 125.689 136.667  0.00  0.00    +0.000 A 
ATOM     36  C   UNL     1     112.251 125.259 136.315  0.00  0.00    +0.000 A 
ATOM     37  C   UNL     1     113.425 125.304 137.131  0.00  0.00    +0.000 A 
ATOM     38  C   UNL     1     112.205 124.443 136.428  0.00  0.00    +0.000 A 
ATOM     39  C   UNL     1     113.378 124.489 137.242  0.00  0.00    +0.000 A 
ATOM     40  C   UNL     1     112.768 124.058 136.891  0.00  0.00    +0.000 A 
ENDBRANCH  31  35
ENDBRANCH  20  24
ENDBRANCH   8  20
BRANCH   7  41
ATOM     41  C   UNL     1     111.504 129.994 139.505  0.00  0.00    +0.000 C 
BRANCH  41  42
ATOM     42  O   UNL     1     112.258 130.296 139.365  0.00  0.00    +0.000 OA
BRANCH  42  44
ATOM     43  O   UNL     1     112.669 130.637 140.690  0.00  0.00    +0.000 OA
ATOM     44  C   UNL     1     112.827 130.281 139.963  0.00  0.00    +0.000 C 
BRANCH  44  45
ATOM     45  C   UNL     1     113.552 129.911 139.834  0.00  0.00    +0.000 C 
BRANCH  45  48
ATOM     46  O   UNL     1     114.483 130.945 139.509  0.00  0.00    +0.000 OA
ATOM     47  O   UNL     1     114.728 130.087 140.625  0.00  0.00    +0.000 OA
ATOM     48  C   UNL     1     114.254 130.314 139.989  0.00  0.00    +0.000 C 
ENDBRANCH  45  48
ENDBRANCH  44  45
ENDBRANCH  42  44
ENDBRANCH  41  42
ENDBRANCH   7  41
TORSDOF 10
ENDMDL
MODEL 9
REMARK VINA RESULT:      -9.5      2.217      6.108
REMARK  Name = 44258112
REMARK  10 active torsions:
REMARK  status: ('A' for Active; 'I' for Inactive)
REMARK    1  A    between atoms: O_1  and  C_19
REMARK    2  A    between atoms: O_1  and  C_22
REMARK    3  A    between atoms: O_5  and  C_24
REMARK    4  A    between atoms: O_5  and  C_31
REMARK    5  A    between atoms: O_10  and  C_29
REMARK    6  A    between atoms: O_10  and  C_34
REMARK    7  A    between atoms: C_23  and  C_29
REMARK    8  A    between atoms: C_34  and  C_38
REMARK    9  A    between atoms: C_38  and  C_42
REMARK   10  A    between atoms: C_40  and  C_43
REMARK                            x       y       z     vdW  Elec       q    Type
REMARK                         _______ _______ _______ _____ _____    ______ ____
ROOT
ATOM      1  O   UNL     1     110.753 129.950 138.691  0.00  0.00    +0.000 OA
ATOM      2  O   UNL     1     110.539 131.798 140.323  0.00  0.00    +0.000 OA
ATOM      3  O   UNL     1     109.484 131.687 139.059  0.00  0.00    +0.000 OA
ATOM      4  C   UNL     1     111.209 130.620 139.867  0.00  0.00    +0.000 C 
ATOM      5  C   UNL     1     110.610 131.182 139.779  0.00  0.00    +0.000 C 
ATOM      6  C   UNL     1     110.083 131.126 139.147  0.00  0.00    +0.000 C 
ATOM      7  C   UNL     1     110.154 130.510 138.603  0.00  0.00    +0.000 C 
ATOM      8  C   UNL     1     111.280 130.004 139.323  0.00  0.00    +0.000 C 
ENDROOT
BRANCH   4   9
ATOM      9  O   UNL     1     111.736 130.676 140.499  0.00  0.00    +0.000 OA
BRANCH   9  14
ATOM     10  O   UNL     1     110.870 129.878 141.309  0.00  0.00    +0.000 OA
ATOM     11  O   UNL     1     112.637 131.049 141.830  0.00  0.00    +0.000 OA
ATOM     12  O   UNL     1     112.221 130.437 143.305  0.00  0.00    +0.000 OA
ATOM     13  O   UNL     1     110.905 129.453 143.449  0.00  0.00    +0.000 OA
ATOM     14  C   UNL     1     111.528 130.370 141.237  0.00  0.00    +0.000 C 
ATOM     15  C   UNL     1     111.979 130.557 141.902  0.00  0.00    +0.000 C 
ATOM     16  C   UNL     1     111.771 130.250 142.640  0.00  0.00    +0.000 C 
ATOM     17  C   UNL     1     111.113 129.758 142.712  0.00  0.00    +0.000 C 
ATOM     18  C   UNL     1     110.663 129.572 142.046  0.00  0.00    +0.000 C 
ATOM     19  C   UNL     1     110.005 129.080 142.118  0.00  0.00    +0.000 C 
ENDBRANCH   9  14
ENDBRANCH   4   9
BRANCH   8  20
ATOM     20  O   UNL     1     111.879 129.444 139.411  0.00  0.00    +0.000 OA
BRANCH  20  24
ATOM     21  O   UNL     1     112.204 127.151 137.644  0.00  0.00    +0.000 OA
ATOM     22  O   UNL     1     113.641 129.595 137.086  0.00  0.00    +0.000 OA
ATOM     23  O   UNL     1     113.778 128.439 136.233  0.00  0.00    +0.000 OA
ATOM     24  C   UNL     1     112.219 129.096 138.744  0.00  0.00    +0.000 A 
ATOM     25  C   UNL     1     112.030 128.284 138.535  0.00  0.00    +0.000 A 
ATOM     26  C   UNL     1     112.765 129.543 138.254  0.00  0.00    +0.000 A 
ATOM     27  C   UNL     1     112.389 127.930 137.840  0.00  0.00    +0.000 A 
ATOM     28  C   UNL     1     113.115 129.172 137.563  0.00  0.00    +0.000 A 
ATOM     29  C   UNL     1     112.914 128.360 137.370  0.00  0.00    +0.000 A 
ATOM     30  C   UNL     1     113.253 128.010 136.704  0.00  0.00    +0.000 A 
ATOM     31  C   UNL     1     112.543 126.800 136.979  0.00  0.00    +0.000 A 
ATOM     32  C   UNL     1     113.067 127.230 136.509  0.00  0.00    +0.000 A 
BRANCH  31  35
ATOM     33  O   UNL     1     110.854 124.917 135.647  0.00  0.00    +0.000 OA
ATOM     34  O   UNL     1     111.800 123.682 136.196  0.00  0.00    +0.000 OA
ATOM     35  C   UNL     1     112.357 126.021 136.783  0.00  0.00    +0.000 A 
ATOM     36  C   UNL     1     111.698 125.859 136.313  0.00  0.00    +0.000 A 
ATOM     37  C   UNL     1     112.830 125.403 137.058  0.00  0.00    +0.000 A 
ATOM     38  C   UNL     1     111.513 125.079 136.117  0.00  0.00    +0.000 A 
ATOM     39  C   UNL     1     112.644 124.624 136.862  0.00  0.00    +0.000 A 
ATOM     40  C   UNL     1     111.986 124.462 136.392  0.00  0.00    +0.000 A 
ENDBRANCH  31  35
ENDBRANCH  20  24
ENDBRANCH   8  20
BRANCH   7  41
ATOM     41  C   UNL     1     109.627 130.455 137.971  0.00  0.00    +0.000 C 
BRANCH  41  42
ATOM     42  O   UNL     1     109.411 129.717 137.675  0.00  0.00    +0.000 OA
BRANCH  42  44
ATOM     43  O   UNL     1     108.333 130.143 136.840  0.00  0.00    +0.000 OA
ATOM     44  C   UNL     1     108.990 129.661 136.967  0.00  0.00    +0.000 C 
BRANCH  44  45
ATOM     45  C   UNL     1     109.226 129.124 136.388  0.00  0.00    +0.000 C 
BRANCH  45  48
ATOM     46  O   UNL     1     108.915 127.741 136.568  0.00  0.00    +0.000 OA
ATOM     47  O   UNL     1     108.123 128.543 135.691  0.00  0.00    +0.000 OA
ATOM     48  C   UNL     1     108.755 128.470 136.216  0.00  0.00    +0.000 C 
ENDBRANCH  45  48
ENDBRANCH  44  45
ENDBRANCH  42  44
ENDBRANCH  41  42
ENDBRANCH   7  41
TORSDOF 10
ENDMDL
MODEL 10
REMARK VINA RESULT:      -9.5      7.421      9.775
REMARK  Name = 44258112
REMARK  10 active torsions:
REMARK  status: ('A' for Active; 'I' for Inactive)
REMARK    1  A    between atoms: O_1  and  C_19
REMARK    2  A    between atoms: O_1  and  C_22
REMARK    3  A    between atoms: O_5  and  C_24
REMARK    4  A    between atoms: O_5  and  C_31
REMARK    5  A    between atoms: O_10  and  C_29
REMARK    6  A    between atoms: O_10  and  C_34
REMARK    7  A    between atoms: C_23  and  C_29
REMARK    8  A    between atoms: C_34  and  C_38
REMARK    9  A    between atoms: C_38  and  C_42
REMARK   10  A    between atoms: C_40  and  C_43
REMARK                            x       y       z     vdW  Elec       q    Type
REMARK                         _______ _______ _______ _____ _____    ______ ____
ROOT
ATOM      1  O   UNL     1     106.207 126.159 143.110  0.00  0.00    +0.000 OA
ATOM      2  O   UNL     1     105.357 128.444 143.536  0.00  0.00    +0.000 OA
ATOM      3  O   UNL     1     105.263 127.295 144.717  0.00  0.00    +0.000 OA
ATOM      4  C   UNL     1     105.971 127.494 142.661  0.00  0.00    +0.000 C 
ATOM      5  C   UNL     1     105.640 127.682 143.394  0.00  0.00    +0.000 C 
ATOM      6  C   UNL     1     105.593 127.107 143.984  0.00  0.00    +0.000 C 
ATOM      7  C   UNL     1     105.877 126.345 143.842  0.00  0.00    +0.000 C 
ATOM      8  C   UNL     1     106.254 126.733 142.519  0.00  0.00    +0.000 C 
ENDROOT
BRANCH   4   9
ATOM      9  O   UNL     1     106.018 128.069 142.072  0.00  0.00    +0.000 OA
BRANCH   9  14
ATOM     10  O   UNL     1     107.315 128.471 142.521  0.00  0.00    +0.000 OA
ATOM     11  O   UNL     1     105.881 129.473 141.215  0.00  0.00    +0.000 OA
ATOM     12  O   UNL     1     107.108 130.576 141.235  0.00  0.00    +0.000 OA
ATOM     13  O   UNL     1     108.472 130.276 142.113  0.00  0.00    +0.000 OA
ATOM     14  C   UNL     1     106.632 128.621 142.082  0.00  0.00    +0.000 C 
ATOM     15  C   UNL     1     106.563 129.322 141.653  0.00  0.00    +0.000 C 
ATOM     16  C   UNL     1     107.177 129.874 141.664  0.00  0.00    +0.000 C 
ATOM     17  C   UNL     1     107.859 129.724 142.103  0.00  0.00    +0.000 C 
ATOM     18  C   UNL     1     107.928 129.022 142.531  0.00  0.00    +0.000 C 
ATOM     19  C   UNL     1     108.610 128.872 142.970  0.00  0.00    +0.000 C 
ENDBRANCH   9  14
ENDBRANCH   4   9
BRANCH   8  20
ATOM     20  O   UNL     1     106.585 126.546 141.787  0.00  0.00    +0.000 OA
BRANCH  20  24
ATOM     21  O   UNL     1     105.030 124.717 140.137  0.00  0.00    +0.000 OA
ATOM     22  O   UNL     1     107.430 123.771 141.440  0.00  0.00    +0.000 OA
ATOM     23  O   UNL     1     106.635 122.894 140.616  0.00  0.00    +0.000 OA
ATOM     24  C   UNL     1     106.470 125.796 141.463  0.00  0.00    +0.000 A 
ATOM     25  C   UNL     1     105.793 125.642 140.956  0.00  0.00    +0.000 A 
ATOM     26  C   UNL     1     107.027 125.163 141.628  0.00  0.00    +0.000 A 
ATOM     27  C   UNL     1     105.682 124.858 140.623  0.00  0.00    +0.000 A 
ATOM     28  C   UNL     1     106.900 124.385 141.286  0.00  0.00    +0.000 A 
ATOM     29  C   UNL     1     106.217 124.251 140.782  0.00  0.00    +0.000 A 
ATOM     30  C   UNL     1     106.100 123.502 140.456  0.00  0.00    +0.000 A 
ATOM     31  C   UNL     1     104.913 123.968 139.811  0.00  0.00    +0.000 A 
ATOM     32  C   UNL     1     105.448 123.361 139.971  0.00  0.00    +0.000 A 
BRANCH  31  35
ATOM     33  O   UNL     1     103.797 123.640 137.201  0.00  0.00    +0.000 OA
ATOM     34  O   UNL     1     102.307 123.402 137.868  0.00  0.00    +0.000 OA
ATOM     35  C   UNL     1     104.261 123.826 139.325  0.00  0.00    +0.000 A 
ATOM     36  C   UNL     1     104.355 123.804 138.506  0.00  0.00    +0.000 A 
ATOM     37  C   UNL     1     103.516 123.707 139.659  0.00  0.00    +0.000 A 
ATOM     38  C   UNL     1     103.704 123.662 138.020  0.00  0.00    +0.000 A 
ATOM     39  C   UNL     1     102.865 123.566 139.173  0.00  0.00    +0.000 A 
ATOM     40  C   UNL     1     102.959 123.543 138.354  0.00  0.00    +0.000 A 
ENDBRANCH  31  35
ENDBRANCH  20  24
ENDBRANCH   8  20
BRANCH   7  41
ATOM     41  C   UNL     1     105.829 125.771 144.432  0.00  0.00    +0.000 C 
BRANCH  41  42
ATOM     42  O   UNL     1     105.344 125.112 144.330  0.00  0.00    +0.000 OA
BRANCH  42  44
ATOM     43  O   UNL     1     106.130 124.138 145.019  0.00  0.00    +0.000 OA
ATOM     44  C   UNL     1     105.396 124.476 144.852  0.00  0.00    +0.000 C 
BRANCH  44  45
ATOM     45  C   UNL     1     104.715 124.177 145.207  0.00  0.00    +0.000 C 
BRANCH  45  48
ATOM     46  O   UNL     1     104.161 123.238 144.283  0.00  0.00    +0.000 OA
ATOM     47  O   UNL     1     104.503 122.822 145.606  0.00  0.00    +0.000 OA
ATOM     48  C   UNL     1     104.460 123.413 145.032  0.00  0.00    +0.000 C 
ENDBRANCH  45  48
ENDBRANCH  44  45
ENDBRANCH  42  44
ENDBRANCH  41  42
ENDBRANCH   7  41
TORSDOF 10
ENDMDL
