MODEL 1
REMARK VINA RESULT:      -8.8      0.000      0.000
REMARK  Name = 
REMARK  4 active torsions:
REMARK  status: ('A' for Active; 'I' for Inactive)
REMARK    1  A    between atoms: O_2  and  C_13
REMARK    2  A    between atoms: O_2  and  C_15
REMARK    3  A    between atoms: C_12  and  C_14
REMARK    4  A    between atoms: C_22  and  C_24
REMARK                            x       y       z     vdW  Elec       q    Type
REMARK                         _______ _______ _______ _____ _____    ______ ____
ROOT
ATOM      1  O   UNL     1     113.379 126.152 138.998  0.00  0.00    +0.000 OA
ATOM      2  O   UNL     1     112.312 128.734 137.962  0.00  0.00    +0.000 OA
ATOM      3  C   UNL     1     113.800 128.712 140.600  0.00  0.00    +0.000 A 
ATOM      4  C   UNL     1     113.290 128.729 139.699  0.00  0.00    +0.000 A 
ATOM      5  C   UNL     1     114.170 127.815 140.960  0.00  0.00    +0.000 A 
ATOM      6  C   UNL     1     113.157 127.849 139.170  0.00  0.00    +0.000 A 
ATOM      7  C   UNL     1     113.513 126.988 139.516  0.00  0.00    +0.000 A 
ATOM      8  C   UNL     1     114.026 126.947 140.414  0.00  0.00    +0.000 A 
ATOM      9  C   UNL     1     112.667 127.874 138.307  0.00  0.00    +0.000 A 
ATOM     10  C   UNL     1     112.888 126.175 138.134  0.00  0.00    +0.000 A 
ATOM     11  C   UNL     1     112.533 127.036 137.788  0.00  0.00    +0.000 A 
ENDROOT
BRANCH  10  12
ATOM     12  C   UNL     1     112.754 125.338 137.616  0.00  0.00    +0.000 A 
ATOM     13  C   UNL     1     111.871 124.883 137.629  0.00  0.00    +0.000 A 
ATOM     14  C   UNL     1     113.501 124.957 137.085  0.00  0.00    +0.000 A 
ATOM     15  C   UNL     1     111.736 124.046 137.111  0.00  0.00    +0.000 A 
ATOM     16  C   UNL     1     113.367 124.121 136.567  0.00  0.00    +0.000 A 
ATOM     17  C   UNL     1     112.484 123.664 136.579  0.00  0.00    +0.000 A 
ENDBRANCH  10  12
BRANCH   3  18
ATOM     18  O   UNL     1     113.933 129.550 141.115  0.00  0.00    +0.000 OA
BRANCH  18  27
ATOM     19  O   UNL     1     112.513 129.278 142.049  0.00  0.00    +0.000 OA
ATOM     20  O   UNL     1     112.404 132.178 142.729  0.00  0.00    +0.000 OA
ATOM     21  O   UNL     1     111.021 130.939 143.435  0.00  0.00    +0.000 OA
ATOM     22  O   UNL     1     113.860 131.483 141.569  0.00  0.00    +0.000 OA
ATOM     23  C   UNL     1     112.440 131.211 142.502  0.00  0.00    +0.000 C 
ATOM     24  C   UNL     1     111.749 130.592 142.856  0.00  0.00    +0.000 C 
ATOM     25  C   UNL     1     113.169 130.865 141.922  0.00  0.00    +0.000 C 
ATOM     26  C   UNL     1     111.785 129.625 142.629  0.00  0.00    +0.000 C 
ATOM     27  C   UNL     1     113.205 129.898 141.695  0.00  0.00    +0.000 C 
BRANCH  26  29
ATOM     28  O   UNL     1     111.218 128.023 142.898  0.00  0.00    +0.000 OA
ATOM     29  C   UNL     1     111.093 129.006 142.982  0.00  0.00    +0.000 C 
ENDBRANCH  26  29
ENDBRANCH  18  27
ENDBRANCH   3  18
TORSDOF 4
ENDMDL
MODEL 2
REMARK VINA RESULT:      -8.8      3.750      5.211
REMARK  Name = 
REMARK  4 active torsions:
REMARK  status: ('A' for Active; 'I' for Inactive)
REMARK    1  A    between atoms: O_2  and  C_13
REMARK    2  A    between atoms: O_2  and  C_15
REMARK    3  A    between atoms: C_12  and  C_14
REMARK    4  A    between atoms: C_22  and  C_24
REMARK                            x       y       z     vdW  Elec       q    Type
REMARK                         _______ _______ _______ _____ _____    ______ ____
ROOT
ATOM      1  O   UNL     1     112.269 127.133 136.314  0.00  0.00    +0.000 OA
ATOM      2  O   UNL     1     113.582 129.806 136.223  0.00  0.00    +0.000 OA
ATOM      3  C   UNL     1     110.628 129.597 135.584  0.00  0.00    +0.000 A 
ATOM      4  C   UNL     1     111.637 129.679 135.801  0.00  0.00    +0.000 A 
ATOM      5  C   UNL     1     110.172 128.669 135.616  0.00  0.00    +0.000 A 
ATOM      6  C   UNL     1     112.177 128.830 136.047  0.00  0.00    +0.000 A 
ATOM      7  C   UNL     1     111.738 127.938 136.077  0.00  0.00    +0.000 A 
ATOM      8  C   UNL     1     110.731 127.834 135.864  0.00  0.00    +0.000 A 
ATOM      9  C   UNL     1     113.144 128.915 136.254  0.00  0.00    +0.000 A 
ATOM     10  C   UNL     1     113.236 127.218 136.522  0.00  0.00    +0.000 A 
ATOM     11  C   UNL     1     113.675 128.109 136.491  0.00  0.00    +0.000 A 
ENDROOT
BRANCH  10  12
ATOM     12  C   UNL     1     113.767 126.411 136.759  0.00  0.00    +0.000 A 
ATOM     13  C   UNL     1     113.720 126.039 137.679  0.00  0.00    +0.000 A 
ATOM     14  C   UNL     1     114.344 125.978 136.077  0.00  0.00    +0.000 A 
ATOM     15  C   UNL     1     114.250 125.234 137.917  0.00  0.00    +0.000 A 
ATOM     16  C   UNL     1     114.874 125.173 136.314  0.00  0.00    +0.000 A 
ATOM     17  C   UNL     1     114.828 124.800 137.234  0.00  0.00    +0.000 A 
ENDBRANCH  10  12
BRANCH   3  18
ATOM     18  O   UNL     1     110.101 130.405 135.347  0.00  0.00    +0.000 OA
BRANCH  18  27
ATOM     19  O   UNL     1     109.932 131.072 136.924  0.00  0.00    +0.000 OA
ATOM     20  O   UNL     1     107.096 131.768 136.325  0.00  0.00    +0.000 OA
ATOM     21  O   UNL     1     107.872 132.202 138.101  0.00  0.00    +0.000 OA
ATOM     22  O   UNL     1     108.211 130.869 134.947  0.00  0.00    +0.000 OA
ATOM     23  C   UNL     1     108.041 131.536 136.525  0.00  0.00    +0.000 C 
ATOM     24  C   UNL     1     108.428 131.753 137.413  0.00  0.00    +0.000 C 
ATOM     25  C   UNL     1     108.598 131.086 135.835  0.00  0.00    +0.000 C 
ATOM     26  C   UNL     1     109.374 131.521 137.613  0.00  0.00    +0.000 C 
ATOM     27  C   UNL     1     109.544 130.854 136.035  0.00  0.00    +0.000 C 
BRANCH  26  29
ATOM     28  O   UNL     1     110.741 131.888 138.592  0.00  0.00    +0.000 OA
ATOM     29  C   UNL     1     109.762 131.738 138.501  0.00  0.00    +0.000 C 
ENDBRANCH  26  29
ENDBRANCH  18  27
ENDBRANCH   3  18
TORSDOF 4
ENDMDL
MODEL 3
REMARK VINA RESULT:      -8.7      7.657     10.574
REMARK  Name = 
REMARK  4 active torsions:
REMARK  status: ('A' for Active; 'I' for Inactive)
REMARK    1  A    between atoms: O_2  and  C_13
REMARK    2  A    between atoms: O_2  and  C_15
REMARK    3  A    between atoms: C_12  and  C_14
REMARK    4  A    between atoms: C_22  and  C_24
REMARK                            x       y       z     vdW  Elec       q    Type
REMARK                         _______ _______ _______ _____ _____    ______ ____
ROOT
ATOM      1  O   UNL     1     102.880 131.471 142.382  0.00  0.00    +0.000 OA
ATOM      2  O   UNL     1     102.837 129.977 139.803  0.00  0.00    +0.000 OA
ATOM      3  C   UNL     1     104.169 128.712 142.211  0.00  0.00    +0.000 A 
ATOM      4  C   UNL     1     103.716 129.137 141.383  0.00  0.00    +0.000 A 
ATOM      5  C   UNL     1     104.184 129.231 143.107  0.00  0.00    +0.000 A 
ATOM      6  C   UNL     1     103.284 130.074 141.461  0.00  0.00    +0.000 A 
ATOM      7  C   UNL     1     103.299 130.572 142.321  0.00  0.00    +0.000 A 
ATOM      8  C   UNL     1     103.746 130.167 143.162  0.00  0.00    +0.000 A 
ATOM      9  C   UNL     1     102.851 130.475 140.662  0.00  0.00    +0.000 A 
ATOM     10  C   UNL     1     102.447 131.872 141.583  0.00  0.00    +0.000 A 
ATOM     11  C   UNL     1     102.432 131.375 140.723  0.00  0.00    +0.000 A 
ENDROOT
BRANCH  10  12
ATOM     12  C   UNL     1     102.028 132.772 141.643  0.00  0.00    +0.000 A 
ATOM     13  C   UNL     1     101.129 132.874 142.053  0.00  0.00    +0.000 A 
ATOM     14  C   UNL     1     102.508 133.568 141.294  0.00  0.00    +0.000 A 
ATOM     15  C   UNL     1     100.710 133.773 142.114  0.00  0.00    +0.000 A 
ATOM     16  C   UNL     1     102.090 134.466 141.354  0.00  0.00    +0.000 A 
ATOM     17  C   UNL     1     101.191 134.570 141.764  0.00  0.00    +0.000 A 
ENDBRANCH  10  12
BRANCH   3  18
ATOM     18  O   UNL     1     104.586 127.814 142.147  0.00  0.00    +0.000 OA
BRANCH  18  27
ATOM     19  O   UNL     1     106.169 128.406 141.823  0.00  0.00    +0.000 OA
ATOM     20  O   UNL     1     107.338 126.053 143.232  0.00  0.00    +0.000 OA
ATOM     21  O   UNL     1     108.530 127.429 142.437  0.00  0.00    +0.000 OA
ATOM     22  O   UNL     1     105.365 126.245 143.086  0.00  0.00    +0.000 OA
ATOM     23  C   UNL     1     106.948 126.837 142.762  0.00  0.00    +0.000 C 
ATOM     24  C   UNL     1     107.545 127.525 142.365  0.00  0.00    +0.000 C 
ATOM     25  C   UNL     1     105.962 126.933 142.690  0.00  0.00    +0.000 C 
ATOM     26  C   UNL     1     107.155 128.309 141.895  0.00  0.00    +0.000 C 
ATOM     27  C   UNL     1     105.572 127.717 142.220  0.00  0.00    +0.000 C 
BRANCH  26  29
ATOM     28  O   UNL     1     107.386 129.658 140.852  0.00  0.00    +0.000 OA
ATOM     29  C   UNL     1     107.752 128.997 141.498  0.00  0.00    +0.000 C 
ENDBRANCH  26  29
ENDBRANCH  18  27
ENDBRANCH   3  18
TORSDOF 4
ENDMDL
MODEL 4
REMARK VINA RESULT:      -8.7      3.775      5.193
REMARK  Name = 
REMARK  4 active torsions:
REMARK  status: ('A' for Active; 'I' for Inactive)
REMARK    1  A    between atoms: O_2  and  C_13
REMARK    2  A    between atoms: O_2  and  C_15
REMARK    3  A    between atoms: C_12  and  C_14
REMARK    4  A    between atoms: C_22  and  C_24
REMARK                            x       y       z     vdW  Elec       q    Type
REMARK                         _______ _______ _______ _____ _____    ______ ____
ROOT
ATOM      1  O   UNL     1     112.629 127.268 136.111  0.00  0.00    +0.000 OA
ATOM      2  O   UNL     1     109.828 126.920 137.068  0.00  0.00    +0.000 OA
ATOM      3  C   UNL     1     110.537 129.391 135.466  0.00  0.00    +0.000 A 
ATOM      4  C   UNL     1     110.285 128.549 136.014  0.00  0.00    +0.000 A 
ATOM      5  C   UNL     1     111.510 129.511 135.134  0.00  0.00    +0.000 A 
ATOM      6  C   UNL     1     111.010 127.840 136.223  0.00  0.00    +0.000 A 
ATOM      7  C   UNL     1     111.944 127.956 135.904  0.00  0.00    +0.000 A 
ATOM      8  C   UNL     1     112.218 128.789 135.354  0.00  0.00    +0.000 A 
ATOM      9  C   UNL     1     110.761 127.036 136.749  0.00  0.00    +0.000 A 
ATOM     10  C   UNL     1     112.380 126.463 136.638  0.00  0.00    +0.000 A 
ATOM     11  C   UNL     1     111.446 126.346 136.957  0.00  0.00    +0.000 A 
ENDROOT
BRANCH  10  12
ATOM     12  C   UNL     1     113.066 125.773 136.846  0.00  0.00    +0.000 A 
ATOM     13  C   UNL     1     113.823 125.992 137.450  0.00  0.00    +0.000 A 
ATOM     14  C   UNL     1     112.993 124.866 136.450  0.00  0.00    +0.000 A 
ATOM     15  C   UNL     1     114.508 125.304 137.659  0.00  0.00    +0.000 A 
ATOM     16  C   UNL     1     113.678 124.177 136.657  0.00  0.00    +0.000 A 
ATOM     17  C   UNL     1     114.436 124.395 137.262  0.00  0.00    +0.000 A 
ENDBRANCH  10  12
BRANCH   3  18
ATOM     18  O   UNL     1     109.850 130.077 135.260  0.00  0.00    +0.000 OA
BRANCH  18  27
ATOM     19  O   UNL     1     110.140 131.033 136.661  0.00  0.00    +0.000 OA
ATOM     20  O   UNL     1     107.248 131.747 136.773  0.00  0.00    +0.000 OA
ATOM     21  O   UNL     1     108.502 132.464 138.136  0.00  0.00    +0.000 OA
ATOM     22  O   UNL     1     107.922 130.553 135.334  0.00  0.00    +0.000 OA
ATOM     23  C   UNL     1     108.212 131.509 136.735  0.00  0.00    +0.000 C 
ATOM     24  C   UNL     1     108.838 131.868 137.417  0.00  0.00    +0.000 C 
ATOM     25  C   UNL     1     108.548 130.912 136.016  0.00  0.00    +0.000 C 
ATOM     26  C   UNL     1     109.803 131.630 137.380  0.00  0.00    +0.000 C 
ATOM     27  C   UNL     1     109.513 130.674 135.979  0.00  0.00    +0.000 C 
BRANCH  26  29
ATOM     28  O   UNL     1     111.379 131.693 138.068  0.00  0.00    +0.000 OA
ATOM     29  C   UNL     1     110.430 131.989 138.062  0.00  0.00    +0.000 C 
ENDBRANCH  26  29
ENDBRANCH  18  27
ENDBRANCH   3  18
TORSDOF 4
ENDMDL
MODEL 5
REMARK VINA RESULT:      -8.6      3.355      4.608
REMARK  Name = 
REMARK  4 active torsions:
REMARK  status: ('A' for Active; 'I' for Inactive)
REMARK    1  A    between atoms: O_2  and  C_13
REMARK    2  A    between atoms: O_2  and  C_15
REMARK    3  A    between atoms: C_12  and  C_14
REMARK    4  A    between atoms: C_22  and  C_24
REMARK                            x       y       z     vdW  Elec       q    Type
REMARK                         _______ _______ _______ _____ _____    ______ ____
ROOT
ATOM      1  O   UNL     1     112.844 127.272 136.347  0.00  0.00    +0.000 OA
ATOM      2  O   UNL     1     112.300 128.521 138.998  0.00  0.00    +0.000 OA
ATOM      3  C   UNL     1     111.856 130.154 136.485  0.00  0.00    +0.000 A 
ATOM      4  C   UNL     1     112.005 129.603 137.350  0.00  0.00    +0.000 A 
ATOM      5  C   UNL     1     112.045 129.720 135.565  0.00  0.00    +0.000 A 
ATOM      6  C   UNL     1     112.341 128.626 137.281  0.00  0.00    +0.000 A 
ATOM      7  C   UNL     1     112.522 128.210 136.397  0.00  0.00    +0.000 A 
ATOM      8  C   UNL     1     112.381 128.742 135.521  0.00  0.00    +0.000 A 
ATOM      9  C   UNL     1     112.481 128.105 138.115  0.00  0.00    +0.000 A 
ATOM     10  C   UNL     1     112.985 126.749 137.180  0.00  0.00    +0.000 A 
ATOM     11  C   UNL     1     112.803 127.166 138.064  0.00  0.00    +0.000 A 
ENDROOT
BRANCH  10  12
ATOM     12  C   UNL     1     113.307 125.810 137.130  0.00  0.00    +0.000 A 
ATOM     13  C   UNL     1     112.674 125.080 136.903  0.00  0.00    +0.000 A 
ATOM     14  C   UNL     1     114.262 125.603 137.308  0.00  0.00    +0.000 A 
ATOM     15  C   UNL     1     112.995 124.141 136.852  0.00  0.00    +0.000 A 
ATOM     16  C   UNL     1     114.584 124.665 137.257  0.00  0.00    +0.000 A 
ATOM     17  C   UNL     1     113.951 123.933 137.030  0.00  0.00    +0.000 A 
ENDBRANCH  10  12
BRANCH   3  18
ATOM     18  O   UNL     1     111.534 131.091 136.539  0.00  0.00    +0.000 OA
BRANCH  18  27
ATOM     19  O   UNL     1     109.859 130.798 136.275  0.00  0.00    +0.000 OA
ATOM     20  O   UNL     1     109.177 132.799 138.377  0.00  0.00    +0.000 OA
ATOM     21  O   UNL     1     107.731 131.840 137.412  0.00  0.00    +0.000 OA
ATOM     22  O   UNL     1     111.080 132.425 137.940  0.00  0.00    +0.000 OA
ATOM     23  C   UNL     1     109.405 132.132 137.676  0.00  0.00    +0.000 C 
ATOM     24  C   UNL     1     108.681 131.653 137.194  0.00  0.00    +0.000 C 
ATOM     25  C   UNL     1     110.356 131.946 137.458  0.00  0.00    +0.000 C 
ATOM     26  C   UNL     1     108.908 130.986 136.493  0.00  0.00    +0.000 C 
ATOM     27  C   UNL     1     110.584 131.279 136.758  0.00  0.00    +0.000 C 
BRANCH  26  29
ATOM     28  O   UNL     1     108.364 129.616 135.605  0.00  0.00    +0.000 OA
ATOM     29  C   UNL     1     108.185 130.506 136.011  0.00  0.00    +0.000 C 
ENDBRANCH  26  29
ENDBRANCH  18  27
ENDBRANCH   3  18
TORSDOF 4
ENDMDL
MODEL 6
REMARK VINA RESULT:      -8.3      7.949      9.807
REMARK  Name = 
REMARK  4 active torsions:
REMARK  status: ('A' for Active; 'I' for Inactive)
REMARK    1  A    between atoms: O_2  and  C_13
REMARK    2  A    between atoms: O_2  and  C_15
REMARK    3  A    between atoms: C_12  and  C_14
REMARK    4  A    between atoms: C_22  and  C_24
REMARK                            x       y       z     vdW  Elec       q    Type
REMARK                         _______ _______ _______ _____ _____    ______ ____
ROOT
ATOM      1  O   UNL     1     106.945 126.481 146.322  0.00  0.00    +0.000 OA
ATOM      2  O   UNL     1     105.268 124.877 144.453  0.00  0.00    +0.000 OA
ATOM      3  C   UNL     1     106.257 127.601 143.570  0.00  0.00    +0.000 A 
ATOM      4  C   UNL     1     105.914 126.668 143.863  0.00  0.00    +0.000 A 
ATOM      5  C   UNL     1     106.839 128.158 144.220  0.00  0.00    +0.000 A 
ATOM      6  C   UNL     1     106.159 126.306 144.802  0.00  0.00    +0.000 A 
ATOM      7  C   UNL     1     106.718 126.842 145.425  0.00  0.00    +0.000 A 
ATOM      8  C   UNL     1     107.071 127.776 145.153  0.00  0.00    +0.000 A 
ATOM      9  C   UNL     1     105.827 125.412 145.076  0.00  0.00    +0.000 A 
ATOM     10  C   UNL     1     106.613 125.586 146.597  0.00  0.00    +0.000 A 
ATOM     11  C   UNL     1     106.054 125.051 145.974  0.00  0.00    +0.000 A 
ENDROOT
BRANCH  10  12
ATOM     12  C   UNL     1     106.840 125.226 147.495  0.00  0.00    +0.000 A 
ATOM     13  C   UNL     1     107.789 125.077 147.745  0.00  0.00    +0.000 A 
ATOM     14  C   UNL     1     106.117 125.014 148.142  0.00  0.00    +0.000 A 
ATOM     15  C   UNL     1     108.017 124.716 148.642  0.00  0.00    +0.000 A 
ATOM     16  C   UNL     1     106.343 124.654 149.039  0.00  0.00    +0.000 A 
ATOM     17  C   UNL     1     107.293 124.505 149.290  0.00  0.00    +0.000 A 
ENDBRANCH  10  12
BRANCH   3  18
ATOM     18  O   UNL     1     106.028 127.958 142.672  0.00  0.00    +0.000 OA
BRANCH  18  27
ATOM     19  O   UNL     1     104.898 129.106 143.278  0.00  0.00    +0.000 OA
ATOM     20  O   UNL     1     103.369 128.947 140.724  0.00  0.00    +0.000 OA
ATOM     21  O   UNL     1     102.749 130.147 142.180  0.00  0.00    +0.000 OA
ATOM     22  O   UNL     1     105.009 127.852 140.970  0.00  0.00    +0.000 OA
ATOM     23  C   UNL     1     103.879 129.000 141.575  0.00  0.00    +0.000 C 
ATOM     24  C   UNL     1     103.568 129.600 142.303  0.00  0.00    +0.000 C 
ATOM     25  C   UNL     1     104.699 128.452 141.698  0.00  0.00    +0.000 C 
ATOM     26  C   UNL     1     104.078 129.653 143.154  0.00  0.00    +0.000 C 
ATOM     27  C   UNL     1     105.209 128.505 142.549  0.00  0.00    +0.000 C 
BRANCH  26  29
ATOM     28  O   UNL     1     104.101 130.121 144.810  0.00  0.00    +0.000 OA
ATOM     29  C   UNL     1     103.768 130.253 143.883  0.00  0.00    +0.000 C 
ENDBRANCH  26  29
ENDBRANCH  18  27
ENDBRANCH   3  18
TORSDOF 4
ENDMDL
MODEL 7
REMARK VINA RESULT:      -8.3      1.540      2.446
REMARK  Name = 
REMARK  4 active torsions:
REMARK  status: ('A' for Active; 'I' for Inactive)
REMARK    1  A    between atoms: O_2  and  C_13
REMARK    2  A    between atoms: O_2  and  C_15
REMARK    3  A    between atoms: C_12  and  C_14
REMARK    4  A    between atoms: C_22  and  C_24
REMARK                            x       y       z     vdW  Elec       q    Type
REMARK                         _______ _______ _______ _____ _____    ______ ____
ROOT
ATOM      1  O   UNL     1     112.266 126.128 139.237  0.00  0.00    +0.000 OA
ATOM      2  O   UNL     1     114.317 127.539 140.875  0.00  0.00    +0.000 OA
ATOM      3  C   UNL     1     111.449 127.473 141.849  0.00  0.00    +0.000 A 
ATOM      4  C   UNL     1     112.432 127.500 141.524  0.00  0.00    +0.000 A 
ATOM      5  C   UNL     1     110.737 126.983 141.280  0.00  0.00    +0.000 A 
ATOM      6  C   UNL     1     112.689 127.038 140.634  0.00  0.00    +0.000 A 
ATOM      7  C   UNL     1     112.005 126.568 140.088  0.00  0.00    +0.000 A 
ATOM      8  C   UNL     1     111.017 126.527 140.393  0.00  0.00    +0.000 A 
ATOM      9  C   UNL     1     113.633 127.069 140.329  0.00  0.00    +0.000 A 
ATOM     10  C   UNL     1     113.210 126.159 138.930  0.00  0.00    +0.000 A 
ATOM     11  C   UNL     1     113.895 126.629 139.477  0.00  0.00    +0.000 A 
ENDROOT
BRANCH  10  12
ATOM     12  C   UNL     1     113.472 125.719 138.078  0.00  0.00    +0.000 A 
ATOM     13  C   UNL     1     114.394 125.371 137.961  0.00  0.00    +0.000 A 
ATOM     14  C   UNL     1     112.810 125.628 137.343  0.00  0.00    +0.000 A 
ATOM     15  C   UNL     1     114.656 124.932 137.110  0.00  0.00    +0.000 A 
ATOM     16  C   UNL     1     113.071 125.188 136.492  0.00  0.00    +0.000 A 
ATOM     17  C   UNL     1     113.994 124.840 136.374  0.00  0.00    +0.000 A 
ENDBRANCH  10  12
BRANCH   3  18
ATOM     18  O   UNL     1     111.192 127.913 142.701  0.00  0.00    +0.000 OA
BRANCH  18  27
ATOM     19  O   UNL     1     110.915 129.448 141.973  0.00  0.00    +0.000 OA
ATOM     20  O   UNL     1     111.654 130.793 144.528  0.00  0.00    +0.000 OA
ATOM     21  O   UNL     1     111.131 131.878 142.949  0.00  0.00    +0.000 OA
ATOM     22  O   UNL     1     111.684 128.810 144.404  0.00  0.00    +0.000 OA
ATOM     23  C   UNL     1     111.407 130.344 143.676  0.00  0.00    +0.000 C 
ATOM     24  C   UNL     1     111.146 130.888 142.887  0.00  0.00    +0.000 C 
ATOM     25  C   UNL     1     111.423 129.353 143.615  0.00  0.00    +0.000 C 
ATOM     26  C   UNL     1     110.900 130.439 142.035  0.00  0.00    +0.000 C 
ATOM     27  C   UNL     1     111.177 128.904 142.763  0.00  0.00    +0.000 C 
BRANCH  26  29
ATOM     28  O   UNL     1     110.610 130.564 140.343  0.00  0.00    +0.000 OA
ATOM     29  C   UNL     1     110.639 130.982 141.245  0.00  0.00    +0.000 C 
ENDBRANCH  26  29
ENDBRANCH  18  27
ENDBRANCH   3  18
TORSDOF 4
ENDMDL
MODEL 8
REMARK VINA RESULT:      -8.3      3.158      7.978
REMARK  Name = 
REMARK  4 active torsions:
REMARK  status: ('A' for Active; 'I' for Inactive)
REMARK    1  A    between atoms: O_2  and  C_13
REMARK    2  A    between atoms: O_2  and  C_15
REMARK    3  A    between atoms: C_12  and  C_14
REMARK    4  A    between atoms: C_22  and  C_24
REMARK                            x       y       z     vdW  Elec       q    Type
REMARK                         _______ _______ _______ _____ _____    ______ ____
ROOT
ATOM      1  O   UNL     1     111.845 131.448 145.613  0.00  0.00    +0.000 OA
ATOM      2  O   UNL     1     111.835 133.691 143.651  0.00  0.00    +0.000 OA
ATOM      3  C   UNL     1     111.410 130.863 142.652  0.00  0.00    +0.000 A 
ATOM      4  C   UNL     1     111.555 131.833 142.984  0.00  0.00    +0.000 A 
ATOM      5  C   UNL     1     111.414 130.085 143.333  0.00  0.00    +0.000 A 
ATOM      6  C   UNL     1     111.700 132.011 143.993  0.00  0.00    +0.000 A 
ATOM      7  C   UNL     1     111.704 131.263 144.648  0.00  0.00    +0.000 A 
ATOM      8  C   UNL     1     111.561 130.286 144.338  0.00  0.00    +0.000 A 
ATOM      9  C   UNL     1     111.838 132.944 144.305  0.00  0.00    +0.000 A 
ATOM     10  C   UNL     1     111.983 132.381 145.925  0.00  0.00    +0.000 A 
ATOM     11  C   UNL     1     111.979 133.129 145.271  0.00  0.00    +0.000 A 
ENDROOT
BRANCH  10  12
ATOM     12  C   UNL     1     112.124 132.567 146.891  0.00  0.00    +0.000 A 
ATOM     13  C   UNL     1     111.444 133.079 147.403  0.00  0.00    +0.000 A 
ATOM     14  C   UNL     1     112.945 132.241 147.345  0.00  0.00    +0.000 A 
ATOM     15  C   UNL     1     111.584 133.265 148.369  0.00  0.00    +0.000 A 
ATOM     16  C   UNL     1     113.086 132.426 148.310  0.00  0.00    +0.000 A 
ATOM     17  C   UNL     1     112.406 132.938 148.823  0.00  0.00    +0.000 A 
ENDBRANCH  10  12
BRANCH   3  18
ATOM     18  O   UNL     1     111.269 130.682 141.686  0.00  0.00    +0.000 OA
BRANCH  18  27
ATOM     19  O   UNL     1     112.947 130.722 141.303  0.00  0.00    +0.000 OA
ATOM     20  O   UNL     1     112.480 128.818 139.057  0.00  0.00    +0.000 OA
ATOM     21  O   UNL     1     114.312 129.493 139.423  0.00  0.00    +0.000 OA
ATOM     22  O   UNL     1     110.958 129.413 140.189  0.00  0.00    +0.000 OA
ATOM     23  C   UNL     1     112.635 129.453 139.806  0.00  0.00    +0.000 C 
ATOM     24  C   UNL     1     113.551 129.790 139.988  0.00  0.00    +0.000 C 
ATOM     25  C   UNL     1     111.874 129.750 140.371  0.00  0.00    +0.000 C 
ATOM     26  C   UNL     1     113.707 130.425 140.737  0.00  0.00    +0.000 C 
ATOM     27  C   UNL     1     112.030 130.384 141.120  0.00  0.00    +0.000 C 
BRANCH  26  29
ATOM     28  O   UNL     1     114.755 131.533 141.534  0.00  0.00    +0.000 OA
ATOM     29  C   UNL     1     114.623 130.762 140.920  0.00  0.00    +0.000 C 
ENDBRANCH  26  29
ENDBRANCH  18  27
ENDBRANCH   3  18
TORSDOF 4
ENDMDL
MODEL 9
REMARK VINA RESULT:      -8.1      1.836      2.878
REMARK  Name = 
REMARK  4 active torsions:
REMARK  status: ('A' for Active; 'I' for Inactive)
REMARK    1  A    between atoms: O_2  and  C_13
REMARK    2  A    between atoms: O_2  and  C_15
REMARK    3  A    between atoms: C_12  and  C_14
REMARK    4  A    between atoms: C_22  and  C_24
REMARK                            x       y       z     vdW  Elec       q    Type
REMARK                         _______ _______ _______ _____ _____    ______ ____
ROOT
ATOM      1  O   UNL     1     113.401 126.554 139.302  0.00  0.00    +0.000 OA
ATOM      2  O   UNL     1     110.477 126.046 139.026  0.00  0.00    +0.000 OA
ATOM      3  C   UNL     1     111.502 127.404 141.532  0.00  0.00    +0.000 A 
ATOM      4  C   UNL     1     111.143 126.940 140.679  0.00  0.00    +0.000 A 
ATOM      5  C   UNL     1     112.517 127.581 141.628  0.00  0.00    +0.000 A 
ATOM      6  C   UNL     1     111.803 126.659 139.934  0.00  0.00    +0.000 A 
ATOM      7  C   UNL     1     112.778 126.829 140.026  0.00  0.00    +0.000 A 
ATOM      8  C   UNL     1     113.160 127.291 140.870  0.00  0.00    +0.000 A 
ATOM      9  C   UNL     1     111.451 126.215 139.118  0.00  0.00    +0.000 A 
ATOM     10  C   UNL     1     113.049 126.110 138.486  0.00  0.00    +0.000 A 
ATOM     11  C   UNL     1     112.074 125.940 138.394  0.00  0.00    +0.000 A 
ENDROOT
BRANCH  10  12
ATOM     12  C   UNL     1     113.672 125.835 137.762  0.00  0.00    +0.000 A 
ATOM     13  C   UNL     1     114.160 124.972 137.828  0.00  0.00    +0.000 A 
ATOM     14  C   UNL     1     113.806 126.422 136.973  0.00  0.00    +0.000 A 
ATOM     15  C   UNL     1     114.782 124.697 137.105  0.00  0.00    +0.000 A 
ATOM     16  C   UNL     1     114.429 126.147 136.250  0.00  0.00    +0.000 A 
ATOM     17  C   UNL     1     114.917 125.285 136.315  0.00  0.00    +0.000 A 
ENDBRANCH  10  12
BRANCH   3  18
ATOM     18  O   UNL     1     110.877 127.677 142.254  0.00  0.00    +0.000 OA
BRANCH  18  27
ATOM     19  O   UNL     1     110.840 129.351 141.854  0.00  0.00    +0.000 OA
ATOM     20  O   UNL     1     107.961 129.470 142.618  0.00  0.00    +0.000 OA
ATOM     21  O   UNL     1     108.884 131.103 141.964  0.00  0.00    +0.000 OA
ATOM     22  O   UNL     1     108.958 127.757 142.762  0.00  0.00    +0.000 OA
ATOM     23  C   UNL     1     108.921 129.430 142.363  0.00  0.00    +0.000 C 
ATOM     24  C   UNL     1     109.382 130.247 142.036  0.00  0.00    +0.000 C 
ATOM     25  C   UNL     1     109.419 128.573 142.436  0.00  0.00    +0.000 C 
ATOM     26  C   UNL     1     110.342 130.207 141.782  0.00  0.00    +0.000 C 
ATOM     27  C   UNL     1     110.379 128.534 142.181  0.00  0.00    +0.000 C 
BRANCH  26  29
ATOM     28  O   UNL     1     111.739 130.966 141.123  0.00  0.00    +0.000 OA
ATOM     29  C   UNL     1     110.804 131.024 141.455  0.00  0.00    +0.000 C 
ENDBRANCH  26  29
ENDBRANCH  18  27
ENDBRANCH   3  18
TORSDOF 4
ENDMDL
MODEL 10
REMARK VINA RESULT:      -8.1      3.724      4.929
REMARK  Name = 
REMARK  4 active torsions:
REMARK  status: ('A' for Active; 'I' for Inactive)
REMARK    1  A    between atoms: O_2  and  C_13
REMARK    2  A    between atoms: O_2  and  C_15
REMARK    3  A    between atoms: C_12  and  C_14
REMARK    4  A    between atoms: C_22  and  C_24
REMARK                            x       y       z     vdW  Elec       q    Type
REMARK                         _______ _______ _______ _____ _____    ______ ____
ROOT
ATOM      1  O   UNL     1     111.581 125.740 139.145  0.00  0.00    +0.000 OA
ATOM      2  O   UNL     1     109.193 126.815 137.724  0.00  0.00    +0.000 OA
ATOM      3  C   UNL     1     109.338 127.051 140.740  0.00  0.00    +0.000 A 
ATOM      4  C   UNL     1     109.279 126.975 139.709  0.00  0.00    +0.000 A 
ATOM      5  C   UNL     1     110.167 126.678 141.233  0.00  0.00    +0.000 A 
ATOM      6  C   UNL     1     110.052 126.527 139.186  0.00  0.00    +0.000 A 
ATOM      7  C   UNL     1     110.848 126.168 139.660  0.00  0.00    +0.000 A 
ATOM      8  C   UNL     1     110.928 126.233 140.690  0.00  0.00    +0.000 A 
ATOM      9  C   UNL     1     109.989 126.457 138.197  0.00  0.00    +0.000 A 
ATOM     10  C   UNL     1     111.519 125.670 138.156  0.00  0.00    +0.000 A 
ATOM     11  C   UNL     1     110.723 126.029 137.681  0.00  0.00    +0.000 A 
ENDROOT
BRANCH  10  12
ATOM     12  C   UNL     1     112.253 125.242 137.640  0.00  0.00    +0.000 A 
ATOM     13  C   UNL     1     113.134 125.693 137.562  0.00  0.00    +0.000 A 
ATOM     14  C   UNL     1     112.105 124.363 137.203  0.00  0.00    +0.000 A 
ATOM     15  C   UNL     1     113.868 125.266 137.047  0.00  0.00    +0.000 A 
ATOM     16  C   UNL     1     112.839 123.935 136.688  0.00  0.00    +0.000 A 
ATOM     17  C   UNL     1     113.721 124.386 136.609  0.00  0.00    +0.000 A 
ENDBRANCH  10  12
BRANCH   3  18
ATOM     18  O   UNL     1     108.603 127.480 141.252  0.00  0.00    +0.000 OA
BRANCH  18  27
ATOM     19  O   UNL     1     107.418 126.255 141.012  0.00  0.00    +0.000 OA
ATOM     20  O   UNL     1     106.469 126.625 143.814  0.00  0.00    +0.000 OA
ATOM     21  O   UNL     1     105.601 125.277 142.640  0.00  0.00    +0.000 OA
ATOM     22  O   UNL     1     107.970 127.726 143.119  0.00  0.00    +0.000 OA
ATOM     23  C   UNL     1     106.785 126.501 142.880  0.00  0.00    +0.000 C 
ATOM     24  C   UNL     1     106.351 125.828 142.294  0.00  0.00    +0.000 C 
ATOM     25  C   UNL     1     107.536 127.053 142.533  0.00  0.00    +0.000 C 
ATOM     26  C   UNL     1     106.668 125.704 141.360  0.00  0.00    +0.000 C 
ATOM     27  C   UNL     1     107.852 126.929 141.599  0.00  0.00    +0.000 C 
BRANCH  26  29
ATOM     28  O   UNL     1     106.240 125.153 139.786  0.00  0.00    +0.000 OA
ATOM     29  C   UNL     1     106.234 125.030 140.773  0.00  0.00    +0.000 C 
ENDBRANCH  26  29
ENDBRANCH  18  27
ENDBRANCH   3  18
TORSDOF 4
ENDMDL
