MODEL 1
REMARK VINA RESULT:      -8.7      0.000      0.000
REMARK  Name = 5320475
REMARK  2 active torsions:
REMARK  status: ('A' for Active; 'I' for Inactive)
REMARK    1  A    between atoms: O_2  and  C_12
REMARK    2  A    between atoms: C_11  and  C_14
REMARK                            x       y       z     vdW  Elec       q    Type
REMARK                         _______ _______ _______ _____ _____    ______ ____
ROOT
ATOM      1  O   UNL     1     105.475 124.474 147.837  0.00  0.00    +0.000 OA
ATOM      2  O   UNL     1     108.049 125.391 146.899  0.00  0.00    +0.000 OA
ATOM      3  O   UNL     1     106.883 125.452 146.052  0.00  0.00    +0.000 OA
ATOM      4  O   UNL     1     108.747 124.988 148.384  0.00  0.00    +0.000 OA
ATOM      5  O   UNL     1     107.786 124.320 149.603  0.00  0.00    +0.000 OA
ATOM      6  C   UNL     1     106.748 124.927 147.374  0.00  0.00    +0.000 A 
ATOM      7  C   UNL     1     106.279 124.601 147.970  0.00  0.00    +0.000 A 
ATOM      8  C   UNL     1     105.140 124.672 147.110  0.00  0.00    +0.000 A 
ATOM      9  C   UNL     1     105.609 124.998 146.515  0.00  0.00    +0.000 A 
ATOM     10  C   UNL     1     106.414 125.126 146.647  0.00  0.00    +0.000 A 
ATOM     11  C   UNL     1     107.588 125.065 147.499  0.00  0.00    +0.000 A 
ATOM     12  C   UNL     1     106.617 124.390 148.731  0.00  0.00    +0.000 A 
ATOM     13  C   UNL     1     107.943 124.860 148.254  0.00  0.00    +0.000 A 
ATOM     14  C   UNL     1     107.453 124.520 148.875  0.00  0.00    +0.000 A 
ENDROOT
BRANCH   8  17
ATOM     15  O   UNL     1     103.017 122.988 146.201  0.00  0.00    +0.000 OA
ATOM     16  O   UNL     1     101.922 124.162 146.581  0.00  0.00    +0.000 OA
ATOM     17  C   UNL     1     104.336 124.545 146.978  0.00  0.00    +0.000 A 
ATOM     18  C   UNL     1     104.079 123.830 146.656  0.00  0.00    +0.000 A 
ATOM     19  C   UNL     1     103.788 125.132 147.168  0.00  0.00    +0.000 A 
ATOM     20  C   UNL     1     103.274 123.702 146.523  0.00  0.00    +0.000 A 
ATOM     21  C   UNL     1     102.984 125.005 147.035  0.00  0.00    +0.000 A 
ATOM     22  C   UNL     1     102.727 124.290 146.713  0.00  0.00    +0.000 A 
ENDBRANCH   8  17
BRANCH   9  23
ATOM     23  O   UNL     1     105.274 125.197 145.788  0.00  0.00    +0.000 OA
ATOM     24  C   UNL     1     105.760 125.373 145.144  0.00  0.00    +0.000 C 
ENDBRANCH   9  23
TORSDOF 2
ENDMDL
MODEL 2
REMARK VINA RESULT:      -8.7      0.931      4.383
REMARK  Name = 5320475
REMARK  2 active torsions:
REMARK  status: ('A' for Active; 'I' for Inactive)
REMARK    1  A    between atoms: O_2  and  C_12
REMARK    2  A    between atoms: C_11  and  C_14
REMARK                            x       y       z     vdW  Elec       q    Type
REMARK                         _______ _______ _______ _____ _____    ______ ____
ROOT
ATOM      1  O   UNL     1     105.232 124.199 147.133  0.00  0.00    +0.000 OA
ATOM      2  O   UNL     1     102.511 125.114 147.452  0.00  0.00    +0.000 OA
ATOM      3  O   UNL     1     103.567 125.612 148.298  0.00  0.00    +0.000 OA
ATOM      4  O   UNL     1     102.014 124.114 146.184  0.00  0.00    +0.000 OA
ATOM      5  O   UNL     1     103.151 123.149 145.388  0.00  0.00    +0.000 OA
ATOM      6  C   UNL     1     103.886 124.651 147.290  0.00  0.00    +0.000 A 
ATOM      7  C   UNL     1     104.442 124.180 146.902  0.00  0.00    +0.000 A 
ATOM      8  C   UNL     1     105.470 124.689 147.753  0.00  0.00    +0.000 A 
ATOM      9  C   UNL     1     104.915 125.160 148.141  0.00  0.00    +0.000 A 
ATOM     10  C   UNL     1     104.122 125.141 147.910  0.00  0.00    +0.000 A 
ATOM     11  C   UNL     1     103.058 124.640 147.058  0.00  0.00    +0.000 A 
ATOM     12  C   UNL     1     104.207 123.665 146.254  0.00  0.00    +0.000 A 
ATOM     13  C   UNL     1     102.806 124.131 146.413  0.00  0.00    +0.000 A 
ATOM     14  C   UNL     1     103.385 123.640 146.009  0.00  0.00    +0.000 A 
ENDROOT
BRANCH   8  17
ATOM     15  O   UNL     1     108.154 125.570 147.321  0.00  0.00    +0.000 OA
ATOM     16  O   UNL     1     108.636 124.767 148.680  0.00  0.00    +0.000 OA
ATOM     17  C   UNL     1     106.260 124.709 147.985  0.00  0.00    +0.000 A 
ATOM     18  C   UNL     1     106.811 125.129 147.537  0.00  0.00    +0.000 A 
ATOM     19  C   UNL     1     106.502 124.308 148.665  0.00  0.00    +0.000 A 
ATOM     20  C   UNL     1     107.603 125.149 147.769  0.00  0.00    +0.000 A 
ATOM     21  C   UNL     1     107.293 124.327 148.896  0.00  0.00    +0.000 A 
ATOM     22  C   UNL     1     107.844 124.748 148.449  0.00  0.00    +0.000 A 
ENDBRANCH   8  17
BRANCH   9  23
ATOM     23  O   UNL     1     105.150 125.651 148.761  0.00  0.00    +0.000 OA
ATOM     24  C   UNL     1     104.687 126.300 148.974  0.00  0.00    +0.000 C 
ENDBRANCH   9  23
TORSDOF 2
ENDMDL
MODEL 3
REMARK VINA RESULT:      -8.3      1.612      2.360
REMARK  Name = 5320475
REMARK  2 active torsions:
REMARK  status: ('A' for Active; 'I' for Inactive)
REMARK    1  A    between atoms: O_2  and  C_12
REMARK    2  A    between atoms: C_11  and  C_14
REMARK                            x       y       z     vdW  Elec       q    Type
REMARK                         _______ _______ _______ _____ _____    ______ ____
ROOT
ATOM      1  O   UNL     1     104.133 124.939 147.195  0.00  0.00    +0.000 OA
ATOM      2  O   UNL     1     106.106 124.415 145.152  0.00  0.00    +0.000 OA
ATOM      3  O   UNL     1     104.866 123.678 145.196  0.00  0.00    +0.000 OA
ATOM      4  O   UNL     1     107.114 125.604 145.803  0.00  0.00    +0.000 OA
ATOM      5  O   UNL     1     106.613 126.465 147.168  0.00  0.00    +0.000 OA
ATOM      6  C   UNL     1     105.109 124.681 146.185  0.00  0.00    +0.000 A 
ATOM      7  C   UNL     1     104.864 125.101 146.852  0.00  0.00    +0.000 A 
ATOM      8  C   UNL     1     103.644 124.357 146.873  0.00  0.00    +0.000 A 
ATOM      9  C   UNL     1     103.889 123.937 146.207  0.00  0.00    +0.000 A 
ATOM     10  C   UNL     1     104.622 124.099 145.862  0.00  0.00    +0.000 A 
ATOM     11  C   UNL     1     105.870 124.840 145.817  0.00  0.00    +0.000 A 
ATOM     12  C   UNL     1     105.364 125.710 147.197  0.00  0.00    +0.000 A 
ATOM     13  C   UNL     1     106.382 125.444 146.149  0.00  0.00    +0.000 A 
ATOM     14  C   UNL     1     106.127 125.882 146.843  0.00  0.00    +0.000 A 
ENDROOT
BRANCH   8  17
ATOM     15  O   UNL     1     102.083 123.009 148.851  0.00  0.00    +0.000 OA
ATOM     16  O   UNL     1     100.715 123.710 148.249  0.00  0.00    +0.000 OA
ATOM     17  C   UNL     1     102.913 124.196 147.217  0.00  0.00    +0.000 A 
ATOM     18  C   UNL     1     102.864 123.683 147.862  0.00  0.00    +0.000 A 
ATOM     19  C   UNL     1     102.228 124.546 146.916  0.00  0.00    +0.000 A 
ATOM     20  C   UNL     1     102.131 123.521 148.206  0.00  0.00    +0.000 A 
ATOM     21  C   UNL     1     101.497 124.384 147.260  0.00  0.00    +0.000 A 
ATOM     22  C   UNL     1     101.448 123.872 147.905  0.00  0.00    +0.000 A 
ENDBRANCH   8  17
BRANCH   9  23
ATOM     23  O   UNL     1     103.402 123.355 145.884  0.00  0.00    +0.000 OA
ATOM     24  C   UNL     1     103.723 122.769 145.400  0.00  0.00    +0.000 C 
ENDBRANCH   9  23
TORSDOF 2
ENDMDL
MODEL 4
REMARK VINA RESULT:      -8.2      6.840      8.382
REMARK  Name = 5320475
REMARK  2 active torsions:
REMARK  status: ('A' for Active; 'I' for Inactive)
REMARK    1  A    between atoms: O_2  and  C_12
REMARK    2  A    between atoms: C_11  and  C_14
REMARK                            x       y       z     vdW  Elec       q    Type
REMARK                         _______ _______ _______ _____ _____    ______ ____
ROOT
ATOM      1  O   UNL     1     103.392 130.156 142.304  0.00  0.00    +0.000 OA
ATOM      2  O   UNL     1     104.275 127.777 140.925  0.00  0.00    +0.000 OA
ATOM      3  O   UNL     1     103.341 128.689 140.312  0.00  0.00    +0.000 OA
ATOM      4  O   UNL     1     105.245 127.358 142.244  0.00  0.00    +0.000 OA
ATOM      5  O   UNL     1     105.280 128.360 143.604  0.00  0.00    +0.000 OA
ATOM      6  C   UNL     1     103.829 128.979 141.623  0.00  0.00    +0.000 A 
ATOM      7  C   UNL     1     103.847 129.469 142.287  0.00  0.00    +0.000 A 
ATOM      8  C   UNL     1     102.920 130.356 141.658  0.00  0.00    +0.000 A 
ATOM      9  C   UNL     1     102.903 129.867 140.993  0.00  0.00    +0.000 A 
ATOM     10  C   UNL     1     103.358 129.178 140.976  0.00  0.00    +0.000 A 
ATOM     11  C   UNL     1     104.298 128.259 141.593  0.00  0.00    +0.000 A 
ATOM     12  C   UNL     1     104.334 129.272 142.968  0.00  0.00    +0.000 A 
ATOM     13  C   UNL     1     104.792 128.047 142.263  0.00  0.00    +0.000 A 
ATOM     14  C   UNL     1     104.809 128.557 142.956  0.00  0.00    +0.000 A 
ENDROOT
BRANCH   8  17
ATOM     15  O   UNL     1     102.661 133.163 141.185  0.00  0.00    +0.000 OA
ATOM     16  O   UNL     1     101.103 133.110 141.725  0.00  0.00    +0.000 OA
ATOM     17  C   UNL     1     102.466 131.044 141.674  0.00  0.00    +0.000 A 
ATOM     18  C   UNL     1     102.791 131.759 141.421  0.00  0.00    +0.000 A 
ATOM     19  C   UNL     1     101.687 131.018 141.944  0.00  0.00    +0.000 A 
ATOM     20  C   UNL     1     102.336 132.448 141.438  0.00  0.00    +0.000 A 
ATOM     21  C   UNL     1     101.233 131.706 141.961  0.00  0.00    +0.000 A 
ATOM     22  C   UNL     1     101.558 132.421 141.708  0.00  0.00    +0.000 A 
ENDBRANCH   8  17
BRANCH   9  23
ATOM     23  O   UNL     1     102.432 130.065 140.346  0.00  0.00    +0.000 OA
ATOM     24  C   UNL     1     102.244 129.494 139.781  0.00  0.00    +0.000 C 
ENDBRANCH   9  23
TORSDOF 2
ENDMDL
MODEL 5
REMARK VINA RESULT:      -8.2      1.363      2.604
REMARK  Name = 5320475
REMARK  2 active torsions:
REMARK  status: ('A' for Active; 'I' for Inactive)
REMARK    1  A    between atoms: O_2  and  C_12
REMARK    2  A    between atoms: C_11  and  C_14
REMARK                            x       y       z     vdW  Elec       q    Type
REMARK                         _______ _______ _______ _____ _____    ______ ____
ROOT
ATOM      1  O   UNL     1     104.220 124.382 145.947  0.00  0.00    +0.000 OA
ATOM      2  O   UNL     1     106.402 125.225 147.642  0.00  0.00    +0.000 OA
ATOM      3  O   UNL     1     105.184 124.696 148.205  0.00  0.00    +0.000 OA
ATOM      4  O   UNL     1     107.308 125.655 146.282  0.00  0.00    +0.000 OA
ATOM      5  O   UNL     1     106.649 125.440 144.740  0.00  0.00    +0.000 OA
ATOM      6  C   UNL     1     105.300 124.799 146.784  0.00  0.00    +0.000 A 
ATOM      7  C   UNL     1     104.978 124.694 146.032  0.00  0.00    +0.000 A 
ATOM      8  C   UNL     1     103.782 124.174 146.615  0.00  0.00    +0.000 A 
ATOM      9  C   UNL     1     104.104 124.278 147.368  0.00  0.00    +0.000 A 
ATOM     10  C   UNL     1     104.863 124.591 147.453  0.00  0.00    +0.000 A 
ATOM     11  C   UNL     1     106.090 125.124 146.886  0.00  0.00    +0.000 A 
ATOM     12  C   UNL     1     105.424 124.907 145.328  0.00  0.00    +0.000 A 
ATOM     13  C   UNL     1     106.550 125.342 146.194  0.00  0.00    +0.000 A 
ATOM     14  C   UNL     1     106.214 125.233 145.410  0.00  0.00    +0.000 A 
ENDROOT
BRANCH   8  17
ATOM     15  O   UNL     1     100.949 124.543 146.524  0.00  0.00    +0.000 OA
ATOM     16  O   UNL     1     100.746 122.924 146.278  0.00  0.00    +0.000 OA
ATOM     17  C   UNL     1     103.024 123.861 146.531  0.00  0.00    +0.000 A 
ATOM     18  C   UNL     1     102.366 124.358 146.570  0.00  0.00    +0.000 A 
ATOM     19  C   UNL     1     102.922 123.052 146.408  0.00  0.00    +0.000 A 
ATOM     20  C   UNL     1     101.607 124.046 146.485  0.00  0.00    +0.000 A 
ATOM     21  C   UNL     1     102.163 122.739 146.324  0.00  0.00    +0.000 A 
ATOM     22  C   UNL     1     101.506 123.236 146.362  0.00  0.00    +0.000 A 
ENDBRANCH   8  17
BRANCH   9  23
ATOM     23  O   UNL     1     103.667 124.070 148.036  0.00  0.00    +0.000 OA
ATOM     24  C   UNL     1     103.796 124.460 148.751  0.00  0.00    +0.000 C 
ENDBRANCH   9  23
TORSDOF 2
ENDMDL
MODEL 6
REMARK VINA RESULT:      -8.1      2.190      4.076
REMARK  Name = 5320475
REMARK  2 active torsions:
REMARK  status: ('A' for Active; 'I' for Inactive)
REMARK    1  A    between atoms: O_2  and  C_12
REMARK    2  A    between atoms: C_11  and  C_14
REMARK                            x       y       z     vdW  Elec       q    Type
REMARK                         _______ _______ _______ _____ _____    ______ ____
ROOT
ATOM      1  O   UNL     1     106.523 124.930 146.074  0.00  0.00    +0.000 OA
ATOM      2  O   UNL     1     105.858 127.157 144.358  0.00  0.00    +0.000 OA
ATOM      3  O   UNL     1     106.353 127.370 145.696  0.00  0.00    +0.000 OA
ATOM      4  O   UNL     1     105.413 126.090 143.126  0.00  0.00    +0.000 OA
ATOM      5  O   UNL     1     105.529 124.424 143.384  0.00  0.00    +0.000 OA
ATOM      6  C   UNL     1     106.194 126.030 145.225  0.00  0.00    +0.000 A 
ATOM      7  C   UNL     1     106.251 125.217 145.350  0.00  0.00    +0.000 A 
ATOM      8  C   UNL     1     106.739 125.455 146.672  0.00  0.00    +0.000 A 
ATOM      9  C   UNL     1     106.683 126.269 146.546  0.00  0.00    +0.000 A 
ATOM     10  C   UNL     1     106.410 126.556 145.822  0.00  0.00    +0.000 A 
ATOM     11  C   UNL     1     105.912 126.343 144.475  0.00  0.00    +0.000 A 
ATOM     12  C   UNL     1     106.029 124.659 144.735  0.00  0.00    +0.000 A 
ATOM     13  C   UNL     1     105.685 125.800 143.848  0.00  0.00    +0.000 A 
ATOM     14  C   UNL     1     105.744 124.952 143.980  0.00  0.00    +0.000 A 
ENDROOT
BRANCH   8  17
ATOM     15  O   UNL     1     106.211 124.329 149.245  0.00  0.00    +0.000 OA
ATOM     16  O   UNL     1     107.829 124.306 149.567  0.00  0.00    +0.000 OA
ATOM     17  C   UNL     1     107.012 125.168 147.395  0.00  0.00    +0.000 A 
ATOM     18  C   UNL     1     106.475 124.892 147.958  0.00  0.00    +0.000 A 
ATOM     19  C   UNL     1     107.821 125.157 147.557  0.00  0.00    +0.000 A 
ATOM     20  C   UNL     1     106.748 124.605 148.682  0.00  0.00    +0.000 A 
ATOM     21  C   UNL     1     108.093 124.870 148.280  0.00  0.00    +0.000 A 
ATOM     22  C   UNL     1     107.557 124.594 148.843  0.00  0.00    +0.000 A 
ENDBRANCH   8  17
BRANCH   9  23
ATOM     23  O   UNL     1     106.899 126.795 147.143  0.00  0.00    +0.000 OA
ATOM     24  C   UNL     1     106.559 127.546 147.175  0.00  0.00    +0.000 C 
ENDBRANCH   9  23
TORSDOF 2
ENDMDL
MODEL 7
REMARK VINA RESULT:      -8.0      1.424      4.423
REMARK  Name = 5320475
REMARK  2 active torsions:
REMARK  status: ('A' for Active; 'I' for Inactive)
REMARK    1  A    between atoms: O_2  and  C_12
REMARK    2  A    between atoms: C_11  and  C_14
REMARK                            x       y       z     vdW  Elec       q    Type
REMARK                         _______ _______ _______ _____ _____    ______ ____
ROOT
ATOM      1  O   UNL     1     103.674 124.860 147.116  0.00  0.00    +0.000 OA
ATOM      2  O   UNL     1     101.687 122.778 146.866  0.00  0.00    +0.000 OA
ATOM      3  O   UNL     1     102.907 122.739 146.097  0.00  0.00    +0.000 OA
ATOM      4  O   UNL     1     100.712 123.555 148.006  0.00  0.00    +0.000 OA
ATOM      5  O   UNL     1     101.235 125.003 148.702  0.00  0.00    +0.000 OA
ATOM      6  C   UNL     1     102.691 123.831 146.993  0.00  0.00    +0.000 A 
ATOM      7  C   UNL     1     102.947 124.538 147.333  0.00  0.00    +0.000 A 
ATOM      8  C   UNL     1     104.146 124.476 146.559  0.00  0.00    +0.000 A 
ATOM      9  C   UNL     1     103.890 123.769 146.219  0.00  0.00    +0.000 A 
ATOM     10  C   UNL     1     103.162 123.446 146.436  0.00  0.00    +0.000 A 
ATOM     11  C   UNL     1     101.934 123.484 147.211  0.00  0.00    +0.000 A 
ATOM     12  C   UNL     1     102.464 124.948 147.914  0.00  0.00    +0.000 A 
ATOM     13  C   UNL     1     101.439 123.880 147.790  0.00  0.00    +0.000 A 
ATOM     14  C   UNL     1     101.705 124.617 148.144  0.00  0.00    +0.000 A 
ENDROOT
BRANCH   8  17
ATOM     15  O   UNL     1     106.946 124.807 147.029  0.00  0.00    +0.000 OA
ATOM     16  O   UNL     1     107.057 125.765 145.690  0.00  0.00    +0.000 OA
ATOM     17  C   UNL     1     104.873 124.798 146.342  0.00  0.00    +0.000 A 
ATOM     18  C   UNL     1     105.545 124.641 146.794  0.00  0.00    +0.000 A 
ATOM     19  C   UNL     1     104.930 125.278 145.673  0.00  0.00    +0.000 A 
ATOM     20  C   UNL     1     106.274 124.964 146.577  0.00  0.00    +0.000 A 
ATOM     21  C   UNL     1     105.657 125.600 145.455  0.00  0.00    +0.000 A 
ATOM     22  C   UNL     1     106.329 125.443 145.908  0.00  0.00    +0.000 A 
ENDBRANCH   8  17
BRANCH   9  23
ATOM     23  O   UNL     1     104.362 123.384 145.662  0.00  0.00    +0.000 OA
ATOM     24  C   UNL     1     104.041 122.789 145.190  0.00  0.00    +0.000 C 
ENDBRANCH   9  23
TORSDOF 2
ENDMDL
MODEL 8
REMARK VINA RESULT:      -8.0     12.933     13.868
REMARK  Name = 5320475
REMARK  2 active torsions:
REMARK  status: ('A' for Active; 'I' for Inactive)
REMARK    1  A    between atoms: O_2  and  C_12
REMARK    2  A    between atoms: C_11  and  C_14
REMARK                            x       y       z     vdW  Elec       q    Type
REMARK                         _______ _______ _______ _____ _____    ______ ____
ROOT
ATOM      1  O   UNL     1     113.816 126.970 136.689  0.00  0.00    +0.000 OA
ATOM      2  O   UNL     1     111.924 124.826 136.279  0.00  0.00    +0.000 OA
ATOM      3  O   UNL     1     111.584 126.191 135.958  0.00  0.00    +0.000 OA
ATOM      4  O   UNL     1     113.047 123.707 136.862  0.00  0.00    +0.000 OA
ATOM      5  O   UNL     1     114.571 124.239 137.362  0.00  0.00    +0.000 OA
ATOM      6  C   UNL     1     112.881 125.909 136.487  0.00  0.00    +0.000 A 
ATOM      7  C   UNL     1     113.626 126.169 136.731  0.00  0.00    +0.000 A 
ATOM      8  C   UNL     1     113.264 127.512 136.404  0.00  0.00    +0.000 A 
ATOM      9  C   UNL     1     112.520 127.253 136.160  0.00  0.00    +0.000 A 
ATOM     10  C   UNL     1     112.328 126.450 136.201  0.00  0.00    +0.000 A 
ATOM     11  C   UNL     1     112.670 125.076 136.525  0.00  0.00    +0.000 A 
ATOM     12  C   UNL     1     114.210 125.614 137.030  0.00  0.00    +0.000 A 
ATOM     13  C   UNL     1     113.241 124.508 136.821  0.00  0.00    +0.000 A 
ATOM     14  C   UNL     1     114.017 124.778 137.076  0.00  0.00    +0.000 A 
ENDROOT
BRANCH   8  17
ATOM     15  O   UNL     1     114.465 129.701 135.012  0.00  0.00    +0.000 OA
ATOM     16  O   UNL     1     114.029 130.718 136.236  0.00  0.00    +0.000 OA
ATOM     17  C   UNL     1     113.455 128.313 136.362  0.00  0.00    +0.000 A 
ATOM     18  C   UNL     1     113.864 128.606 135.708  0.00  0.00    +0.000 A 
ATOM     19  C   UNL     1     113.237 128.822 136.974  0.00  0.00    +0.000 A 
ATOM     20  C   UNL     1     114.055 129.408 135.666  0.00  0.00    +0.000 A 
ATOM     21  C   UNL     1     113.428 129.623 136.932  0.00  0.00    +0.000 A 
ATOM     22  C   UNL     1     113.837 129.916 136.278  0.00  0.00    +0.000 A 
ENDBRANCH   8  17
BRANCH   9  23
ATOM     23  O   UNL     1     111.967 127.794 135.874  0.00  0.00    +0.000 OA
ATOM     24  C   UNL     1     111.329 127.532 135.421  0.00  0.00    +0.000 C 
ENDBRANCH   9  23
TORSDOF 2
ENDMDL
MODEL 9
REMARK VINA RESULT:      -7.9     11.319     12.821
REMARK  Name = 5320475
REMARK  2 active torsions:
REMARK  status: ('A' for Active; 'I' for Inactive)
REMARK    1  A    between atoms: O_2  and  C_12
REMARK    2  A    between atoms: C_11  and  C_14
REMARK                            x       y       z     vdW  Elec       q    Type
REMARK                         _______ _______ _______ _____ _____    ______ ____
ROOT
ATOM      1  O   UNL     1     110.107 126.718 136.241  0.00  0.00    +0.000 OA
ATOM      2  O   UNL     1     110.781 129.404 135.416  0.00  0.00    +0.000 OA
ATOM      3  O   UNL     1     111.808 128.427 135.680  0.00  0.00    +0.000 OA
ATOM      4  O   UNL     1     109.141 129.805 135.342  0.00  0.00    +0.000 OA
ATOM      5  O   UNL     1     107.980 128.638 135.724  0.00  0.00    +0.000 OA
ATOM      6  C   UNL     1     110.439 128.046 135.833  0.00  0.00    +0.000 A 
ATOM      7  C   UNL     1     109.872 127.477 136.020  0.00  0.00    +0.000 A 
ATOM      8  C   UNL     1     110.910 126.528 136.275  0.00  0.00    +0.000 A 
ATOM      9  C   UNL     1     111.477 127.098 136.089  0.00  0.00    +0.000 A 
ATOM     10  C   UNL     1     111.241 127.857 135.867  0.00  0.00    +0.000 A 
ATOM     11  C   UNL     1     110.207 128.842 135.601  0.00  0.00    +0.000 A 
ATOM     12  C   UNL     1     109.033 127.663 135.987  0.00  0.00    +0.000 A 
ATOM     13  C   UNL     1     109.373 129.045 135.563  0.00  0.00    +0.000 A 
ATOM     14  C   UNL     1     108.782 128.451 135.758  0.00  0.00    +0.000 A 
ENDROOT
BRANCH   8  17
ATOM     15  O   UNL     1     111.487 124.612 138.316  0.00  0.00    +0.000 OA
ATOM     16  O   UNL     1     111.851 123.492 137.161  0.00  0.00    +0.000 OA
ATOM     17  C   UNL     1     111.145 125.769 136.496  0.00  0.00    +0.000 A 
ATOM     18  C   UNL     1     111.198 125.571 137.295  0.00  0.00    +0.000 A 
ATOM     19  C   UNL     1     111.327 125.209 135.919  0.00  0.00    +0.000 A 
ATOM     20  C   UNL     1     111.434 124.811 137.517  0.00  0.00    +0.000 A 
ATOM     21  C   UNL     1     111.562 124.450 136.140  0.00  0.00    +0.000 A 
ATOM     22  C   UNL     1     111.616 124.251 136.939  0.00  0.00    +0.000 A 
ENDBRANCH   8  17
BRANCH   9  23
ATOM     23  O   UNL     1     112.279 126.908 136.123  0.00  0.00    +0.000 OA
ATOM     24  C   UNL     1     112.840 127.506 136.213  0.00  0.00    +0.000 C 
ENDBRANCH   9  23
TORSDOF 2
ENDMDL
MODEL 10
REMARK VINA RESULT:      -7.9     11.343     13.213
REMARK  Name = 5320475
REMARK  2 active torsions:
REMARK  status: ('A' for Active; 'I' for Inactive)
REMARK    1  A    between atoms: O_2  and  C_12
REMARK    2  A    between atoms: C_11  and  C_14
REMARK                            x       y       z     vdW  Elec       q    Type
REMARK                         _______ _______ _______ _____ _____    ______ ____
ROOT
ATOM      1  O   UNL     1     112.367 126.578 136.346  0.00  0.00    +0.000 OA
ATOM      2  O   UNL     1     111.038 128.530 134.682  0.00  0.00    +0.000 OA
ATOM      3  O   UNL     1     110.522 127.190 134.814  0.00  0.00    +0.000 OA
ATOM      4  O   UNL     1     112.206 129.684 135.081  0.00  0.00    +0.000 OA
ATOM      5  O   UNL     1     113.466 129.266 136.127  0.00  0.00    +0.000 OA
ATOM      6  C   UNL     1     111.711 127.544 135.524  0.00  0.00    +0.000 A 
ATOM      7  C   UNL     1     112.326 127.340 136.034  0.00  0.00    +0.000 A 
ATOM      8  C   UNL     1     111.793 126.019 136.148  0.00  0.00    +0.000 A 
ATOM      9  C   UNL     1     111.178 126.223 135.637  0.00  0.00    +0.000 A 
ATOM     10  C   UNL     1     111.137 126.986 135.325  0.00  0.00    +0.000 A 
ATOM     11  C   UNL     1     111.656 128.336 135.192  0.00  0.00    +0.000 A 
ATOM     12  C   UNL     1     112.929 127.914 136.249  0.00  0.00    +0.000 A 
ATOM     13  C   UNL     1     112.250 128.922 135.395  0.00  0.00    +0.000 A 
ATOM     14  C   UNL     1     112.891 128.709 135.927  0.00  0.00    +0.000 A 
ENDROOT
BRANCH   8  17
ATOM     15  O   UNL     1     111.220 124.172 138.251  0.00  0.00    +0.000 OA
ATOM     16  O   UNL     1     111.958 122.969 137.396  0.00  0.00    +0.000 OA
ATOM     17  C   UNL     1     111.835 125.257 136.460  0.00  0.00    +0.000 A 
ATOM     18  C   UNL     1     111.507 125.096 137.199  0.00  0.00    +0.000 A 
ATOM     19  C   UNL     1     112.204 124.655 136.032  0.00  0.00    +0.000 A 
ATOM     20  C   UNL     1     111.548 124.333 137.512  0.00  0.00    +0.000 A 
ATOM     21  C   UNL     1     112.245 123.893 136.344  0.00  0.00    +0.000 A 
ATOM     22  C   UNL     1     111.917 123.732 137.084  0.00  0.00    +0.000 A 
ENDBRANCH   8  17
BRANCH   9  23
ATOM     23  O   UNL     1     110.604 125.665 135.438  0.00  0.00    +0.000 OA
ATOM     24  C   UNL     1     110.004 125.861 134.908  0.00  0.00    +0.000 C 
ENDBRANCH   9  23
TORSDOF 2
ENDMDL
