MODEL 1
REMARK VINA RESULT:      -9.8      0.000      0.000
REMARK  Name = 14282767
REMARK  4 active torsions:
REMARK  status: ('A' for Active; 'I' for Inactive)
REMARK    1  A    between atoms: O_2  and  C_16
REMARK    2  A    between atoms: O_2  and  C_23
REMARK    3  A    between atoms: C_15  and  C_17
REMARK    4  A    between atoms: C_19  and  C_25
REMARK                            x       y       z     vdW  Elec       q    Type
REMARK                         _______ _______ _______ _____ _____    ______ ____
ROOT
ATOM      1  O   UNL     1     111.975 126.383 136.107  0.00  0.00    +0.000 OA
ATOM      2  O   UNL     1     111.719 124.216 136.158  0.00  0.00    +0.000 OA
ATOM      3  O   UNL     1     109.404 125.703 134.978  0.00  0.00    +0.000 OA
ATOM      4  C   UNL     1     111.567 125.016 136.026  0.00  0.00    +0.000 C 
ATOM      5  C   UNL     1     112.127 125.583 136.239  0.00  0.00    +0.000 C 
ATOM      6  C   UNL     1     110.855 125.249 135.681  0.00  0.00    +0.000 C 
ATOM      7  C   UNL     1     110.703 126.049 135.548  0.00  0.00    +0.000 A 
ATOM      8  C   UNL     1     111.262 126.616 135.762  0.00  0.00    +0.000 A 
ATOM      9  C   UNL     1     110.375 127.701 135.270  0.00  0.00    +0.000 A 
ATOM     10  C   UNL     1     111.116 127.452 135.629  0.00  0.00    +0.000 A 
ATOM     11  C   UNL     1     109.957 126.278 135.188  0.00  0.00    +0.000 A 
ATOM     12  C   UNL     1     109.793 127.109 135.048  0.00  0.00    +0.000 A 
ENDROOT
BRANCH   5  15
ATOM     13  O   UNL     1     114.924 125.038 136.017  0.00  0.00    +0.000 OA
ATOM     14  O   UNL     1     114.976 124.652 137.620  0.00  0.00    +0.000 OA
ATOM     15  C   UNL     1     112.839 125.350 136.585  0.00  0.00    +0.000 A 
ATOM     16  C   UNL     1     113.525 125.311 136.128  0.00  0.00    +0.000 A 
ATOM     17  C   UNL     1     112.865 125.157 137.387  0.00  0.00    +0.000 A 
ATOM     18  C   UNL     1     114.237 125.078 136.473  0.00  0.00    +0.000 A 
ATOM     19  C   UNL     1     113.577 124.924 137.731  0.00  0.00    +0.000 A 
ATOM     20  C   UNL     1     114.263 124.884 137.275  0.00  0.00    +0.000 A 
ENDBRANCH   5  15
BRANCH   9  21
ATOM     21  O   UNL     1     110.226 128.501 135.139  0.00  0.00    +0.000 OA
BRANCH  21  30
ATOM     22  O   UNL     1     109.923 128.845 136.492  0.00  0.00    +0.000 OA
ATOM     23  O   UNL     1     108.169 130.403 135.705  0.00  0.00    +0.000 OA
ATOM     24  O   UNL     1     108.451 130.227 137.320  0.00  0.00    +0.000 OA
ATOM     25  O   UNL     1     109.056 129.540 134.614  0.00  0.00    +0.000 OA
ATOM     26  C   UNL     1     108.754 129.883 135.968  0.00  0.00    +0.000 C 
ATOM     27  C   UNL     1     108.895 129.795 136.775  0.00  0.00    +0.000 C 
ATOM     28  C   UNL     1     109.198 129.452 135.422  0.00  0.00    +0.000 C 
ATOM     29  C   UNL     1     109.480 129.276 137.038  0.00  0.00    +0.000 C 
ATOM     30  C   UNL     1     109.782 128.932 135.684  0.00  0.00    +0.000 C 
BRANCH  29  32
ATOM     31  O   UNL     1     109.373 128.505 138.236  0.00  0.00    +0.000 OA
ATOM     32  C   UNL     1     109.621 129.188 137.845  0.00  0.00    +0.000 C 
ENDBRANCH  29  32
ENDBRANCH  21  30
ENDBRANCH   9  21
TORSDOF 4
ENDMDL
MODEL 2
REMARK VINA RESULT:      -9.5      7.181      8.551
REMARK  Name = 14282767
REMARK  4 active torsions:
REMARK  status: ('A' for Active; 'I' for Inactive)
REMARK    1  A    between atoms: O_2  and  C_16
REMARK    2  A    between atoms: O_2  and  C_23
REMARK    3  A    between atoms: C_15  and  C_17
REMARK    4  A    between atoms: C_19  and  C_25
REMARK                            x       y       z     vdW  Elec       q    Type
REMARK                         _______ _______ _______ _____ _____    ______ ____
ROOT
ATOM      1  O   UNL     1     104.910 124.474 139.578  0.00  0.00    +0.000 OA
ATOM      2  O   UNL     1     103.706 122.739 140.131  0.00  0.00    +0.000 OA
ATOM      3  O   UNL     1     105.574 123.679 142.275  0.00  0.00    +0.000 OA
ATOM      4  C   UNL     1     104.253 123.355 140.177  0.00  0.00    +0.000 C 
ATOM      5  C   UNL     1     104.362 123.858 139.532  0.00  0.00    +0.000 C 
ATOM      6  C   UNL     1     104.692 123.466 140.867  0.00  0.00    +0.000 C 
ATOM      7  C   UNL     1     105.239 124.082 140.912  0.00  0.00    +0.000 A 
ATOM      8  C   UNL     1     105.348 124.585 140.268  0.00  0.00    +0.000 A 
ATOM      9  C   UNL     1     106.376 125.352 141.019  0.00  0.00    +0.000 A 
ATOM     10  C   UNL     1     105.915 125.230 140.303  0.00  0.00    +0.000 A 
ATOM     11  C   UNL     1     105.690 124.188 141.636  0.00  0.00    +0.000 A 
ATOM     12  C   UNL     1     106.261 124.827 141.690  0.00  0.00    +0.000 A 
ENDROOT
BRANCH   5  15
ATOM     13  O   UNL     1     101.900 124.091 138.100  0.00  0.00    +0.000 OA
ATOM     14  O   UNL     1     102.608 123.411 136.774  0.00  0.00    +0.000 OA
ATOM     15  C   UNL     1     103.924 123.746 138.843  0.00  0.00    +0.000 A 
ATOM     16  C   UNL     1     103.131 123.975 138.817  0.00  0.00    +0.000 A 
ATOM     17  C   UNL     1     104.278 123.406 138.179  0.00  0.00    +0.000 A 
ATOM     18  C   UNL     1     102.693 123.863 138.127  0.00  0.00    +0.000 A 
ATOM     19  C   UNL     1     103.839 123.295 137.490  0.00  0.00    +0.000 A 
ATOM     20  C   UNL     1     103.046 123.523 137.464  0.00  0.00    +0.000 A 
ENDBRANCH   5  15
BRANCH   9  21
ATOM     21  O   UNL     1     106.922 125.968 141.062  0.00  0.00    +0.000 OA
BRANCH  21  30
ATOM     22  O   UNL     1     106.079 127.028 141.517  0.00  0.00    +0.000 OA
ATOM     23  O   UNL     1     107.792 127.675 143.183  0.00  0.00    +0.000 OA
ATOM     24  O   UNL     1     106.378 128.519 143.082  0.00  0.00    +0.000 OA
ATOM     25  O   UNL     1     108.064 126.399 142.172  0.00  0.00    +0.000 OA
ATOM     26  C   UNL     1     107.221 127.460 142.627  0.00  0.00    +0.000 C 
ATOM     27  C   UNL     1     106.514 127.881 142.577  0.00  0.00    +0.000 C 
ATOM     28  C   UNL     1     107.357 126.821 142.122  0.00  0.00    +0.000 C 
ATOM     29  C   UNL     1     105.943 127.666 142.022  0.00  0.00    +0.000 C 
ATOM     30  C   UNL     1     106.786 126.605 141.567  0.00  0.00    +0.000 C 
BRANCH  29  32
ATOM     31  O   UNL     1     104.941 128.313 141.235  0.00  0.00    +0.000 OA
ATOM     32  C   UNL     1     105.237 128.088 141.972  0.00  0.00    +0.000 C 
ENDBRANCH  29  32
ENDBRANCH  21  30
ENDBRANCH   9  21
TORSDOF 4
ENDMDL
MODEL 3
REMARK VINA RESULT:      -9.4      0.833      1.368
REMARK  Name = 14282767
REMARK  4 active torsions:
REMARK  status: ('A' for Active; 'I' for Inactive)
REMARK    1  A    between atoms: O_2  and  C_16
REMARK    2  A    between atoms: O_2  and  C_23
REMARK    3  A    between atoms: C_15  and  C_17
REMARK    4  A    between atoms: C_19  and  C_25
REMARK                            x       y       z     vdW  Elec       q    Type
REMARK                         _______ _______ _______ _____ _____    ______ ____
ROOT
ATOM      1  O   UNL     1     111.583 126.119 136.592  0.00  0.00    +0.000 OA
ATOM      2  O   UNL     1     111.864 124.227 135.541  0.00  0.00    +0.000 OA
ATOM      3  O   UNL     1     109.297 125.628 134.895  0.00  0.00    +0.000 OA
ATOM      4  C   UNL     1     111.525 124.936 135.794  0.00  0.00    +0.000 C 
ATOM      5  C   UNL     1     111.921 125.411 136.340  0.00  0.00    +0.000 C 
ATOM      6  C   UNL     1     110.790 125.169 135.501  0.00  0.00    +0.000 C 
ATOM      7  C   UNL     1     110.451 125.878 135.753  0.00  0.00    +0.000 A 
ATOM      8  C   UNL     1     110.848 126.353 136.299  0.00  0.00    +0.000 A 
ATOM      9  C   UNL     1     109.739 127.342 136.268  0.00  0.00    +0.000 A 
ATOM     10  C   UNL     1     110.505 127.093 136.570  0.00  0.00    +0.000 A 
ATOM     11  C   UNL     1     109.686 126.110 135.441  0.00  0.00    +0.000 A 
ATOM     12  C   UNL     1     109.327 126.846 135.700  0.00  0.00    +0.000 A 
ENDROOT
BRANCH   5  15
ATOM     13  O   UNL     1     114.772 125.618 136.322  0.00  0.00    +0.000 OA
ATOM     14  O   UNL     1     114.862 124.478 137.511  0.00  0.00    +0.000 OA
ATOM     15  C   UNL     1     112.656 125.177 136.633  0.00  0.00    +0.000 A 
ATOM     16  C   UNL     1     113.347 125.515 136.331  0.00  0.00    +0.000 A 
ATOM     17  C   UNL     1     112.701 124.607 137.227  0.00  0.00    +0.000 A 
ATOM     18  C   UNL     1     114.082 125.281 136.624  0.00  0.00    +0.000 A 
ATOM     19  C   UNL     1     113.436 124.374 137.520  0.00  0.00    +0.000 A 
ATOM     20  C   UNL     1     114.126 124.711 137.218  0.00  0.00    +0.000 A 
ENDBRANCH   5  15
BRANCH   9  21
ATOM     21  O   UNL     1     109.403 128.051 136.522  0.00  0.00    +0.000 OA
BRANCH  21  30
ATOM     22  O   UNL     1     110.141 128.894 135.635  0.00  0.00    +0.000 OA
ATOM     23  O   UNL     1     108.183 130.393 135.430  0.00  0.00    +0.000 OA
ATOM     24  O   UNL     1     109.574 130.736 134.612  0.00  0.00    +0.000 OA
ATOM     25  O   UNL     1     108.098 129.050 136.385  0.00  0.00    +0.000 OA
ATOM     26  C   UNL     1     108.836 129.893 135.498  0.00  0.00    +0.000 C 
ATOM     27  C   UNL     1     109.532 130.064 135.090  0.00  0.00    +0.000 C 
ATOM     28  C   UNL     1     108.793 129.221 135.976  0.00  0.00    +0.000 C 
ATOM     29  C   UNL     1     110.184 129.565 135.158  0.00  0.00    +0.000 C 
ATOM     30  C   UNL     1     109.446 128.722 136.045  0.00  0.00    +0.000 C 
BRANCH  29  32
ATOM     31  O   UNL     1     111.605 129.715 135.141  0.00  0.00    +0.000 OA
ATOM     32  C   UNL     1     110.879 129.736 134.749  0.00  0.00    +0.000 C 
ENDBRANCH  29  32
ENDBRANCH  21  30
ENDBRANCH   9  21
TORSDOF 4
ENDMDL
MODEL 4
REMARK VINA RESULT:      -9.3      7.787     10.388
REMARK  Name = 14282767
REMARK  4 active torsions:
REMARK  status: ('A' for Active; 'I' for Inactive)
REMARK    1  A    between atoms: O_2  and  C_16
REMARK    2  A    between atoms: O_2  and  C_23
REMARK    3  A    between atoms: C_15  and  C_17
REMARK    4  A    between atoms: C_19  and  C_25
REMARK                            x       y       z     vdW  Elec       q    Type
REMARK                         _______ _______ _______ _____ _____    ______ ____
ROOT
ATOM      1  O   UNL     1     104.981 127.603 142.350  0.00  0.00    +0.000 OA
ATOM      2  O   UNL     1     105.860 129.503 141.730  0.00  0.00    +0.000 OA
ATOM      3  O   UNL     1     107.858 127.427 142.547  0.00  0.00    +0.000 OA
ATOM      4  C   UNL     1     105.793 128.725 141.998  0.00  0.00    +0.000 C 
ATOM      5  C   UNL     1     105.048 128.381 142.082  0.00  0.00    +0.000 C 
ATOM      6  C   UNL     1     106.471 128.292 142.181  0.00  0.00    +0.000 C 
ATOM      7  C   UNL     1     106.404 127.514 142.448  0.00  0.00    +0.000 A 
ATOM      8  C   UNL     1     105.659 127.170 142.533  0.00  0.00    +0.000 A 
ATOM      9  C   UNL     1     106.279 125.904 143.003  0.00  0.00    +0.000 A 
ATOM     10  C   UNL     1     105.577 126.361 142.811  0.00  0.00    +0.000 A 
ATOM     11  C   UNL     1     107.118 127.074 142.635  0.00  0.00    +0.000 A 
ATOM     12  C   UNL     1     107.055 126.264 142.914  0.00  0.00    +0.000 A 
ENDROOT
BRANCH   5  15
ATOM     13  O   UNL     1     102.958 129.050 140.252  0.00  0.00    +0.000 OA
ATOM     14  O   UNL     1     102.337 130.113 141.350  0.00  0.00    +0.000 OA
ATOM     15  C   UNL     1     104.370 128.814 141.900  0.00  0.00    +0.000 A 
ATOM     16  C   UNL     1     104.004 128.715 141.167  0.00  0.00    +0.000 A 
ATOM     17  C   UNL     1     104.060 129.345 142.449  0.00  0.00    +0.000 A 
ATOM     18  C   UNL     1     103.326 129.148 140.984  0.00  0.00    +0.000 A 
ATOM     19  C   UNL     1     103.382 129.778 142.265  0.00  0.00    +0.000 A 
ATOM     20  C   UNL     1     103.015 129.680 141.533  0.00  0.00    +0.000 A 
ENDBRANCH   5  15
BRANCH   9  21
ATOM     21  O   UNL     1     106.210 125.127 143.270  0.00  0.00    +0.000 OA
BRANCH  21  30
ATOM     22  O   UNL     1     106.351 125.375 144.670  0.00  0.00    +0.000 OA
ATOM     23  O   UNL     1     104.559 123.734 145.142  0.00  0.00    +0.000 OA
ATOM     24  O   UNL     1     105.298 124.529 146.384  0.00  0.00    +0.000 OA
ATOM     25  O   UNL     1     105.015 124.033 143.585  0.00  0.00    +0.000 OA
ATOM     26  C   UNL     1     105.156 124.281 144.985  0.00  0.00    +0.000 C 
ATOM     27  C   UNL     1     105.526 124.679 145.606  0.00  0.00    +0.000 C 
ATOM     28  C   UNL     1     105.385 124.431 144.205  0.00  0.00    +0.000 C 
ATOM     29  C   UNL     1     106.123 125.226 145.448  0.00  0.00    +0.000 C 
ATOM     30  C   UNL     1     105.982 124.978 144.048  0.00  0.00    +0.000 C 
BRANCH  29  32
ATOM     31  O   UNL     1     107.304 125.537 146.191  0.00  0.00    +0.000 OA
ATOM     32  C   UNL     1     106.492 125.623 146.069  0.00  0.00    +0.000 C 
ENDBRANCH  29  32
ENDBRANCH  21  30
ENDBRANCH   9  21
TORSDOF 4
ENDMDL
MODEL 5
REMARK VINA RESULT:      -9.3      2.400      3.195
REMARK  Name = 14282767
REMARK  4 active torsions:
REMARK  status: ('A' for Active; 'I' for Inactive)
REMARK    1  A    between atoms: O_2  and  C_16
REMARK    2  A    between atoms: O_2  and  C_23
REMARK    3  A    between atoms: C_15  and  C_17
REMARK    4  A    between atoms: C_19  and  C_25
REMARK                            x       y       z     vdW  Elec       q    Type
REMARK                         _______ _______ _______ _____ _____    ______ ____
ROOT
ATOM      1  O   UNL     1     111.882 126.774 136.053  0.00  0.00    +0.000 OA
ATOM      2  O   UNL     1     110.015 125.724 135.631  0.00  0.00    +0.000 OA
ATOM      3  O   UNL     1     110.104 128.538 134.612  0.00  0.00    +0.000 OA
ATOM      4  C   UNL     1     110.586 126.319 135.657  0.00  0.00    +0.000 C 
ATOM      5  C   UNL     1     111.311 126.179 136.026  0.00  0.00    +0.000 C 
ATOM      6  C   UNL     1     110.433 127.053 135.314  0.00  0.00    +0.000 C 
ATOM      7  C   UNL     1     111.004 127.648 135.340  0.00  0.00    +0.000 A 
ATOM      8  C   UNL     1     111.728 127.509 135.710  0.00  0.00    +0.000 A 
ATOM      9  C   UNL     1     112.177 128.888 135.388  0.00  0.00    +0.000 A 
ATOM     10  C   UNL     1     112.331 128.120 135.743  0.00  0.00    +0.000 A 
ATOM     11  C   UNL     1     110.832 128.409 134.979  0.00  0.00    +0.000 A 
ATOM     12  C   UNL     1     111.422 129.032 135.003  0.00  0.00    +0.000 A 
ENDROOT
BRANCH   5  15
ATOM     13  O   UNL     1     111.391 124.494 138.333  0.00  0.00    +0.000 OA
ATOM     14  O   UNL     1     111.924 123.242 137.400  0.00  0.00    +0.000 OA
ATOM     15  C   UNL     1     111.464 125.445 136.370  0.00  0.00    +0.000 A 
ATOM     16  C   UNL     1     111.351 125.337 137.180  0.00  0.00    +0.000 A 
ATOM     17  C   UNL     1     111.731 124.819 135.903  0.00  0.00    +0.000 A 
ATOM     18  C   UNL     1     111.504 124.603 137.523  0.00  0.00    +0.000 A 
ATOM     19  C   UNL     1     111.884 124.085 136.247  0.00  0.00    +0.000 A 
ATOM     20  C   UNL     1     111.771 123.977 137.057  0.00  0.00    +0.000 A 
ENDBRANCH   5  15
BRANCH   9  21
ATOM     21  O   UNL     1     112.749 129.481 135.415  0.00  0.00    +0.000 OA
BRANCH  21  30
ATOM     22  O   UNL     1     112.243 130.177 136.556  0.00  0.00    +0.000 OA
ATOM     23  O   UNL     1     114.556 130.570 137.344  0.00  0.00    +0.000 OA
ATOM     24  O   UNL     1     113.278 131.134 138.221  0.00  0.00    +0.000 OA
ATOM     25  O   UNL     1     114.291 129.743 135.941  0.00  0.00    +0.000 OA
ATOM     26  C   UNL     1     113.785 130.439 137.081  0.00  0.00    +0.000 C 
ATOM     27  C   UNL     1     113.145 130.721 137.520  0.00  0.00    +0.000 C 
ATOM     28  C   UNL     1     113.652 130.025 136.379  0.00  0.00    +0.000 C 
ATOM     29  C   UNL     1     112.374 130.590 137.257  0.00  0.00    +0.000 C 
ATOM     30  C   UNL     1     112.881 129.894 136.116  0.00  0.00    +0.000 C 
BRANCH  29  32
ATOM     31  O   UNL     1     111.214 131.417 137.363  0.00  0.00    +0.000 OA
ATOM     32  C   UNL     1     111.736 130.872 137.696  0.00  0.00    +0.000 C 
ENDBRANCH  29  32
ENDBRANCH  21  30
ENDBRANCH   9  21
TORSDOF 4
ENDMDL
MODEL 6
REMARK VINA RESULT:      -9.3      1.457      2.329
REMARK  Name = 14282767
REMARK  4 active torsions:
REMARK  status: ('A' for Active; 'I' for Inactive)
REMARK    1  A    between atoms: O_2  and  C_16
REMARK    2  A    between atoms: O_2  and  C_23
REMARK    3  A    between atoms: C_15  and  C_17
REMARK    4  A    between atoms: C_19  and  C_25
REMARK                            x       y       z     vdW  Elec       q    Type
REMARK                         _______ _______ _______ _____ _____    ______ ____
ROOT
ATOM      1  O   UNL     1     111.908 126.835 136.199  0.00  0.00    +0.000 OA
ATOM      2  O   UNL     1     113.840 126.171 136.969  0.00  0.00    +0.000 OA
ATOM      3  O   UNL     1     113.776 129.036 136.100  0.00  0.00    +0.000 OA
ATOM      4  C   UNL     1     113.252 126.655 136.651  0.00  0.00    +0.000 C 
ATOM      5  C   UNL     1     112.496 126.351 136.517  0.00  0.00    +0.000 C 
ATOM      6  C   UNL     1     113.419 127.441 136.467  0.00  0.00    +0.000 C 
ATOM      7  C   UNL     1     112.831 127.925 136.149  0.00  0.00    +0.000 A 
ATOM      8  C   UNL     1     112.075 127.622 136.015  0.00  0.00    +0.000 A 
ATOM      9  C   UNL     1     111.623 128.936 135.491  0.00  0.00    +0.000 A 
ATOM     10  C   UNL     1     111.455 128.115 135.685  0.00  0.00    +0.000 A 
ATOM     11  C   UNL     1     113.018 128.742 135.962  0.00  0.00    +0.000 A 
ATOM     12  C   UNL     1     112.410 129.251 135.631  0.00  0.00    +0.000 A 
ENDROOT
BRANCH   5  15
ATOM     13  O   UNL     1     111.286 124.415 138.236  0.00  0.00    +0.000 OA
ATOM     14  O   UNL     1     111.827 123.205 137.253  0.00  0.00    +0.000 OA
ATOM     15  C   UNL     1     112.329 125.565 136.701  0.00  0.00    +0.000 A 
ATOM     16  C   UNL     1     111.891 125.384 137.377  0.00  0.00    +0.000 A 
ATOM     17  C   UNL     1     112.599 124.960 136.209  0.00  0.00    +0.000 A 
ATOM     18  C   UNL     1     111.724 124.597 137.561  0.00  0.00    +0.000 A 
ATOM     19  C   UNL     1     112.432 124.174 136.394  0.00  0.00    +0.000 A 
ATOM     20  C   UNL     1     111.994 123.992 137.069  0.00  0.00    +0.000 A 
ENDBRANCH   5  15
BRANCH   9  21
ATOM     21  O   UNL     1     111.033 129.417 135.173  0.00  0.00    +0.000 OA
BRANCH  21  30
ATOM     22  O   UNL     1     110.566 130.011 136.386  0.00  0.00    +0.000 OA
ATOM     23  O   UNL     1     108.230 129.773 135.603  0.00  0.00    +0.000 OA
ATOM     24  O   UNL     1     108.542 130.447 137.076  0.00  0.00    +0.000 OA
ATOM     25  O   UNL     1     109.476 129.258 134.651  0.00  0.00    +0.000 OA
ATOM     26  C   UNL     1     109.009 129.853 135.864  0.00  0.00    +0.000 C 
ATOM     27  C   UNL     1     109.165 130.189 136.600  0.00  0.00    +0.000 C 
ATOM     28  C   UNL     1     109.632 129.595 135.388  0.00  0.00    +0.000 C 
ATOM     29  C   UNL     1     109.944 130.269 136.861  0.00  0.00    +0.000 C 
ATOM     30  C   UNL     1     110.411 129.674 135.649  0.00  0.00    +0.000 C 
BRANCH  29  32
ATOM     31  O   UNL     1     110.642 131.224 137.663  0.00  0.00    +0.000 OA
ATOM     32  C   UNL     1     110.099 130.606 137.598  0.00  0.00    +0.000 C 
ENDBRANCH  29  32
ENDBRANCH  21  30
ENDBRANCH   9  21
TORSDOF 4
ENDMDL
MODEL 7
REMARK VINA RESULT:      -9.3      1.994      3.499
REMARK  Name = 14282767
REMARK  4 active torsions:
REMARK  status: ('A' for Active; 'I' for Inactive)
REMARK    1  A    between atoms: O_2  and  C_16
REMARK    2  A    between atoms: O_2  and  C_23
REMARK    3  A    between atoms: C_15  and  C_17
REMARK    4  A    between atoms: C_19  and  C_25
REMARK                            x       y       z     vdW  Elec       q    Type
REMARK                         _______ _______ _______ _____ _____    ______ ____
ROOT
ATOM      1  O   UNL     1     110.159 128.234 135.920  0.00  0.00    +0.000 OA
ATOM      2  O   UNL     1     108.415 126.933 135.743  0.00  0.00    +0.000 OA
ATOM      3  O   UNL     1     107.768 129.854 135.871  0.00  0.00    +0.000 OA
ATOM      4  C   UNL     1     108.877 127.614 135.809  0.00  0.00    +0.000 C 
ATOM      5  C   UNL     1     109.698 127.553 135.854  0.00  0.00    +0.000 C 
ATOM      6  C   UNL     1     108.516 128.356 135.830  0.00  0.00    +0.000 C 
ATOM      7  C   UNL     1     108.977 129.037 135.896  0.00  0.00    +0.000 A 
ATOM      8  C   UNL     1     109.799 128.975 135.941  0.00  0.00    +0.000 A 
ATOM      9  C   UNL     1     109.920 130.453 136.033  0.00  0.00    +0.000 A 
ATOM     10  C   UNL     1     110.290 129.677 136.010  0.00  0.00    +0.000 A 
ATOM     11  C   UNL     1     108.590 129.803 135.917  0.00  0.00    +0.000 A 
ATOM     12  C   UNL     1     109.065 130.516 135.986  0.00  0.00    +0.000 A 
ENDROOT
BRANCH   5  15
ATOM     13  O   UNL     1     110.851 125.322 137.219  0.00  0.00    +0.000 OA
ATOM     14  O   UNL     1     111.139 124.585 135.771  0.00  0.00    +0.000 OA
ATOM     15  C   UNL     1     110.058 126.811 135.833  0.00  0.00    +0.000 A 
ATOM     16  C   UNL     1     110.274 126.438 136.537  0.00  0.00    +0.000 A 
ATOM     17  C   UNL     1     110.202 126.442 135.109  0.00  0.00    +0.000 A 
ATOM     18  C   UNL     1     110.635 125.696 136.516  0.00  0.00    +0.000 A 
ATOM     19  C   UNL     1     110.563 125.701 135.089  0.00  0.00    +0.000 A 
ATOM     20  C   UNL     1     110.779 125.327 135.792  0.00  0.00    +0.000 A 
ENDBRANCH   5  15
BRANCH   9  21
ATOM     21  O   UNL     1     110.384 131.132 136.099  0.00  0.00    +0.000 OA
BRANCH  21  30
ATOM     22  O   UNL     1     110.468 131.200 137.524  0.00  0.00    +0.000 OA
ATOM     23  O   UNL     1     110.136 133.650 137.428  0.00  0.00    +0.000 OA
ATOM     24  O   UNL     1     110.331 132.901 138.884  0.00  0.00    +0.000 OA
ATOM     25  O   UNL     1     110.162 132.766 136.035  0.00  0.00    +0.000 OA
ATOM     26  C   UNL     1     110.246 132.834 137.460  0.00  0.00    +0.000 C 
ATOM     27  C   UNL     1     110.344 132.458 138.188  0.00  0.00    +0.000 C 
ATOM     28  C   UNL     1     110.260 132.391 136.763  0.00  0.00    +0.000 C 
ATOM     29  C   UNL     1     110.455 131.641 138.220  0.00  0.00    +0.000 C 
ATOM     30  C   UNL     1     110.371 131.574 136.795  0.00  0.00    +0.000 C 
BRANCH  29  32
ATOM     31  O   UNL     1     111.257 130.873 139.119  0.00  0.00    +0.000 OA
ATOM     32  C   UNL     1     110.552 131.267 138.948  0.00  0.00    +0.000 C 
ENDBRANCH  29  32
ENDBRANCH  21  30
ENDBRANCH   9  21
TORSDOF 4
ENDMDL
MODEL 8
REMARK VINA RESULT:      -9.3      3.624      5.898
REMARK  Name = 14282767
REMARK  4 active torsions:
REMARK  status: ('A' for Active; 'I' for Inactive)
REMARK    1  A    between atoms: O_2  and  C_16
REMARK    2  A    between atoms: O_2  and  C_23
REMARK    3  A    between atoms: C_15  and  C_17
REMARK    4  A    between atoms: C_19  and  C_25
REMARK                            x       y       z     vdW  Elec       q    Type
REMARK                         _______ _______ _______ _____ _____    ______ ____
ROOT
ATOM      1  O   UNL     1     113.243 128.824 139.486  0.00  0.00    +0.000 OA
ATOM      2  O   UNL     1     113.135 130.813 138.594  0.00  0.00    +0.000 OA
ATOM      3  O   UNL     1     111.628 128.704 137.094  0.00  0.00    +0.000 OA
ATOM      4  C   UNL     1     113.018 130.005 138.714  0.00  0.00    +0.000 C 
ATOM      5  C   UNL     1     113.360 129.632 139.366  0.00  0.00    +0.000 C 
ATOM      6  C   UNL     1     112.560 129.571 138.183  0.00  0.00    +0.000 C 
ATOM      7  C   UNL     1     112.444 128.763 138.303  0.00  0.00    +0.000 A 
ATOM      8  C   UNL     1     112.785 128.389 138.955  0.00  0.00    +0.000 A 
ATOM      9  C   UNL     1     112.195 127.091 138.540  0.00  0.00    +0.000 A 
ATOM     10  C   UNL     1     112.671 127.549 139.091  0.00  0.00    +0.000 A 
ATOM     11  C   UNL     1     111.965 128.322 137.742  0.00  0.00    +0.000 A 
ATOM     12  C   UNL     1     111.840 127.480 137.862  0.00  0.00    +0.000 A 
ENDROOT
BRANCH   5  15
ATOM     13  O   UNL     1     113.605 131.061 141.828  0.00  0.00    +0.000 OA
ATOM     14  O   UNL     1     115.190 131.369 141.491  0.00  0.00    +0.000 OA
ATOM     15  C   UNL     1     113.817 130.066 139.897  0.00  0.00    +0.000 A 
ATOM     16  C   UNL     1     113.482 130.346 140.597  0.00  0.00    +0.000 A 
ATOM     17  C   UNL     1     114.610 130.220 139.729  0.00  0.00    +0.000 A 
ATOM     18  C   UNL     1     113.940 130.781 141.128  0.00  0.00    +0.000 A 
ATOM     19  C   UNL     1     115.067 130.654 140.260  0.00  0.00    +0.000 A 
ATOM     20  C   UNL     1     114.732 130.935 140.960  0.00  0.00    +0.000 A 
ENDBRANCH   5  15
BRANCH   9  21
ATOM     21  O   UNL     1     112.080 126.283 138.663  0.00  0.00    +0.000 OA
BRANCH  21  30
ATOM     22  O   UNL     1     113.239 125.771 138.004  0.00  0.00    +0.000 OA
ATOM     23  O   UNL     1     111.857 124.018 136.934  0.00  0.00    +0.000 OA
ATOM     24  O   UNL     1     113.477 124.091 136.632  0.00  0.00    +0.000 OA
ATOM     25  O   UNL     1     111.158 125.115 137.950  0.00  0.00    +0.000 OA
ATOM     26  C   UNL     1     112.318 124.602 137.291  0.00  0.00    +0.000 C 
ATOM     27  C   UNL     1     113.128 124.639 137.140  0.00  0.00    +0.000 C 
ATOM     28  C   UNL     1     111.968 125.151 137.799  0.00  0.00    +0.000 C 
ATOM     29  C   UNL     1     113.589 125.223 137.496  0.00  0.00    +0.000 C 
ATOM     30  C   UNL     1     112.429 125.735 138.156  0.00  0.00    +0.000 C 
BRANCH  29  32
ATOM     31  O   UNL     1     114.936 125.271 137.970  0.00  0.00    +0.000 OA
ATOM     32  C   UNL     1     114.398 125.259 137.344  0.00  0.00    +0.000 C 
ENDBRANCH  29  32
ENDBRANCH  21  30
ENDBRANCH   9  21
TORSDOF 4
ENDMDL
MODEL 9
REMARK VINA RESULT:      -9.2      1.570      2.429
REMARK  Name = 14282767
REMARK  4 active torsions:
REMARK  status: ('A' for Active; 'I' for Inactive)
REMARK    1  A    between atoms: O_2  and  C_16
REMARK    2  A    between atoms: O_2  and  C_23
REMARK    3  A    between atoms: C_15  and  C_17
REMARK    4  A    between atoms: C_19  and  C_25
REMARK                            x       y       z     vdW  Elec       q    Type
REMARK                         _______ _______ _______ _____ _____    ______ ____
ROOT
ATOM      1  O   UNL     1     112.550 127.312 137.141  0.00  0.00    +0.000 OA
ATOM      2  O   UNL     1     114.381 127.215 135.957  0.00  0.00    +0.000 OA
ATOM      3  O   UNL     1     112.948 129.840 135.800  0.00  0.00    +0.000 OA
ATOM      4  C   UNL     1     113.688 127.504 136.298  0.00  0.00    +0.000 C 
ATOM      5  C   UNL     1     113.243 127.023 136.800  0.00  0.00    +0.000 C 
ATOM      6  C   UNL     1     113.439 128.274 136.138  0.00  0.00    +0.000 C 
ATOM      7  C   UNL     1     112.745 128.563 136.479  0.00  0.00    +0.000 A 
ATOM      8  C   UNL     1     112.301 128.082 136.981  0.00  0.00    +0.000 A 
ATOM      9  C   UNL     1     111.312 129.173 137.178  0.00  0.00    +0.000 A 
ATOM     10  C   UNL     1     111.577 128.371 137.342  0.00  0.00    +0.000 A 
ATOM     11  C   UNL     1     112.497 129.366 136.304  0.00  0.00    +0.000 A 
ATOM     12  C   UNL     1     111.776 129.673 136.656  0.00  0.00    +0.000 A 
ENDROOT
BRANCH   5  15
ATOM     13  O   UNL     1     113.125 124.220 136.257  0.00  0.00    +0.000 OA
ATOM     14  O   UNL     1     114.239 123.943 137.442  0.00  0.00    +0.000 OA
ATOM     15  C   UNL     1     113.493 126.253 136.961  0.00  0.00    +0.000 A 
ATOM     16  C   UNL     1     113.184 125.622 136.528  0.00  0.00    +0.000 A 
ATOM     17  C   UNL     1     114.050 126.115 137.554  0.00  0.00    +0.000 A 
ATOM     18  C   UNL     1     113.433 124.852 136.689  0.00  0.00    +0.000 A 
ATOM     19  C   UNL     1     114.298 125.345 137.714  0.00  0.00    +0.000 A 
ATOM     20  C   UNL     1     113.990 124.713 137.282  0.00  0.00    +0.000 A 
ENDBRANCH   5  15
BRANCH   9  21
ATOM     21  O   UNL     1     110.618 129.459 137.521  0.00  0.00    +0.000 OA
BRANCH  21  30
ATOM     22  O   UNL     1     109.664 128.883 136.627  0.00  0.00    +0.000 OA
ATOM     23  O   UNL     1     108.410 131.017 136.590  0.00  0.00    +0.000 OA
ATOM     24  O   UNL     1     107.874 129.729 135.709  0.00  0.00    +0.000 OA
ATOM     25  O   UNL     1     109.783 130.882 137.496  0.00  0.00    +0.000 OA
ATOM     26  C   UNL     1     108.828 130.305 136.602  0.00  0.00    +0.000 C 
ATOM     27  C   UNL     1     108.560 129.661 136.162  0.00  0.00    +0.000 C 
ATOM     28  C   UNL     1     109.515 130.238 137.056  0.00  0.00    +0.000 C 
ATOM     29  C   UNL     1     108.978 128.950 136.174  0.00  0.00    +0.000 C 
ATOM     30  C   UNL     1     109.933 129.526 137.068  0.00  0.00    +0.000 C 
BRANCH  29  32
ATOM     31  O   UNL     1     108.500 127.605 136.113  0.00  0.00    +0.000 OA
ATOM     32  C   UNL     1     108.710 128.307 135.734  0.00  0.00    +0.000 C 
ENDBRANCH  29  32
ENDBRANCH  21  30
ENDBRANCH   9  21
TORSDOF 4
ENDMDL
MODEL 10
REMARK VINA RESULT:      -9.1      1.446      5.741
REMARK  Name = 14282767
REMARK  4 active torsions:
REMARK  status: ('A' for Active; 'I' for Inactive)
REMARK    1  A    between atoms: O_2  and  C_16
REMARK    2  A    between atoms: O_2  and  C_23
REMARK    3  A    between atoms: C_15  and  C_17
REMARK    4  A    between atoms: C_19  and  C_25
REMARK                            x       y       z     vdW  Elec       q    Type
REMARK                         _______ _______ _______ _____ _____    ______ ____
ROOT
ATOM      1  O   UNL     1     111.107 128.528 136.551  0.00  0.00    +0.000 OA
ATOM      2  O   UNL     1     111.111 129.932 134.880  0.00  0.00    +0.000 OA
ATOM      3  O   UNL     1     113.717 128.524 135.313  0.00  0.00    +0.000 OA
ATOM      4  C   UNL     1     111.367 129.370 135.426  0.00  0.00    +0.000 C 
ATOM      5  C   UNL     1     110.850 129.090 136.005  0.00  0.00    +0.000 C 
ATOM      6  C   UNL     1     112.142 129.087 135.394  0.00  0.00    +0.000 C 
ATOM      7  C   UNL     1     112.399 128.524 135.940  0.00  0.00    +0.000 A 
ATOM      8  C   UNL     1     111.881 128.245 136.518  0.00  0.00    +0.000 A 
ATOM      9  C   UNL     1     112.943 127.361 137.064  0.00  0.00    +0.000 A 
ATOM     10  C   UNL     1     112.137 127.659 137.093  0.00  0.00    +0.000 A 
ATOM     11  C   UNL     1     113.207 128.238 135.895  0.00  0.00    +0.000 A 
ATOM     12  C   UNL     1     113.481 127.652 136.461  0.00  0.00    +0.000 A 
ENDROOT
BRANCH   5  15
ATOM     13  O   UNL     1     108.044 128.667 135.661  0.00  0.00    +0.000 OA
ATOM     14  O   UNL     1     107.753 130.221 136.134  0.00  0.00    +0.000 OA
ATOM     15  C   UNL     1     110.076 129.373 136.037  0.00  0.00    +0.000 A 
ATOM     16  C   UNL     1     109.447 128.878 135.833  0.00  0.00    +0.000 A 
ATOM     17  C   UNL     1     109.930 130.150 136.273  0.00  0.00    +0.000 A 
ATOM     18  C   UNL     1     108.673 129.161 135.865  0.00  0.00    +0.000 A 
ATOM     19  C   UNL     1     109.156 130.432 136.306  0.00  0.00    +0.000 A 
ATOM     20  C   UNL     1     108.527 129.938 136.102  0.00  0.00    +0.000 A 
ENDBRANCH   5  15
BRANCH   9  21
ATOM     21  O   UNL     1     113.197 126.798 137.612  0.00  0.00    +0.000 OA
BRANCH  21  30
ATOM     22  O   UNL     1     112.577 125.650 137.030  0.00  0.00    +0.000 OA
ATOM     23  O   UNL     1     114.602 124.312 137.514  0.00  0.00    +0.000 OA
ATOM     24  O   UNL     1     113.308 123.610 136.771  0.00  0.00    +0.000 OA
ATOM     25  O   UNL     1     114.547 125.906 137.934  0.00  0.00    +0.000 OA
ATOM     26  C   UNL     1     113.927 124.758 137.352  0.00  0.00    +0.000 C 
ATOM     27  C   UNL     1     113.280 124.407 136.981  0.00  0.00    +0.000 C 
ATOM     28  C   UNL     1     113.900 125.556 137.563  0.00  0.00    +0.000 C 
ATOM     29  C   UNL     1     112.605 124.853 136.819  0.00  0.00    +0.000 C 
ATOM     30  C   UNL     1     113.225 126.002 137.401  0.00  0.00    +0.000 C 
BRANCH  29  32
ATOM     31  O   UNL     1     111.200 124.596 136.761  0.00  0.00    +0.000 OA
ATOM     32  C   UNL     1     111.958 124.502 136.448  0.00  0.00    +0.000 C 
ENDBRANCH  29  32
ENDBRANCH  21  30
ENDBRANCH   9  21
TORSDOF 4
ENDMDL
