MODEL 1
REMARK VINA RESULT:      -9.8      0.000      0.000
REMARK  Name = 44566720
REMARK  6 active torsions:
REMARK  status: ('A' for Active; 'I' for Inactive)
REMARK    1  A    between atoms: O_1  and  C_16
REMARK    2  A    between atoms: O_1  and  C_21
REMARK    3  A    between atoms: O_4  and  C_20
REMARK    4  A    between atoms: O_4  and  C_27
REMARK    5  A    between atoms: C_19  and  C_25
REMARK    6  A    between atoms: C_28  and  C_32
REMARK                            x       y       z     vdW  Elec       q    Type
REMARK                         _______ _______ _______ _____ _____    ______ ____
ROOT
ATOM      1  O   UNL     1     112.069 127.110 137.519  0.00  0.00    +0.000 OA
ENDROOT
BRANCH   1   6
ATOM      2  O   UNL     1     113.381 126.113 138.950  0.00  0.00    +0.000 OA
ATOM      3  O   UNL     1     112.465 128.370 138.509  0.00  0.00    +0.000 OA
ATOM      4  O   UNL     1     113.163 128.908 139.651  0.00  0.00    +0.000 OA
ATOM      5  O   UNL     1     114.818 127.129 141.270  0.00  0.00    +0.000 OA
ATOM      6  C   UNL     1     112.572 126.988 138.161  0.00  0.00    +0.000 A 
ATOM      7  C   UNL     1     112.877 126.235 138.308  0.00  0.00    +0.000 A 
ATOM      8  C   UNL     1     112.770 127.617 138.655  0.00  0.00    +0.000 A 
ATOM      9  C   UNL     1     113.274 127.495 139.297  0.00  0.00    +0.000 A 
ATOM     10  C   UNL     1     113.579 126.743 139.445  0.00  0.00    +0.000 A 
ATOM     11  C   UNL     1     113.473 128.159 139.806  0.00  0.00    +0.000 A 
ATOM     12  C   UNL     1     114.105 126.602 140.110  0.00  0.00    +0.000 A 
ATOM     13  C   UNL     1     113.997 128.037 140.476  0.00  0.00    +0.000 A 
ATOM     14  C   UNL     1     114.315 127.254 140.629  0.00  0.00    +0.000 A 
BRANCH   7  16
ATOM     15  O   UNL     1     112.084 123.715 136.331  0.00  0.00    +0.000 OA
ATOM     16  C   UNL     1     112.679 125.606 137.814  0.00  0.00    +0.000 A 
ATOM     17  C   UNL     1     111.965 125.206 137.921  0.00  0.00    +0.000 A 
ATOM     18  C   UNL     1     113.194 125.375 137.212  0.00  0.00    +0.000 A 
ATOM     19  C   UNL     1     111.767 124.576 137.427  0.00  0.00    +0.000 A 
ATOM     20  C   UNL     1     112.996 124.745 136.718  0.00  0.00    +0.000 A 
ATOM     21  C   UNL     1     112.282 124.346 136.825  0.00  0.00    +0.000 A 
ENDBRANCH   7  16
ENDBRANCH   1   6
BRANCH   1  29
ATOM     22  O   UNL     1     113.031 127.802 136.721  0.00  0.00    +0.000 OA
ATOM     23  O   UNL     1     111.227 129.184 135.742  0.00  0.00    +0.000 OA
ATOM     24  O   UNL     1     112.791 129.414 135.271  0.00  0.00    +0.000 OA
ATOM     25  C   UNL     1     111.647 128.147 136.631  0.00  0.00    +0.000 C 
ATOM     26  C   UNL     1     111.829 128.723 136.069  0.00  0.00    +0.000 C 
ATOM     27  C   UNL     1     112.610 128.839 135.833  0.00  0.00    +0.000 C 
ATOM     28  C   UNL     1     113.211 128.378 136.159  0.00  0.00    +0.000 C 
ATOM     29  C   UNL     1     112.249 127.686 136.957  0.00  0.00    +0.000 C 
BRANCH  28  31
ATOM     30  O   UNL     1     114.433 127.858 135.630  0.00  0.00    +0.000 OA
ATOM     31  C   UNL     1     113.994 128.493 135.924  0.00  0.00    +0.000 C 
ENDBRANCH  28  31
BRANCH  25  32
ATOM     32  O   UNL     1     110.866 128.032 136.867  0.00  0.00    +0.000 OA
BRANCH  32  37
ATOM     33  O   UNL     1     110.618 127.277 135.678  0.00  0.00    +0.000 OA
ATOM     34  O   UNL     1     109.298 127.812 137.332  0.00  0.00    +0.000 OA
ATOM     35  O   UNL     1     108.267 126.948 136.376  0.00  0.00    +0.000 OA
ATOM     36  O   UNL     1     108.804 126.303 134.955  0.00  0.00    +0.000 OA
ATOM     37  C   UNL     1     110.350 127.600 136.389  0.00  0.00    +0.000 C 
ATOM     38  C   UNL     1     109.566 127.490 136.622  0.00  0.00    +0.000 C 
ATOM     39  C   UNL     1     109.050 127.057 136.144  0.00  0.00    +0.000 C 
ATOM     40  C   UNL     1     109.320 126.736 135.433  0.00  0.00    +0.000 C 
ATOM     41  C   UNL     1     110.103 126.845 135.201  0.00  0.00    +0.000 C 
ENDBRANCH  32  37
ENDBRANCH  25  32
ENDBRANCH   1  29
TORSDOF 6
ENDMDL
MODEL 2
REMARK VINA RESULT:      -9.7      2.278      4.051
REMARK  Name = 44566720
REMARK  6 active torsions:
REMARK  status: ('A' for Active; 'I' for Inactive)
REMARK    1  A    between atoms: O_1  and  C_16
REMARK    2  A    between atoms: O_1  and  C_21
REMARK    3  A    between atoms: O_4  and  C_20
REMARK    4  A    between atoms: O_4  and  C_27
REMARK    5  A    between atoms: C_19  and  C_25
REMARK    6  A    between atoms: C_28  and  C_32
REMARK                            x       y       z     vdW  Elec       q    Type
REMARK                         _______ _______ _______ _____ _____    ______ ____
ROOT
ATOM      1  O   UNL     1     111.592 126.399 138.996  0.00  0.00    +0.000 OA
ENDROOT
BRANCH   1   6
ATOM      2  O   UNL     1     113.740 126.178 138.686  0.00  0.00    +0.000 OA
ATOM      3  O   UNL     1     111.616 125.320 137.748  0.00  0.00    +0.000 OA
ATOM      4  O   UNL     1     112.331 124.509 136.793  0.00  0.00    +0.000 OA
ATOM      5  O   UNL     1     115.251 124.568 136.786  0.00  0.00    +0.000 OA
ATOM      6  C   UNL     1     112.312 126.145 138.685  0.00  0.00    +0.000 A 
ATOM      7  C   UNL     1     113.020 126.431 138.997  0.00  0.00    +0.000 A 
ATOM      8  C   UNL     1     112.324 125.606 138.061  0.00  0.00    +0.000 A 
ATOM      9  C   UNL     1     113.045 125.352 137.749  0.00  0.00    +0.000 A 
ATOM     10  C   UNL     1     113.753 125.638 138.061  0.00  0.00    +0.000 A 
ATOM     11  C   UNL     1     113.045 124.789 137.099  0.00  0.00    +0.000 A 
ATOM     12  C   UNL     1     114.510 125.381 137.746  0.00  0.00    +0.000 A 
ATOM     13  C   UNL     1     113.792 124.522 136.771  0.00  0.00    +0.000 A 
ATOM     14  C   UNL     1     114.529 124.820 137.096  0.00  0.00    +0.000 A 
BRANCH   7  16
ATOM     15  O   UNL     1     112.971 128.589 141.494  0.00  0.00    +0.000 OA
ATOM     16  C   UNL     1     113.008 126.971 139.621  0.00  0.00    +0.000 A 
ATOM     17  C   UNL     1     112.922 126.703 140.396  0.00  0.00    +0.000 A 
ATOM     18  C   UNL     1     113.082 127.779 139.470  0.00  0.00    +0.000 A 
ATOM     19  C   UNL     1     112.910 127.242 141.021  0.00  0.00    +0.000 A 
ATOM     20  C   UNL     1     113.070 128.318 140.093  0.00  0.00    +0.000 A 
ATOM     21  C   UNL     1     112.984 128.050 140.869  0.00  0.00    +0.000 A 
ENDBRANCH   7  16
ENDBRANCH   1   6
BRANCH   1  29
ATOM     22  O   UNL     1     111.251 127.235 137.889  0.00  0.00    +0.000 OA
ATOM     23  O   UNL     1     108.855 126.722 138.239  0.00  0.00    +0.000 OA
ATOM     24  O   UNL     1     109.313 127.729 137.015  0.00  0.00    +0.000 OA
ATOM     25  C   UNL     1     110.223 126.560 138.618  0.00  0.00    +0.000 C 
ATOM     26  C   UNL     1     109.654 126.893 138.122  0.00  0.00    +0.000 C 
ATOM     27  C   UNL     1     109.882 127.396 137.510  0.00  0.00    +0.000 C 
ATOM     28  C   UNL     1     110.681 127.567 137.394  0.00  0.00    +0.000 C 
ATOM     29  C   UNL     1     111.022 126.731 138.501  0.00  0.00    +0.000 C 
BRANCH  28  31
ATOM     30  O   UNL     1     111.298 128.779 136.955  0.00  0.00    +0.000 OA
ATOM     31  C   UNL     1     110.910 128.071 136.782  0.00  0.00    +0.000 C 
ENDBRANCH  28  31
BRANCH  25  32
ATOM     32  O   UNL     1     109.994 126.057 139.230  0.00  0.00    +0.000 OA
BRANCH  32  37
ATOM     33  O   UNL     1     109.627 127.187 140.024  0.00  0.00    +0.000 OA
ATOM     34  O   UNL     1     109.447 125.047 140.414  0.00  0.00    +0.000 OA
ATOM     35  O   UNL     1     108.806 125.672 141.800  0.00  0.00    +0.000 OA
ATOM     36  O   UNL     1     108.713 127.307 142.002  0.00  0.00    +0.000 OA
ATOM     37  C   UNL     1     109.674 126.369 139.923  0.00  0.00    +0.000 C 
ATOM     38  C   UNL     1     109.400 125.864 140.516  0.00  0.00    +0.000 C 
ATOM     39  C   UNL     1     109.080 126.177 141.209  0.00  0.00    +0.000 C 
ATOM     40  C   UNL     1     109.033 126.994 141.309  0.00  0.00    +0.000 C 
ATOM     41  C   UNL     1     109.306 127.499 140.717  0.00  0.00    +0.000 C 
ENDBRANCH  32  37
ENDBRANCH  25  32
ENDBRANCH   1  29
TORSDOF 6
ENDMDL
MODEL 3
REMARK VINA RESULT:      -9.6      1.212      4.271
REMARK  Name = 44566720
REMARK  6 active torsions:
REMARK  status: ('A' for Active; 'I' for Inactive)
REMARK    1  A    between atoms: O_1  and  C_16
REMARK    2  A    between atoms: O_1  and  C_21
REMARK    3  A    between atoms: O_4  and  C_20
REMARK    4  A    between atoms: O_4  and  C_27
REMARK    5  A    between atoms: C_19  and  C_25
REMARK    6  A    between atoms: C_28  and  C_32
REMARK                            x       y       z     vdW  Elec       q    Type
REMARK                         _______ _______ _______ _____ _____    ______ ____
ROOT
ATOM      1  O   UNL     1     112.438 126.969 137.790  0.00  0.00    +0.000 OA
ENDROOT
BRANCH   1   6
ATOM      2  O   UNL     1     111.793 125.654 136.172  0.00  0.00    +0.000 OA
ATOM      3  O   UNL     1     110.946 127.591 137.460  0.00  0.00    +0.000 OA
ATOM      4  O   UNL     1     109.714 127.589 136.708  0.00  0.00    +0.000 OA
ATOM      5  O   UNL     1     109.334 125.590 134.614  0.00  0.00    +0.000 OA
ATOM      6  C   UNL     1     111.975 126.634 137.196  0.00  0.00    +0.000 A 
ATOM      7  C   UNL     1     112.257 125.989 136.766  0.00  0.00    +0.000 A 
ATOM      8  C   UNL     1     111.229 126.945 137.031  0.00  0.00    +0.000 A 
ATOM      9  C   UNL     1     110.765 126.610 136.437  0.00  0.00    +0.000 A 
ATOM     10  C   UNL     1     111.047 125.965 136.007  0.00  0.00    +0.000 A 
ATOM     11  C   UNL     1     109.989 126.943 136.274  0.00  0.00    +0.000 A 
ATOM     12  C   UNL     1     110.573 125.607 135.385  0.00  0.00    +0.000 A 
ATOM     13  C   UNL     1     109.501 126.599 135.656  0.00  0.00    +0.000 A 
ATOM     14  C   UNL     1     109.795 125.927 135.209  0.00  0.00    +0.000 A 
BRANCH   7  16
ATOM     15  O   UNL     1     115.242 124.745 137.426  0.00  0.00    +0.000 OA
ATOM     16  C   UNL     1     113.003 125.678 136.931  0.00  0.00    +0.000 A 
ATOM     17  C   UNL     1     113.097 125.134 137.544  0.00  0.00    +0.000 A 
ATOM     18  C   UNL     1     113.656 125.911 136.484  0.00  0.00    +0.000 A 
ATOM     19  C   UNL     1     113.843 124.822 137.709  0.00  0.00    +0.000 A 
ATOM     20  C   UNL     1     114.402 125.601 136.648  0.00  0.00    +0.000 A 
ATOM     21  C   UNL     1     114.495 125.056 137.261  0.00  0.00    +0.000 A 
ENDBRANCH   7  16
ENDBRANCH   1   6
BRANCH   1  29
ATOM     22  O   UNL     1     112.822 128.127 137.046  0.00  0.00    +0.000 OA
ATOM     23  O   UNL     1     112.794 129.471 139.125  0.00  0.00    +0.000 OA
ATOM     24  O   UNL     1     113.186 130.181 137.689  0.00  0.00    +0.000 OA
ATOM     25  C   UNL     1     112.616 128.220 138.458  0.00  0.00    +0.000 C 
ATOM     26  C   UNL     1     112.803 129.023 138.432  0.00  0.00    +0.000 C 
ATOM     27  C   UNL     1     112.999 129.378 137.714  0.00  0.00    +0.000 C 
ATOM     28  C   UNL     1     113.009 128.930 137.022  0.00  0.00    +0.000 C 
ATOM     29  C   UNL     1     112.625 127.772 137.765  0.00  0.00    +0.000 C 
BRANCH  28  31
ATOM     30  O   UNL     1     113.852 129.009 135.871  0.00  0.00    +0.000 OA
ATOM     31  C   UNL     1     113.205 129.285 136.303  0.00  0.00    +0.000 C 
ENDBRANCH  28  31
BRANCH  25  32
ATOM     32  O   UNL     1     112.419 127.865 139.176  0.00  0.00    +0.000 OA
BRANCH  32  37
ATOM     33  O   UNL     1     113.806 127.771 139.510  0.00  0.00    +0.000 OA
ATOM     34  O   UNL     1     112.022 127.235 140.648  0.00  0.00    +0.000 OA
ATOM     35  O   UNL     1     113.210 126.826 141.718  0.00  0.00    +0.000 OA
ATOM     36  O   UNL     1     114.794 127.047 141.316  0.00  0.00    +0.000 OA
ATOM     37  C   UNL     1     113.013 127.660 139.711  0.00  0.00    +0.000 C 
ATOM     38  C   UNL     1     112.815 127.345 140.448  0.00  0.00    +0.000 C 
ATOM     39  C   UNL     1     113.408 127.141 140.983  0.00  0.00    +0.000 C 
ATOM     40  C   UNL     1     114.201 127.252 140.781  0.00  0.00    +0.000 C 
ATOM     41  C   UNL     1     114.399 127.567 140.045  0.00  0.00    +0.000 C 
ENDBRANCH  32  37
ENDBRANCH  25  32
ENDBRANCH   1  29
TORSDOF 6
ENDMDL
MODEL 4
REMARK VINA RESULT:      -9.6      2.789      4.526
REMARK  Name = 44566720
REMARK  6 active torsions:
REMARK  status: ('A' for Active; 'I' for Inactive)
REMARK    1  A    between atoms: O_1  and  C_16
REMARK    2  A    between atoms: O_1  and  C_21
REMARK    3  A    between atoms: O_4  and  C_20
REMARK    4  A    between atoms: O_4  and  C_27
REMARK    5  A    between atoms: C_19  and  C_25
REMARK    6  A    between atoms: C_28  and  C_32
REMARK                            x       y       z     vdW  Elec       q    Type
REMARK                         _______ _______ _______ _____ _____    ______ ____
ROOT
ATOM      1  O   UNL     1     110.480 129.685 137.638  0.00  0.00    +0.000 OA
ENDROOT
BRANCH   1   6
ATOM      2  O   UNL     1     111.769 128.020 138.211  0.00  0.00    +0.000 OA
ATOM      3  O   UNL     1     109.422 128.753 138.496  0.00  0.00    +0.000 OA
ATOM      4  O   UNL     1     109.117 127.574 139.270  0.00  0.00    +0.000 OA
ATOM      5  O   UNL     1     111.227 125.617 139.764  0.00  0.00    +0.000 OA
ATOM      6  C   UNL     1     110.733 128.975 137.972  0.00  0.00    +0.000 A 
ATOM      7  C   UNL     1     111.516 128.731 137.877  0.00  0.00    +0.000 A 
ATOM      8  C   UNL     1     110.205 128.509 138.401  0.00  0.00    +0.000 A 
ATOM      9  C   UNL     1     110.458 127.799 138.735  0.00  0.00    +0.000 A 
ATOM     10  C   UNL     1     111.240 127.554 138.641  0.00  0.00    +0.000 A 
ATOM     11  C   UNL     1     109.898 127.322 139.180  0.00  0.00    +0.000 A 
ATOM     12  C   UNL     1     111.517 126.816 138.984  0.00  0.00    +0.000 A 
ATOM     13  C   UNL     1     110.157 126.581 139.530  0.00  0.00    +0.000 A 
ATOM     14  C   UNL     1     110.971 126.327 139.431  0.00  0.00    +0.000 A 
BRANCH   7  16
ATOM     15  O   UNL     1     113.632 130.594 136.162  0.00  0.00    +0.000 OA
ATOM     16  C   UNL     1     112.044 129.196 137.449  0.00  0.00    +0.000 A 
ATOM     17  C   UNL     1     112.424 129.831 137.814  0.00  0.00    +0.000 A 
ATOM     18  C   UNL     1     112.194 129.027 136.655  0.00  0.00    +0.000 A 
ATOM     19  C   UNL     1     112.954 130.297 137.385  0.00  0.00    +0.000 A 
ATOM     20  C   UNL     1     112.723 129.493 136.226  0.00  0.00    +0.000 A 
ATOM     21  C   UNL     1     113.102 130.128 136.591  0.00  0.00    +0.000 A 
ENDBRANCH   7  16
ENDBRANCH   1   6
BRANCH   1  29
ATOM     22  O   UNL     1     109.722 129.083 136.587  0.00  0.00    +0.000 OA
ATOM     23  O   UNL     1     108.090 130.940 136.700  0.00  0.00    +0.000 OA
ATOM     24  O   UNL     1     107.877 129.719 135.611  0.00  0.00    +0.000 OA
ATOM     25  C   UNL     1     109.285 130.313 137.170  0.00  0.00    +0.000 C 
ATOM     26  C   UNL     1     108.634 130.321 136.662  0.00  0.00    +0.000 C 
ATOM     27  C   UNL     1     108.527 129.711 136.118  0.00  0.00    +0.000 C 
ATOM     28  C   UNL     1     109.071 129.092 136.080  0.00  0.00    +0.000 C 
ATOM     29  C   UNL     1     109.829 129.694 137.132  0.00  0.00    +0.000 C 
BRANCH  28  31
ATOM     30  O   UNL     1     109.533 128.348 134.951  0.00  0.00    +0.000 OA
ATOM     31  C   UNL     1     108.965 128.482 135.536  0.00  0.00    +0.000 C 
ENDBRANCH  28  31
BRANCH  25  32
ATOM     32  O   UNL     1     109.391 130.923 137.714  0.00  0.00    +0.000 OA
BRANCH  32  37
ATOM     33  O   UNL     1     109.905 131.760 136.676  0.00  0.00    +0.000 OA
ATOM     34  O   UNL     1     109.620 132.138 138.806  0.00  0.00    +0.000 OA
ATOM     35  O   UNL     1     110.248 133.582 138.314  0.00  0.00    +0.000 OA
ATOM     36  O   UNL     1     110.647 133.811 136.730  0.00  0.00    +0.000 OA
ATOM     37  C   UNL     1     109.705 131.645 137.468  0.00  0.00    +0.000 C 
ATOM     38  C   UNL     1     109.820 132.253 138.015  0.00  0.00    +0.000 C 
ATOM     39  C   UNL     1     110.134 132.975 137.768  0.00  0.00    +0.000 C 
ATOM     40  C   UNL     1     110.333 133.089 136.976  0.00  0.00    +0.000 C 
ATOM     41  C   UNL     1     110.219 132.482 136.430  0.00  0.00    +0.000 C 
ENDBRANCH  32  37
ENDBRANCH  25  32
ENDBRANCH   1  29
TORSDOF 6
ENDMDL
MODEL 5
REMARK VINA RESULT:      -9.6      1.116      2.863
REMARK  Name = 44566720
REMARK  6 active torsions:
REMARK  status: ('A' for Active; 'I' for Inactive)
REMARK    1  A    between atoms: O_1  and  C_16
REMARK    2  A    between atoms: O_1  and  C_21
REMARK    3  A    between atoms: O_4  and  C_20
REMARK    4  A    between atoms: O_4  and  C_27
REMARK    5  A    between atoms: C_19  and  C_25
REMARK    6  A    between atoms: C_28  and  C_32
REMARK                            x       y       z     vdW  Elec       q    Type
REMARK                         _______ _______ _______ _____ _____    ______ ____
ROOT
ATOM      1  O   UNL     1     112.345 127.041 137.571  0.00  0.00    +0.000 OA
ENDROOT
BRANCH   1   6
ATOM      2  O   UNL     1     113.413 128.776 138.354  0.00  0.00    +0.000 OA
ATOM      3  O   UNL     1     112.542 126.600 139.148  0.00  0.00    +0.000 OA
ATOM      4  O   UNL     1     113.024 126.861 140.483  0.00  0.00    +0.000 OA
ATOM      5  O   UNL     1     114.412 129.372 141.024  0.00  0.00    +0.000 OA
ATOM      6  C   UNL     1     112.734 127.546 138.095  0.00  0.00    +0.000 A 
ATOM      7  C   UNL     1     113.024 128.272 137.830  0.00  0.00    +0.000 A 
ATOM      8  C   UNL     1     112.832 127.325 138.883  0.00  0.00    +0.000 A 
ATOM      9  C   UNL     1     113.221 127.830 139.407  0.00  0.00    +0.000 A 
ATOM     10  C   UNL     1     113.511 128.556 139.143  0.00  0.00    +0.000 A 
ATOM     11  C   UNL     1     113.317 127.589 140.227  0.00  0.00    +0.000 A 
ATOM     12  C   UNL     1     113.918 129.090 139.679  0.00  0.00    +0.000 A 
ATOM     13  C   UNL     1     113.721 128.110 140.777  0.00  0.00    +0.000 A 
ATOM     14  C   UNL     1     114.023 128.866 140.502  0.00  0.00    +0.000 A 
BRANCH   7  16
ATOM     15  O   UNL     1     112.631 129.156 134.675  0.00  0.00    +0.000 OA
ATOM     16  C   UNL     1     112.926 128.493 137.042  0.00  0.00    +0.000 A 
ATOM     17  C   UNL     1     113.531 128.358 136.497  0.00  0.00    +0.000 A 
ATOM     18  C   UNL     1     112.223 128.849 136.797  0.00  0.00    +0.000 A 
ATOM     19  C   UNL     1     113.433 128.579 135.708  0.00  0.00    +0.000 A 
ATOM     20  C   UNL     1     112.124 129.069 136.009  0.00  0.00    +0.000 A 
ATOM     21  C   UNL     1     112.729 128.935 135.464  0.00  0.00    +0.000 A 
ENDBRANCH   7  16
ENDBRANCH   1   6
BRANCH   1  29
ATOM     22  O   UNL     1     113.416 126.103 137.452  0.00  0.00    +0.000 OA
ATOM     23  O   UNL     1     111.777 124.261 137.231  0.00  0.00    +0.000 OA
ATOM     24  O   UNL     1     113.394 123.937 137.185  0.00  0.00    +0.000 OA
ATOM     25  C   UNL     1     112.061 125.651 137.401  0.00  0.00    +0.000 C 
ATOM     26  C   UNL     1     112.324 124.875 137.304  0.00  0.00    +0.000 C 
ATOM     27  C   UNL     1     113.131 124.712 137.282  0.00  0.00    +0.000 C 
ATOM     28  C   UNL     1     113.678 125.326 137.355  0.00  0.00    +0.000 C 
ATOM     29  C   UNL     1     112.607 126.265 137.474  0.00  0.00    +0.000 C 
BRANCH  28  31
ATOM     30  O   UNL     1     114.929 125.368 136.666  0.00  0.00    +0.000 OA
ATOM     31  C   UNL     1     114.486 125.164 137.333  0.00  0.00    +0.000 C 
ENDBRANCH  28  31
BRANCH  25  32
ATOM     32  O   UNL     1     111.253 125.814 137.423  0.00  0.00    +0.000 OA
BRANCH  32  37
ATOM     33  O   UNL     1     111.172 125.658 136.005  0.00  0.00    +0.000 OA
ATOM     34  O   UNL     1     109.701 126.375 137.449  0.00  0.00    +0.000 OA
ATOM     35  O   UNL     1     108.846 126.500 136.044  0.00  0.00    +0.000 OA
ATOM     36  O   UNL     1     109.542 126.064 134.613  0.00  0.00    +0.000 OA
ATOM     37  C   UNL     1     110.825 125.876 136.720  0.00  0.00    +0.000 C 
ATOM     38  C   UNL     1     110.049 126.157 136.733  0.00  0.00    +0.000 C 
ATOM     39  C   UNL     1     109.621 126.220 136.031  0.00  0.00    +0.000 C 
ATOM     40  C   UNL     1     109.969 126.001 135.315  0.00  0.00    +0.000 C 
ATOM     41  C   UNL     1     110.744 125.721 135.302  0.00  0.00    +0.000 C 
ENDBRANCH  32  37
ENDBRANCH  25  32
ENDBRANCH   1  29
TORSDOF 6
ENDMDL
MODEL 6
REMARK VINA RESULT:      -9.5      1.637      3.718
REMARK  Name = 44566720
REMARK  6 active torsions:
REMARK  status: ('A' for Active; 'I' for Inactive)
REMARK    1  A    between atoms: O_1  and  C_16
REMARK    2  A    between atoms: O_1  and  C_21
REMARK    3  A    between atoms: O_4  and  C_20
REMARK    4  A    between atoms: O_4  and  C_27
REMARK    5  A    between atoms: C_19  and  C_25
REMARK    6  A    between atoms: C_28  and  C_32
REMARK                            x       y       z     vdW  Elec       q    Type
REMARK                         _______ _______ _______ _____ _____    ______ ____
ROOT
ATOM      1  O   UNL     1     111.231 127.770 136.917  0.00  0.00    +0.000 OA
ENDROOT
BRANCH   1   6
ATOM      2  O   UNL     1     112.815 126.408 136.285  0.00  0.00    +0.000 OA
ATOM      3  O   UNL     1     110.691 126.347 137.554  0.00  0.00    +0.000 OA
ATOM      4  O   UNL     1     110.835 124.930 137.784  0.00  0.00    +0.000 OA
ATOM      5  O   UNL     1     113.173 123.549 136.710  0.00  0.00    +0.000 OA
ATOM      6  C   UNL     1     111.669 127.079 136.812  0.00  0.00    +0.000 A 
ATOM      7  C   UNL     1     112.377 127.099 136.389  0.00  0.00    +0.000 A 
ATOM      8  C   UNL     1     111.399 126.368 137.131  0.00  0.00    +0.000 A 
ATOM      9  C   UNL     1     111.837 125.676 137.026  0.00  0.00    +0.000 A 
ATOM     10  C   UNL     1     112.544 125.696 136.603  0.00  0.00    +0.000 A 
ATOM     11  C   UNL     1     111.545 124.941 137.363  0.00  0.00    +0.000 A 
ATOM     12  C   UNL     1     113.010 124.983 136.487  0.00  0.00    +0.000 A 
ATOM     13  C   UNL     1     111.996 124.218 137.257  0.00  0.00    +0.000 A 
ATOM     14  C   UNL     1     112.733 124.239 136.816  0.00  0.00    +0.000 A 
BRANCH   7  16
ATOM     15  O   UNL     1     113.459 129.945 135.115  0.00  0.00    +0.000 OA
ATOM     16  C   UNL     1     112.647 127.810 136.071  0.00  0.00    +0.000 A 
ATOM     17  C   UNL     1     112.332 128.091 135.362  0.00  0.00    +0.000 A 
ATOM     18  C   UNL     1     113.233 128.241 136.461  0.00  0.00    +0.000 A 
ATOM     19  C   UNL     1     112.603 128.802 135.043  0.00  0.00    +0.000 A 
ATOM     20  C   UNL     1     113.503 128.952 136.143  0.00  0.00    +0.000 A 
ATOM     21  C   UNL     1     113.188 129.233 135.434  0.00  0.00    +0.000 A 
ENDBRANCH   7  16
ENDBRANCH   1   6
BRANCH   1  29
ATOM     22  O   UNL     1     111.584 127.963 138.288  0.00  0.00    +0.000 OA
ATOM     23  O   UNL     1     109.335 128.894 138.736  0.00  0.00    +0.000 OA
ATOM     24  O   UNL     1     110.437 128.777 139.957  0.00  0.00    +0.000 OA
ATOM     25  C   UNL     1     110.283 128.332 137.826  0.00  0.00    +0.000 C 
ATOM     26  C   UNL     1     110.085 128.584 138.587  0.00  0.00    +0.000 C 
ATOM     27  C   UNL     1     110.636 128.525 139.197  0.00  0.00    +0.000 C 
ATOM     28  C   UNL     1     111.385 128.215 139.048  0.00  0.00    +0.000 C 
ATOM     29  C   UNL     1     111.032 128.022 137.677  0.00  0.00    +0.000 C 
BRANCH  28  31
ATOM     30  O   UNL     1     112.649 128.573 139.612  0.00  0.00    +0.000 OA
ATOM     31  C   UNL     1     111.937 128.157 139.658  0.00  0.00    +0.000 C 
ENDBRANCH  28  31
BRANCH  25  32
ATOM     32  O   UNL     1     109.732 128.390 137.215  0.00  0.00    +0.000 OA
BRANCH  32  37
ATOM     33  O   UNL     1     110.035 129.779 137.070  0.00  0.00    +0.000 OA
ATOM     34  O   UNL     1     108.531 128.536 136.093  0.00  0.00    +0.000 OA
ATOM     35  O   UNL     1     108.234 129.997 135.387  0.00  0.00    +0.000 OA
ATOM     36  O   UNL     1     109.138 131.313 135.803  0.00  0.00    +0.000 OA
ATOM     37  C   UNL     1     109.583 129.121 136.862  0.00  0.00    +0.000 C 
ATOM     38  C   UNL     1     108.983 129.194 136.301  0.00  0.00    +0.000 C 
ATOM     39  C   UNL     1     108.834 129.925 135.948  0.00  0.00    +0.000 C 
ATOM     40  C   UNL     1     109.287 130.582 136.156  0.00  0.00    +0.000 C 
ATOM     41  C   UNL     1     109.887 130.510 136.717  0.00  0.00    +0.000 C 
ENDBRANCH  32  37
ENDBRANCH  25  32
ENDBRANCH   1  29
TORSDOF 6
ENDMDL
MODEL 7
REMARK VINA RESULT:      -9.5      1.535      4.343
REMARK  Name = 44566720
REMARK  6 active torsions:
REMARK  status: ('A' for Active; 'I' for Inactive)
REMARK    1  A    between atoms: O_1  and  C_16
REMARK    2  A    between atoms: O_1  and  C_21
REMARK    3  A    between atoms: O_4  and  C_20
REMARK    4  A    between atoms: O_4  and  C_27
REMARK    5  A    between atoms: C_19  and  C_25
REMARK    6  A    between atoms: C_28  and  C_32
REMARK                            x       y       z     vdW  Elec       q    Type
REMARK                         _______ _______ _______ _____ _____    ______ ____
ROOT
ATOM      1  O   UNL     1     112.214 127.466 137.925  0.00  0.00    +0.000 OA
ENDROOT
BRANCH   1   6
ATOM      2  O   UNL     1     112.474 125.311 138.154  0.00  0.00    +0.000 OA
ATOM      3  O   UNL     1     111.593 126.924 136.495  0.00  0.00    +0.000 OA
ATOM      4  O   UNL     1     111.253 125.852 135.591  0.00  0.00    +0.000 OA
ATOM      5  O   UNL     1     111.813 123.097 136.380  0.00  0.00    +0.000 OA
ATOM      6  C   UNL     1     112.197 126.657 137.763  0.00  0.00    +0.000 A 
ATOM      7  C   UNL     1     112.490 126.120 138.316  0.00  0.00    +0.000 A 
ATOM      8  C   UNL     1     111.887 126.386 137.049  0.00  0.00    +0.000 A 
ATOM      9  C   UNL     1     111.870 125.578 136.886  0.00  0.00    +0.000 A 
ATOM     10  C   UNL     1     112.163 125.039 137.439  0.00  0.00    +0.000 A 
ATOM     11  C   UNL     1     111.544 125.307 136.138  0.00  0.00    +0.000 A 
ATOM     12  C   UNL     1     112.151 124.195 137.282  0.00  0.00    +0.000 A 
ATOM     13  C   UNL     1     111.524 124.466 135.964  0.00  0.00    +0.000 A 
ATOM     14  C   UNL     1     111.829 123.907 136.540  0.00  0.00    +0.000 A 
BRANCH   7  16
ATOM     15  O   UNL     1     113.733 127.203 141.175  0.00  0.00    +0.000 OA
ATOM     16  C   UNL     1     112.801 126.390 139.030  0.00  0.00    +0.000 A 
ATOM     17  C   UNL     1     113.588 126.634 139.072  0.00  0.00    +0.000 A 
ATOM     18  C   UNL     1     112.325 126.417 139.704  0.00  0.00    +0.000 A 
ATOM     19  C   UNL     1     113.899 126.905 139.787  0.00  0.00    +0.000 A 
ATOM     20  C   UNL     1     112.635 126.688 140.418  0.00  0.00    +0.000 A 
ATOM     21  C   UNL     1     113.422 126.932 140.460  0.00  0.00    +0.000 A 
ENDBRANCH   7  16
ENDBRANCH   1   6
BRANCH   1  29
ATOM     22  O   UNL     1     110.814 127.582 138.188  0.00  0.00    +0.000 OA
ATOM     23  O   UNL     1     110.830 129.875 137.256  0.00  0.00    +0.000 OA
ATOM     24  O   UNL     1     109.426 129.227 137.829  0.00  0.00    +0.000 OA
ATOM     25  C   UNL     1     111.522 128.671 137.590  0.00  0.00    +0.000 C 
ATOM     26  C   UNL     1     110.825 129.111 137.566  0.00  0.00    +0.000 C 
ATOM     27  C   UNL     1     110.123 128.787 137.853  0.00  0.00    +0.000 C 
ATOM     28  C   UNL     1     110.117 128.023 138.164  0.00  0.00    +0.000 C 
ATOM     29  C   UNL     1     111.517 127.906 137.901  0.00  0.00    +0.000 C 
BRANCH  28  31
ATOM     30  O   UNL     1     109.351 127.496 139.248  0.00  0.00    +0.000 OA
ATOM     31  C   UNL     1     109.415 127.699 138.450  0.00  0.00    +0.000 C 
ENDBRANCH  28  31
BRANCH  25  32
ATOM     32  O   UNL     1     112.224 128.994 137.303  0.00  0.00    +0.000 OA
BRANCH  32  37
ATOM     33  O   UNL     1     112.385 129.726 138.521  0.00  0.00    +0.000 OA
ATOM     34  O   UNL     1     113.649 129.612 136.745  0.00  0.00    +0.000 OA
ATOM     35  O   UNL     1     114.520 130.653 137.683  0.00  0.00    +0.000 OA
ATOM     36  O   UNL     1     113.968 131.075 139.179  0.00  0.00    +0.000 OA
ATOM     37  C   UNL     1     112.660 129.514 137.772  0.00  0.00    +0.000 C 
ATOM     38  C   UNL     1     113.373 129.824 137.493  0.00  0.00    +0.000 C 
ATOM     39  C   UNL     1     113.809 130.344 137.962  0.00  0.00    +0.000 C 
ATOM     40  C   UNL     1     113.532 130.555 138.710  0.00  0.00    +0.000 C 
ATOM     41  C   UNL     1     112.821 130.246 138.990  0.00  0.00    +0.000 C 
ENDBRANCH  32  37
ENDBRANCH  25  32
ENDBRANCH   1  29
TORSDOF 6
ENDMDL
MODEL 8
REMARK VINA RESULT:      -9.5      1.582      4.637
REMARK  Name = 44566720
REMARK  6 active torsions:
REMARK  status: ('A' for Active; 'I' for Inactive)
REMARK    1  A    between atoms: O_1  and  C_16
REMARK    2  A    between atoms: O_1  and  C_21
REMARK    3  A    between atoms: O_4  and  C_20
REMARK    4  A    between atoms: O_4  and  C_27
REMARK    5  A    between atoms: C_19  and  C_25
REMARK    6  A    between atoms: C_28  and  C_32
REMARK                            x       y       z     vdW  Elec       q    Type
REMARK                         _______ _______ _______ _____ _____    ______ ____
ROOT
ATOM      1  O   UNL     1     112.487 127.733 137.878  0.00  0.00    +0.000 OA
ENDROOT
BRANCH   1   6
ATOM      2  O   UNL     1     112.556 126.298 136.235  0.00  0.00    +0.000 OA
ATOM      3  O   UNL     1     111.833 126.402 138.600  0.00  0.00    +0.000 OA
ATOM      4  O   UNL     1     111.409 125.023 138.561  0.00  0.00    +0.000 OA
ATOM      5  O   UNL     1     111.721 123.512 136.083  0.00  0.00    +0.000 OA
ATOM      6  C   UNL     1     112.401 127.033 137.451  0.00  0.00    +0.000 A 
ATOM      7  C   UNL     1     112.642 126.999 136.662  0.00  0.00    +0.000 A 
ATOM      8  C   UNL     1     112.074 126.368 137.812  0.00  0.00    +0.000 A 
ATOM      9  C   UNL     1     111.989 125.667 137.385  0.00  0.00    +0.000 A 
ATOM     10  C   UNL     1     112.229 125.632 136.597  0.00  0.00    +0.000 A 
ATOM     11  C   UNL     1     111.647 124.979 137.772  0.00  0.00    +0.000 A 
ATOM     12  C   UNL     1     112.145 124.908 136.141  0.00  0.00    +0.000 A 
ATOM     13  C   UNL     1     111.555 124.247 137.333  0.00  0.00    +0.000 A 
ATOM     14  C   UNL     1     111.806 124.211 136.512  0.00  0.00    +0.000 A 
BRANCH   7  16
ATOM     15  O   UNL     1     113.948 129.662 135.216  0.00  0.00    +0.000 OA
ATOM     16  C   UNL     1     112.968 127.664 136.301  0.00  0.00    +0.000 A 
ATOM     17  C   UNL     1     112.497 128.150 135.830  0.00  0.00    +0.000 A 
ATOM     18  C   UNL     1     113.766 127.844 136.410  0.00  0.00    +0.000 A 
ATOM     19  C   UNL     1     112.824 128.817 135.468  0.00  0.00    +0.000 A 
ATOM     20  C   UNL     1     114.093 128.509 136.049  0.00  0.00    +0.000 A 
ATOM     21  C   UNL     1     113.621 128.995 135.578  0.00  0.00    +0.000 A 
ENDBRANCH   7  16
ENDBRANCH   1   6
BRANCH   1  29
ATOM     22  O   UNL     1     111.107 128.105 137.844  0.00  0.00    +0.000 OA
ATOM     23  O   UNL     1     111.310 129.065 140.116  0.00  0.00    +0.000 OA
ATOM     24  O   UNL     1     109.864 129.117 139.325  0.00  0.00    +0.000 OA
ATOM     25  C   UNL     1     111.899 128.399 138.997  0.00  0.00    +0.000 C 
ATOM     26  C   UNL     1     111.243 128.745 139.359  0.00  0.00    +0.000 C 
ATOM     27  C   UNL     1     110.520 128.771 138.963  0.00  0.00    +0.000 C 
ATOM     28  C   UNL     1     110.452 128.451 138.206  0.00  0.00    +0.000 C 
ATOM     29  C   UNL     1     111.831 128.079 138.240  0.00  0.00    +0.000 C 
BRANCH  28  31
ATOM     30  O   UNL     1     109.665 128.885 137.095  0.00  0.00    +0.000 OA
ATOM     31  C   UNL     1     109.729 128.476 137.810  0.00  0.00    +0.000 C 
ENDBRANCH  28  31
BRANCH  25  32
ATOM     32  O   UNL     1     112.622 128.374 139.392  0.00  0.00    +0.000 OA
BRANCH  32  37
ATOM     33  O   UNL     1     112.890 129.725 139.010  0.00  0.00    +0.000 OA
ATOM     34  O   UNL     1     113.945 128.392 140.378  0.00  0.00    +0.000 OA
ATOM     35  O   UNL     1     114.874 129.751 140.489  0.00  0.00    +0.000 OA
ATOM     36  O   UNL     1     114.479 131.093 139.613  0.00  0.00    +0.000 OA
ATOM     37  C   UNL     1     113.086 129.053 139.448  0.00  0.00    +0.000 C 
ATOM     38  C   UNL     1     113.748 129.063 139.941  0.00  0.00    +0.000 C 
ATOM     39  C   UNL     1     114.213 129.742 139.996  0.00  0.00    +0.000 C 
ATOM     40  C   UNL     1     114.015 130.413 139.558  0.00  0.00    +0.000 C 
ATOM     41  C   UNL     1     113.354 130.404 139.065  0.00  0.00    +0.000 C 
ENDBRANCH  32  37
ENDBRANCH  25  32
ENDBRANCH   1  29
TORSDOF 6
ENDMDL
MODEL 9
REMARK VINA RESULT:      -9.5      1.896      3.561
REMARK  Name = 44566720
REMARK  6 active torsions:
REMARK  status: ('A' for Active; 'I' for Inactive)
REMARK    1  A    between atoms: O_1  and  C_16
REMARK    2  A    between atoms: O_1  and  C_21
REMARK    3  A    between atoms: O_4  and  C_20
REMARK    4  A    between atoms: O_4  and  C_27
REMARK    5  A    between atoms: C_19  and  C_25
REMARK    6  A    between atoms: C_28  and  C_32
REMARK                            x       y       z     vdW  Elec       q    Type
REMARK                         _______ _______ _______ _____ _____    ______ ____
ROOT
ATOM      1  O   UNL     1     111.592 127.826 137.488  0.00  0.00    +0.000 OA
ENDROOT
BRANCH   1   6
ATOM      2  O   UNL     1     113.104 127.796 135.914  0.00  0.00    +0.000 OA
ATOM      3  O   UNL     1     112.224 129.343 137.633  0.00  0.00    +0.000 OA
ATOM      4  O   UNL     1     113.147 130.372 137.222  0.00  0.00    +0.000 OA
ATOM      5  O   UNL     1     114.996 129.825 135.029  0.00  0.00    +0.000 OA
ATOM      6  C   UNL     1     112.202 128.069 136.987  0.00  0.00    +0.000 A 
ATOM      7  C   UNL     1     112.495 127.552 136.414  0.00  0.00    +0.000 A 
ATOM      8  C   UNL     1     112.517 128.827 137.060  0.00  0.00    +0.000 A 
ATOM      9  C   UNL     1     113.126 129.070 136.560  0.00  0.00    +0.000 A 
ATOM     10  C   UNL     1     113.420 128.555 135.987  0.00  0.00    +0.000 A 
ATOM     11  C   UNL     1     113.447 129.863 136.645  0.00  0.00    +0.000 A 
ATOM     12  C   UNL     1     114.054 128.796 135.459  0.00  0.00    +0.000 A 
ATOM     13  C   UNL     1     114.081 130.122 136.127  0.00  0.00    +0.000 A 
ATOM     14  C   UNL     1     114.387 129.585 135.530  0.00  0.00    +0.000 A 
BRANCH   7  16
ATOM     15  O   UNL     1     111.234 124.517 136.123  0.00  0.00    +0.000 OA
ATOM     16  C   UNL     1     112.180 126.794 136.341  0.00  0.00    +0.000 A 
ATOM     17  C   UNL     1     112.448 126.187 136.832  0.00  0.00    +0.000 A 
ATOM     18  C   UNL     1     111.596 126.642 135.778  0.00  0.00    +0.000 A 
ATOM     19  C   UNL     1     112.132 125.428 136.759  0.00  0.00    +0.000 A 
ATOM     20  C   UNL     1     111.281 125.883 135.706  0.00  0.00    +0.000 A 
ATOM     21  C   UNL     1     111.549 125.276 136.196  0.00  0.00    +0.000 A 
ENDBRANCH   7  16
ENDBRANCH   1   6
BRANCH   1  29
ATOM     22  O   UNL     1     110.569 128.593 136.851  0.00  0.00    +0.000 OA
ATOM     23  O   UNL     1     109.460 128.929 139.038  0.00  0.00    +0.000 OA
ATOM     24  O   UNL     1     108.807 129.584 137.673  0.00  0.00    +0.000 OA
ATOM     25  C   UNL     1     110.527 128.377 138.264  0.00  0.00    +0.000 C 
ATOM     26  C   UNL     1     109.830 128.817 138.309  0.00  0.00    +0.000 C 
ATOM     27  C   UNL     1     109.503 129.145 137.627  0.00  0.00    +0.000 C 
ATOM     28  C   UNL     1     109.873 129.032 136.898  0.00  0.00    +0.000 C 
ATOM     29  C   UNL     1     110.896 128.265 137.535  0.00  0.00    +0.000 C 
BRANCH  28  31
ATOM     30  O   UNL     1     109.277 128.867 135.610  0.00  0.00    +0.000 OA
ATOM     31  C   UNL     1     109.546 129.360 136.215  0.00  0.00    +0.000 C 
ENDBRANCH  28  31
BRANCH  25  32
ATOM     32  O   UNL     1     110.853 128.050 138.946  0.00  0.00    +0.000 OA
BRANCH  32  37
ATOM     33  O   UNL     1     109.900 126.987 138.893  0.00  0.00    +0.000 OA
ATOM     34  O   UNL     1     111.486 127.413 140.330  0.00  0.00    +0.000 OA
ATOM     35  O   UNL     1     110.849 126.031 140.969  0.00  0.00    +0.000 OA
ATOM     36  O   UNL     1     109.579 125.287 140.224  0.00  0.00    +0.000 OA
ATOM     37  C   UNL     1     110.535 127.359 139.265  0.00  0.00    +0.000 C 
ATOM     38  C   UNL     1     110.851 127.040 139.958  0.00  0.00    +0.000 C 
ATOM     39  C   UNL     1     110.533 126.349 140.277  0.00  0.00    +0.000 C 
ATOM     40  C   UNL     1     109.897 125.978 139.904  0.00  0.00    +0.000 C 
ATOM     41  C   UNL     1     109.581 126.296 139.213  0.00  0.00    +0.000 C 
ENDBRANCH  32  37
ENDBRANCH  25  32
ENDBRANCH   1  29
TORSDOF 6
ENDMDL
MODEL 10
REMARK VINA RESULT:      -9.4      1.759      3.502
REMARK  Name = 44566720
REMARK  6 active torsions:
REMARK  status: ('A' for Active; 'I' for Inactive)
REMARK    1  A    between atoms: O_1  and  C_16
REMARK    2  A    between atoms: O_1  and  C_21
REMARK    3  A    between atoms: O_4  and  C_20
REMARK    4  A    between atoms: O_4  and  C_27
REMARK    5  A    between atoms: C_19  and  C_25
REMARK    6  A    between atoms: C_28  and  C_32
REMARK                            x       y       z     vdW  Elec       q    Type
REMARK                         _______ _______ _______ _____ _____    ______ ____
ROOT
ATOM      1  O   UNL     1     110.825 127.711 136.822  0.00  0.00    +0.000 OA
ENDROOT
BRANCH   1   6
ATOM      2  O   UNL     1     111.379 125.975 138.022  0.00  0.00    +0.000 OA
ATOM      3  O   UNL     1     110.990 126.563 135.649  0.00  0.00    +0.000 OA
ATOM      4  O   UNL     1     111.284 125.212 135.236  0.00  0.00    +0.000 OA
ATOM      5  O   UNL     1     111.984 123.229 137.262  0.00  0.00    +0.000 OA
ATOM      6  C   UNL     1     111.037 126.941 137.026  0.00  0.00    +0.000 A 
ATOM      7  C   UNL     1     111.166 126.745 137.817  0.00  0.00    +0.000 A 
ATOM      8  C   UNL     1     111.120 126.367 136.440  0.00  0.00    +0.000 A 
ATOM      9  C   UNL     1     111.332 125.597 136.644  0.00  0.00    +0.000 A 
ATOM     10  C   UNL     1     111.462 125.400 137.435  0.00  0.00    +0.000 A 
ATOM     11  C   UNL     1     111.415 125.006 136.024  0.00  0.00    +0.000 A 
ATOM     12  C   UNL     1     111.683 124.601 137.661  0.00  0.00    +0.000 A 
ATOM     13  C   UNL     1     111.636 124.203 136.232  0.00  0.00    +0.000 A 
ATOM     14  C   UNL     1     111.771 123.999 137.055  0.00  0.00    +0.000 A 
BRANCH   7  16
ATOM     15  O   UNL     1     110.835 129.042 140.164  0.00  0.00    +0.000 OA
ATOM     16  C   UNL     1     111.084 127.319 138.403  0.00  0.00    +0.000 A 
ATOM     17  C   UNL     1     110.334 127.510 138.691  0.00  0.00    +0.000 A 
ATOM     18  C   UNL     1     111.750 127.703 138.703  0.00  0.00    +0.000 A 
ATOM     19  C   UNL     1     110.251 128.084 139.278  0.00  0.00    +0.000 A 
ATOM     20  C   UNL     1     111.667 128.277 139.289  0.00  0.00    +0.000 A 
ATOM     21  C   UNL     1     110.918 128.468 139.577  0.00  0.00    +0.000 A 
ENDBRANCH   7  16
ENDBRANCH   1   6
BRANCH   1  29
ATOM     22  O   UNL     1     112.099 128.073 136.287  0.00  0.00    +0.000 OA
ATOM     23  O   UNL     1     110.987 129.517 134.612  0.00  0.00    +0.000 OA
ATOM     24  O   UNL     1     112.632 129.397 134.636  0.00  0.00    +0.000 OA
ATOM     25  C   UNL     1     110.905 128.614 135.717  0.00  0.00    +0.000 C 
ATOM     26  C   UNL     1     111.358 129.035 135.170  0.00  0.00    +0.000 C 
ATOM     27  C   UNL     1     112.180 128.976 135.182  0.00  0.00    +0.000 C 
ATOM     28  C   UNL     1     112.551 128.494 135.740  0.00  0.00    +0.000 C 
ATOM     29  C   UNL     1     111.276 128.133 136.275  0.00  0.00    +0.000 C 
BRANCH  28  31
ATOM     30  O   UNL     1     113.797 128.703 136.408  0.00  0.00    +0.000 OA
ATOM     31  C   UNL     1     113.373 128.434 135.752  0.00  0.00    +0.000 C 
ENDBRANCH  28  31
BRANCH  25  32
ATOM     32  O   UNL     1     110.083 128.674 135.705  0.00  0.00    +0.000 OA
BRANCH  32  37
ATOM     33  O   UNL     1     110.162 129.938 136.368  0.00  0.00    +0.000 OA
ATOM     34  O   UNL     1     108.453 128.864 135.538  0.00  0.00    +0.000 OA
ATOM     35  O   UNL     1     107.716 130.223 136.116  0.00  0.00    +0.000 OA
ATOM     36  O   UNL     1     108.611 131.391 136.862  0.00  0.00    +0.000 OA
ATOM     37  C   UNL     1     109.715 129.353 135.995  0.00  0.00    +0.000 C 
ATOM     38  C   UNL     1     108.899 129.449 135.911  0.00  0.00    +0.000 C 
ATOM     39  C   UNL     1     108.531 130.128 136.200  0.00  0.00    +0.000 C 
ATOM     40  C   UNL     1     108.979 130.712 136.573  0.00  0.00    +0.000 C 
ATOM     41  C   UNL     1     109.793 130.617 136.657  0.00  0.00    +0.000 C 
ENDBRANCH  32  37
ENDBRANCH  25  32
ENDBRANCH   1  29
TORSDOF 6
ENDMDL
