MODEL 1
REMARK VINA RESULT:      -9.4      0.000      0.000
REMARK  Name = 5318156
REMARK  7 active torsions:
REMARK  status: ('A' for Active; 'I' for Inactive)
REMARK    1  A    between atoms: O_2  and  C_17
REMARK    2  A    between atoms: O_2  and  C_20
REMARK    3  A    between atoms: C_16  and  C_18
REMARK    4  A    between atoms: C_19  and  C_21
REMARK    5  A    between atoms: C_21  and  C_22
REMARK    6  A    between atoms: C_22  and  C_23
REMARK    7  A    between atoms: C_31  and  C_33
REMARK                            x       y       z     vdW  Elec       q    Type
REMARK                         _______ _______ _______ _____ _____    ______ ____
ROOT
ATOM      1  O   UNL     1     110.416 128.133 136.016  0.00  0.00    +0.000 OA
ATOM      2  O   UNL     1     108.159 129.934 135.958  0.00  0.00    +0.000 OA
ATOM      3  O   UNL     1     107.981 128.513 135.789  0.00  0.00    +0.000 OA
ATOM      4  O   UNL     1     108.589 126.982 135.696  0.00  0.00    +0.000 OA
ATOM      5  C   UNL     1     110.651 129.555 136.191  0.00  0.00    +0.000 A 
ATOM      6  C   UNL     1     110.341 130.355 136.241  0.00  0.00    +0.000 A 
ATOM      7  C   UNL     1     110.112 128.898 136.063  0.00  0.00    +0.000 A 
ATOM      8  C   UNL     1     109.495 130.487 136.162  0.00  0.00    +0.000 A 
ATOM      9  C   UNL     1     109.301 129.025 135.988  0.00  0.00    +0.000 A 
ATOM     10  C   UNL     1     108.972 129.817 136.035  0.00  0.00    +0.000 A 
ATOM     11  C   UNL     1     108.793 128.387 135.865  0.00  0.00    +0.000 A 
ATOM     12  C   UNL     1     109.909 127.494 135.894  0.00  0.00    +0.000 A 
ATOM     13  C   UNL     1     109.097 127.621 135.818  0.00  0.00    +0.000 A 
ENDROOT
BRANCH  12  15
ATOM     14  O   UNL     1     111.124 124.432 135.705  0.00  0.00    +0.000 OA
ATOM     15  C   UNL     1     110.213 126.729 135.847  0.00  0.00    +0.000 A 
ATOM     16  C   UNL     1     110.379 126.308 136.536  0.00  0.00    +0.000 A 
ATOM     17  C   UNL     1     110.350 126.384 135.109  0.00  0.00    +0.000 A 
ATOM     18  C   UNL     1     110.683 125.543 136.489  0.00  0.00    +0.000 A 
ATOM     19  C   UNL     1     110.654 125.619 135.062  0.00  0.00    +0.000 A 
ATOM     20  C   UNL     1     110.820 125.198 135.752  0.00  0.00    +0.000 A 
ENDBRANCH  12  15
BRANCH   6  21
ATOM     21  O   UNL     1     110.851 130.992 136.364  0.00  0.00    +0.000 OA
BRANCH  21  30
ATOM     22  O   UNL     1     110.499 131.365 137.697  0.00  0.00    +0.000 OA
ATOM     23  O   UNL     1     110.399 133.740 137.006  0.00  0.00    +0.000 OA
ATOM     24  O   UNL     1     110.080 133.321 138.569  0.00  0.00    +0.000 OA
ATOM     25  O   UNL     1     110.784 132.575 135.903  0.00  0.00    +0.000 OA
ATOM     26  C   UNL     1     110.432 132.948 137.237  0.00  0.00    +0.000 C 
ATOM     27  C   UNL     1     110.273 132.739 138.018  0.00  0.00    +0.000 C 
ATOM     28  C   UNL     1     110.625 132.365 136.685  0.00  0.00    +0.000 C 
ATOM     29  C   UNL     1     110.306 131.947 138.249  0.00  0.00    +0.000 C 
ATOM     30  C   UNL     1     110.658 131.574 136.915  0.00  0.00    +0.000 C 
BRANCH  29  32
ATOM     31  O   UNL     1     110.697 131.300 139.461  0.00  0.00    +0.000 OA
ATOM     32  C   UNL     1     110.147 131.738 139.030  0.00  0.00    +0.000 C 
ENDBRANCH  29  32
ENDBRANCH  21  30
ENDBRANCH   6  21
BRANCH   5  33
ATOM     33  C   UNL     1     111.461 129.419 136.266  0.00  0.00    +0.000 C 
BRANCH  33  34
ATOM     34  C   UNL     1     111.964 129.562 135.628  0.00  0.00    +0.000 C 
BRANCH  34  36
ATOM     35  O   UNL     1     113.521 129.015 135.664  0.00  0.00    +0.000 OA
ATOM     36  C   UNL     1     112.742 129.289 135.646  0.00  0.00    +0.000 C 
ATOM     37  C   UNL     1     112.739 129.334 136.470  0.00  0.00    +0.000 C 
ATOM     38  C   UNL     1     112.746 129.243 134.821  0.00  0.00    +0.000 C 
ENDBRANCH  34  36
ENDBRANCH  33  34
ENDBRANCH   5  33
TORSDOF 7
ENDMDL
MODEL 2
REMARK VINA RESULT:      -9.4      1.895      2.972
REMARK  Name = 5318156
REMARK  7 active torsions:
REMARK  status: ('A' for Active; 'I' for Inactive)
REMARK    1  A    between atoms: O_2  and  C_17
REMARK    2  A    between atoms: O_2  and  C_20
REMARK    3  A    between atoms: C_16  and  C_18
REMARK    4  A    between atoms: C_19  and  C_21
REMARK    5  A    between atoms: C_21  and  C_22
REMARK    6  A    between atoms: C_22  and  C_23
REMARK    7  A    between atoms: C_31  and  C_33
REMARK                            x       y       z     vdW  Elec       q    Type
REMARK                         _______ _______ _______ _____ _____    ______ ____
ROOT
ATOM      1  O   UNL     1     112.448 126.802 136.395  0.00  0.00    +0.000 OA
ATOM      2  O   UNL     1     109.753 126.515 135.393  0.00  0.00    +0.000 OA
ATOM      3  O   UNL     1     110.537 125.361 135.761  0.00  0.00    +0.000 OA
ATOM      4  O   UNL     1     111.928 124.683 136.331  0.00  0.00    +0.000 OA
ATOM      5  C   UNL     1     111.703 127.996 136.039  0.00  0.00    +0.000 A 
ATOM      6  C   UNL     1     110.980 128.356 135.743  0.00  0.00    +0.000 A 
ATOM      7  C   UNL     1     111.752 127.142 136.111  0.00  0.00    +0.000 A 
ATOM      8  C   UNL     1     110.317 127.856 135.523  0.00  0.00    +0.000 A 
ATOM      9  C   UNL     1     111.115 126.662 135.899  0.00  0.00    +0.000 A 
ATOM     10  C   UNL     1     110.385 127.003 135.602  0.00  0.00    +0.000 A 
ATOM     11  C   UNL     1     111.173 125.842 135.973  0.00  0.00    +0.000 A 
ATOM     12  C   UNL     1     112.506 125.982 136.469  0.00  0.00    +0.000 A 
ATOM     13  C   UNL     1     111.869 125.502 136.257  0.00  0.00    +0.000 A 
ENDROOT
BRANCH  12  15
ATOM     14  O   UNL     1     115.290 124.622 137.606  0.00  0.00    +0.000 OA
ATOM     15  C   UNL     1     113.202 125.642 136.753  0.00  0.00    +0.000 A 
ATOM     16  C   UNL     1     113.338 125.599 137.566  0.00  0.00    +0.000 A 
ATOM     17  C   UNL     1     113.762 125.345 136.224  0.00  0.00    +0.000 A 
ATOM     18  C   UNL     1     114.034 125.259 137.849  0.00  0.00    +0.000 A 
ATOM     19  C   UNL     1     114.458 125.005 136.509  0.00  0.00    +0.000 A 
ATOM     20  C   UNL     1     114.594 124.962 137.321  0.00  0.00    +0.000 A 
ENDBRANCH  12  15
BRANCH   6  21
ATOM     21  O   UNL     1     110.924 129.176 135.671  0.00  0.00    +0.000 OA
BRANCH  21  30
ATOM     22  O   UNL     1     109.988 129.491 136.704  0.00  0.00    +0.000 OA
ATOM     23  O   UNL     1     108.706 130.891 135.115  0.00  0.00    +0.000 OA
ATOM     24  O   UNL     1     108.198 130.738 136.677  0.00  0.00    +0.000 OA
ATOM     25  O   UNL     1     110.069 130.110 134.612  0.00  0.00    +0.000 OA
ATOM     26  C   UNL     1     109.133 130.424 135.645  0.00  0.00    +0.000 C 
ATOM     27  C   UNL     1     108.879 130.348 136.426  0.00  0.00    +0.000 C 
ATOM     28  C   UNL     1     109.816 130.033 135.393  0.00  0.00    +0.000 C 
ATOM     29  C   UNL     1     109.307 129.881 136.955  0.00  0.00    +0.000 C 
ATOM     30  C   UNL     1     110.243 129.567 135.923  0.00  0.00    +0.000 C 
BRANCH  29  32
ATOM     31  O   UNL     1     109.604 129.736 138.346  0.00  0.00    +0.000 OA
ATOM     32  C   UNL     1     109.052 129.805 137.736  0.00  0.00    +0.000 C 
ENDBRANCH  29  32
ENDBRANCH  21  30
ENDBRANCH   6  21
BRANCH   5  33
ATOM     33  C   UNL     1     112.344 128.468 136.253  0.00  0.00    +0.000 C 
BRANCH  33  34
ATOM     34  C   UNL     1     112.844 128.774 135.672  0.00  0.00    +0.000 C 
BRANCH  34  36
ATOM     35  O   UNL     1     114.238 129.544 136.102  0.00  0.00    +0.000 OA
ATOM     36  C   UNL     1     113.541 129.159 135.887  0.00  0.00    +0.000 C 
ATOM     37  C   UNL     1     113.248 129.262 136.652  0.00  0.00    +0.000 C 
ATOM     38  C   UNL     1     113.834 129.056 135.122  0.00  0.00    +0.000 C 
ENDBRANCH  34  36
ENDBRANCH  33  34
ENDBRANCH   5  33
TORSDOF 7
ENDMDL
MODEL 3
REMARK VINA RESULT:      -9.3      1.867      3.564
REMARK  Name = 5318156
REMARK  7 active torsions:
REMARK  status: ('A' for Active; 'I' for Inactive)
REMARK    1  A    between atoms: O_2  and  C_17
REMARK    2  A    between atoms: O_2  and  C_20
REMARK    3  A    between atoms: C_16  and  C_18
REMARK    4  A    between atoms: C_19  and  C_21
REMARK    5  A    between atoms: C_21  and  C_22
REMARK    6  A    between atoms: C_22  and  C_23
REMARK    7  A    between atoms: C_31  and  C_33
REMARK                            x       y       z     vdW  Elec       q    Type
REMARK                         _______ _______ _______ _____ _____    ______ ____
ROOT
ATOM      1  O   UNL     1     112.380 127.236 136.351  0.00  0.00    +0.000 OA
ATOM      2  O   UNL     1     112.569 130.077 135.863  0.00  0.00    +0.000 OA
ATOM      3  O   UNL     1     113.733 129.305 136.224  0.00  0.00    +0.000 OA
ATOM      4  O   UNL     1     114.450 127.874 136.622  0.00  0.00    +0.000 OA
ATOM      5  C   UNL     1     111.177 127.966 135.991  0.00  0.00    +0.000 A 
ATOM      6  C   UNL     1     110.797 128.709 135.783  0.00  0.00    +0.000 A 
ATOM      7  C   UNL     1     112.021 127.952 136.152  0.00  0.00    +0.000 A 
ATOM      8  C   UNL     1     111.267 129.426 135.739  0.00  0.00    +0.000 A 
ATOM      9  C   UNL     1     112.471 128.641 136.109  0.00  0.00    +0.000 A 
ATOM     10  C   UNL     1     112.110 129.393 135.903  0.00  0.00    +0.000 A 
ATOM     11  C   UNL     1     113.281 128.615 136.266  0.00  0.00    +0.000 A 
ATOM     12  C   UNL     1     113.189 127.210 136.508  0.00  0.00    +0.000 A 
ATOM     13  C   UNL     1     113.640 127.900 136.465  0.00  0.00    +0.000 A 
ENDROOT
BRANCH  12  15
ATOM     14  O   UNL     1     114.625 124.348 137.305  0.00  0.00    +0.000 OA
ATOM     15  C   UNL     1     113.548 126.494 136.707  0.00  0.00    +0.000 A 
ATOM     16  C   UNL     1     113.929 126.048 136.127  0.00  0.00    +0.000 A 
ATOM     17  C   UNL     1     113.526 126.225 137.487  0.00  0.00    +0.000 A 
ATOM     18  C   UNL     1     114.288 125.333 136.327  0.00  0.00    +0.000 A 
ATOM     19  C   UNL     1     113.885 125.510 137.686  0.00  0.00    +0.000 A 
ATOM     20  C   UNL     1     114.266 125.064 137.106  0.00  0.00    +0.000 A 
ENDBRANCH  12  15
BRANCH   6  21
ATOM     21  O   UNL     1     109.987 128.732 135.627  0.00  0.00    +0.000 OA
BRANCH  21  30
ATOM     22  O   UNL     1     109.512 129.483 136.745  0.00  0.00    +0.000 OA
ATOM     23  O   UNL     1     108.168 130.898 135.224  0.00  0.00    +0.000 OA
ATOM     24  O   UNL     1     108.140 131.177 136.849  0.00  0.00    +0.000 OA
ATOM     25  O   UNL     1     109.092 129.676 134.612  0.00  0.00    +0.000 OA
ATOM     26  C   UNL     1     108.616 130.426 135.731  0.00  0.00    +0.000 C 
ATOM     27  C   UNL     1     108.602 130.565 136.544  0.00  0.00    +0.000 C 
ATOM     28  C   UNL     1     109.078 129.814 135.425  0.00  0.00    +0.000 C 
ATOM     29  C   UNL     1     109.050 130.093 137.051  0.00  0.00    +0.000 C 
ATOM     30  C   UNL     1     109.526 129.342 135.932  0.00  0.00    +0.000 C 
BRANCH  29  32
ATOM     31  O   UNL     1     108.944 129.604 138.389  0.00  0.00    +0.000 OA
ATOM     32  C   UNL     1     109.036 130.233 137.863  0.00  0.00    +0.000 C 
ENDBRANCH  29  32
ENDBRANCH  21  30
ENDBRANCH   6  21
BRANCH   5  33
ATOM     33  C   UNL     1     110.734 127.272 136.036  0.00  0.00    +0.000 C 
BRANCH  33  34
ATOM     34  C   UNL     1     110.493 126.890 135.345  0.00  0.00    +0.000 C 
BRANCH  34  36
ATOM     35  O   UNL     1     109.907 125.349 135.413  0.00  0.00    +0.000 OA
ATOM     36  C   UNL     1     110.200 126.120 135.379  0.00  0.00    +0.000 C 
ATOM     37  C   UNL     1     109.925 126.258 136.145  0.00  0.00    +0.000 C 
ATOM     38  C   UNL     1     110.475 125.981 134.613  0.00  0.00    +0.000 C 
ENDBRANCH  34  36
ENDBRANCH  33  34
ENDBRANCH   5  33
TORSDOF 7
ENDMDL
MODEL 4
REMARK VINA RESULT:      -9.1      3.358      6.567
REMARK  Name = 5318156
REMARK  7 active torsions:
REMARK  status: ('A' for Active; 'I' for Inactive)
REMARK    1  A    between atoms: O_2  and  C_17
REMARK    2  A    between atoms: O_2  and  C_20
REMARK    3  A    between atoms: C_16  and  C_18
REMARK    4  A    between atoms: C_19  and  C_21
REMARK    5  A    between atoms: C_21  and  C_22
REMARK    6  A    between atoms: C_22  and  C_23
REMARK    7  A    between atoms: C_31  and  C_33
REMARK                            x       y       z     vdW  Elec       q    Type
REMARK                         _______ _______ _______ _____ _____    ______ ____
ROOT
ATOM      1  O   UNL     1     113.337 128.524 139.514  0.00  0.00    +0.000 OA
ATOM      2  O   UNL     1     112.031 126.067 140.293  0.00  0.00    +0.000 OA
ATOM      3  O   UNL     1     112.537 126.987 141.283  0.00  0.00    +0.000 OA
ATOM      4  O   UNL     1     113.296 128.393 141.693  0.00  0.00    +0.000 OA
ATOM      5  C   UNL     1     112.846 127.633 138.478  0.00  0.00    +0.000 A 
ATOM      6  C   UNL     1     112.451 126.901 138.257  0.00  0.00    +0.000 A 
ATOM      7  C   UNL     1     112.958 127.820 139.309  0.00  0.00    +0.000 A 
ATOM      8  C   UNL     1     112.174 126.368 138.871  0.00  0.00    +0.000 A 
ATOM      9  C   UNL     1     112.691 127.308 139.898  0.00  0.00    +0.000 A 
ATOM     10  C   UNL     1     112.294 126.573 139.697  0.00  0.00    +0.000 A 
ATOM     11  C   UNL     1     112.803 127.499 140.692  0.00  0.00    +0.000 A 
ATOM     12  C   UNL     1     113.450 128.715 140.309  0.00  0.00    +0.000 A 
ATOM     13  C   UNL     1     113.183 128.202 140.898  0.00  0.00    +0.000 A 
ENDROOT
BRANCH  12  15
ATOM     14  O   UNL     1     114.968 131.527 141.131  0.00  0.00    +0.000 OA
ATOM     15  C   UNL     1     113.829 129.418 140.514  0.00  0.00    +0.000 A 
ATOM     16  C   UNL     1     113.386 130.069 140.760  0.00  0.00    +0.000 A 
ATOM     17  C   UNL     1     114.652 129.469 140.474  0.00  0.00    +0.000 A 
ATOM     18  C   UNL     1     113.766 130.771 140.966  0.00  0.00    +0.000 A 
ATOM     19  C   UNL     1     115.031 130.172 140.679  0.00  0.00    +0.000 A 
ATOM     20  C   UNL     1     114.589 130.824 140.925  0.00  0.00    +0.000 A 
ENDBRANCH  12  15
BRANCH   6  21
ATOM     21  O   UNL     1     112.340 126.713 137.462  0.00  0.00    +0.000 OA
BRANCH  21  30
ATOM     22  O   UNL     1     113.208 125.585 137.334  0.00  0.00    +0.000 OA
ATOM     23  O   UNL     1     111.432 124.354 136.128  0.00  0.00    +0.000 OA
ATOM     24  O   UNL     1     112.892 123.637 136.402  0.00  0.00    +0.000 OA
ATOM     25  O   UNL     1     111.156 125.892 136.658  0.00  0.00    +0.000 OA
ATOM     26  C   UNL     1     112.024 124.764 136.530  0.00  0.00    +0.000 C 
ATOM     27  C   UNL     1     112.754 124.406 136.667  0.00  0.00    +0.000 C 
ATOM     28  C   UNL     1     111.886 125.534 136.795  0.00  0.00    +0.000 C 
ATOM     29  C   UNL     1     113.346 124.817 137.069  0.00  0.00    +0.000 C 
ATOM     30  C   UNL     1     112.478 125.944 137.197  0.00  0.00    +0.000 C 
BRANCH  29  32
ATOM     31  O   UNL     1     114.767 124.909 137.196  0.00  0.00    +0.000 OA
ATOM     32  C   UNL     1     114.076 124.458 137.206  0.00  0.00    +0.000 C 
ENDBRANCH  29  32
ENDBRANCH  21  30
ENDBRANCH   6  21
BRANCH   5  33
ATOM     33  C   UNL     1     113.116 128.150 137.895  0.00  0.00    +0.000 C 
BRANCH  33  34
ATOM     34  C   UNL     1     112.584 128.641 137.500  0.00  0.00    +0.000 C 
BRANCH  34  36
ATOM     35  O   UNL     1     113.140 129.870 136.551  0.00  0.00    +0.000 OA
ATOM     36  C   UNL     1     112.862 129.255 137.026  0.00  0.00    +0.000 C 
ATOM     37  C   UNL     1     113.547 128.824 136.868  0.00  0.00    +0.000 C 
ATOM     38  C   UNL     1     112.176 129.688 137.183  0.00  0.00    +0.000 C 
ENDBRANCH  34  36
ENDBRANCH  33  34
ENDBRANCH   5  33
TORSDOF 7
ENDMDL
MODEL 5
REMARK VINA RESULT:      -8.9      3.428      6.771
REMARK  Name = 5318156
REMARK  7 active torsions:
REMARK  status: ('A' for Active; 'I' for Inactive)
REMARK    1  A    between atoms: O_2  and  C_17
REMARK    2  A    between atoms: O_2  and  C_20
REMARK    3  A    between atoms: C_16  and  C_18
REMARK    4  A    between atoms: C_19  and  C_21
REMARK    5  A    between atoms: C_21  and  C_22
REMARK    6  A    between atoms: C_22  and  C_23
REMARK    7  A    between atoms: C_31  and  C_33
REMARK                            x       y       z     vdW  Elec       q    Type
REMARK                         _______ _______ _______ _____ _____    ______ ____
ROOT
ATOM      1  O   UNL     1     113.370 128.741 139.420  0.00  0.00    +0.000 OA
ATOM      2  O   UNL     1     112.666 128.422 136.637  0.00  0.00    +0.000 OA
ATOM      3  O   UNL     1     113.153 129.682 137.141  0.00  0.00    +0.000 OA
ATOM      4  O   UNL     1     113.705 130.628 138.375  0.00  0.00    +0.000 OA
ATOM      5  C   UNL     1     112.885 127.451 138.965  0.00  0.00    +0.000 A 
ATOM      6  C   UNL     1     112.597 126.952 138.326  0.00  0.00    +0.000 A 
ATOM      7  C   UNL     1     113.094 128.268 138.803  0.00  0.00    +0.000 A 
ATOM      8  C   UNL     1     112.521 127.280 137.535  0.00  0.00    +0.000 A 
ATOM      9  C   UNL     1     113.021 128.581 138.044  0.00  0.00    +0.000 A 
ATOM     10  C   UNL     1     112.735 128.099 137.393  0.00  0.00    +0.000 A 
ATOM     11  C   UNL     1     113.225 129.368 137.901  0.00  0.00    +0.000 A 
ATOM     12  C   UNL     1     113.574 129.528 139.277  0.00  0.00    +0.000 A 
ATOM     13  C   UNL     1     113.501 129.841 138.518  0.00  0.00    +0.000 A 
ENDROOT
BRANCH  12  15
ATOM     14  O   UNL     1     114.678 131.421 141.745  0.00  0.00    +0.000 OA
ATOM     15  C   UNL     1     113.850 130.001 139.894  0.00  0.00    +0.000 A 
ATOM     16  C   UNL     1     114.661 130.117 139.994  0.00  0.00    +0.000 A 
ATOM     17  C   UNL     1     113.315 130.358 140.411  0.00  0.00    +0.000 A 
ATOM     18  C   UNL     1     114.936 130.590 140.611  0.00  0.00    +0.000 A 
ATOM     19  C   UNL     1     113.591 130.831 141.028  0.00  0.00    +0.000 A 
ATOM     20  C   UNL     1     114.402 130.947 141.128  0.00  0.00    +0.000 A 
ENDBRANCH  12  15
BRANCH   6  21
ATOM     21  O   UNL     1     112.394 126.166 138.472  0.00  0.00    +0.000 OA
BRANCH  21  30
ATOM     22  O   UNL     1     113.424 125.490 137.748  0.00  0.00    +0.000 OA
ATOM     23  O   UNL     1     111.735 123.975 136.760  0.00  0.00    +0.000 OA
ATOM     24  O   UNL     1     113.327 123.804 136.366  0.00  0.00    +0.000 OA
ATOM     25  O   UNL     1     111.268 125.156 137.813  0.00  0.00    +0.000 OA
ATOM     26  C   UNL     1     112.298 124.480 137.089  0.00  0.00    +0.000 C 
ATOM     27  C   UNL     1     113.094 124.395 136.893  0.00  0.00    +0.000 C 
ATOM     28  C   UNL     1     112.064 125.071 137.616  0.00  0.00    +0.000 C 
ATOM     29  C   UNL     1     113.657 124.900 137.222  0.00  0.00    +0.000 C 
ATOM     30  C   UNL     1     112.627 125.576 137.946  0.00  0.00    +0.000 C 
BRANCH  29  32
ATOM     31  O   UNL     1     115.034 124.898 137.605  0.00  0.00    +0.000 OA
ATOM     32  C   UNL     1     114.453 124.814 137.025  0.00  0.00    +0.000 C 
ENDBRANCH  29  32
ENDBRANCH  21  30
ENDBRANCH   6  21
BRANCH   5  33
ATOM     33  C   UNL     1     112.961 127.145 139.727  0.00  0.00    +0.000 C 
BRANCH  33  34
ATOM     34  C   UNL     1     112.330 127.195 140.257  0.00  0.00    +0.000 C 
BRANCH  34  36
ATOM     35  O   UNL     1     112.395 126.395 141.698  0.00  0.00    +0.000 OA
ATOM     36  C   UNL     1     112.363 126.795 140.977  0.00  0.00    +0.000 C 
ATOM     37  C   UNL     1     113.184 126.747 140.913  0.00  0.00    +0.000 C 
ATOM     38  C   UNL     1     111.541 126.843 141.041  0.00  0.00    +0.000 C 
ENDBRANCH  34  36
ENDBRANCH  33  34
ENDBRANCH   5  33
TORSDOF 7
ENDMDL
MODEL 6
REMARK VINA RESULT:      -8.9      1.328      4.985
REMARK  Name = 5318156
REMARK  7 active torsions:
REMARK  status: ('A' for Active; 'I' for Inactive)
REMARK    1  A    between atoms: O_2  and  C_17
REMARK    2  A    between atoms: O_2  and  C_20
REMARK    3  A    between atoms: C_16  and  C_18
REMARK    4  A    between atoms: C_19  and  C_21
REMARK    5  A    between atoms: C_21  and  C_22
REMARK    6  A    between atoms: C_22  and  C_23
REMARK    7  A    between atoms: C_31  and  C_33
REMARK                            x       y       z     vdW  Elec       q    Type
REMARK                         _______ _______ _______ _____ _____    ______ ____
ROOT
ATOM      1  O   UNL     1     110.081 129.399 135.971  0.00  0.00    +0.000 OA
ATOM      2  O   UNL     1     108.444 127.028 135.761  0.00  0.00    +0.000 OA
ATOM      3  O   UNL     1     107.853 128.343 135.751  0.00  0.00    +0.000 OA
ATOM      4  O   UNL     1     107.985 129.987 135.813  0.00  0.00    +0.000 OA
ATOM      5  C   UNL     1     110.728 128.099 135.986  0.00  0.00    +0.000 A 
ATOM      6  C   UNL     1     110.666 127.242 135.954  0.00  0.00    +0.000 A 
ATOM      7  C   UNL     1     110.015 128.578 135.940  0.00  0.00    +0.000 A 
ATOM      8  C   UNL     1     109.892 126.876 135.878  0.00  0.00    +0.000 A 
ATOM      9  C   UNL     1     109.273 128.225 135.867  0.00  0.00    +0.000 A 
ATOM     10  C   UNL     1     109.191 127.371 135.834  0.00  0.00    +0.000 A 
ATOM     11  C   UNL     1     108.596 128.695 135.825  0.00  0.00    +0.000 A 
ATOM     12  C   UNL     1     109.404 129.869 135.929  0.00  0.00    +0.000 A 
ATOM     13  C   UNL     1     108.662 129.517 135.855  0.00  0.00    +0.000 A 
ENDROOT
BRANCH  12  15
ATOM     14  O   UNL     1     109.666 133.156 136.051  0.00  0.00    +0.000 OA
ATOM     15  C   UNL     1     109.469 130.691 135.960  0.00  0.00    +0.000 A 
ATOM     16  C   UNL     1     109.570 131.070 136.685  0.00  0.00    +0.000 A 
ATOM     17  C   UNL     1     109.434 131.134 135.264  0.00  0.00    +0.000 A 
ATOM     18  C   UNL     1     109.636 131.891 136.715  0.00  0.00    +0.000 A 
ATOM     19  C   UNL     1     109.499 131.955 135.294  0.00  0.00    +0.000 A 
ATOM     20  C   UNL     1     109.600 132.334 136.020  0.00  0.00    +0.000 A 
ENDBRANCH  12  15
BRANCH   6  21
ATOM     21  O   UNL     1     111.345 126.775 135.997  0.00  0.00    +0.000 OA
BRANCH  21  30
ATOM     22  O   UNL     1     111.216 126.220 137.307  0.00  0.00    +0.000 OA
ATOM     23  O   UNL     1     111.726 123.972 136.405  0.00  0.00    +0.000 OA
ATOM     24  O   UNL     1     111.427 124.166 138.015  0.00  0.00    +0.000 OA
ATOM     25  O   UNL     1     111.685 125.277 135.395  0.00  0.00    +0.000 OA
ATOM     26  C   UNL     1     111.556 124.721 136.705  0.00  0.00    +0.000 C 
ATOM     27  C   UNL     1     111.406 124.819 137.511  0.00  0.00    +0.000 C 
ATOM     28  C   UNL     1     111.535 125.374 136.200  0.00  0.00    +0.000 C 
ATOM     29  C   UNL     1     111.236 125.568 137.811  0.00  0.00    +0.000 C 
ATOM     30  C   UNL     1     111.365 126.123 136.501  0.00  0.00    +0.000 C 
BRANCH  29  32
ATOM     31  O   UNL     1     111.448 126.278 139.033  0.00  0.00    +0.000 OA
ATOM     32  C   UNL     1     111.087 125.665 138.616  0.00  0.00    +0.000 C 
ENDBRANCH  29  32
ENDBRANCH  21  30
ENDBRANCH   6  21
BRANCH   5  33
ATOM     33  C   UNL     1     111.466 128.459 136.059  0.00  0.00    +0.000 C 
BRANCH  33  34
ATOM     34  C   UNL     1     111.970 128.505 135.407  0.00  0.00    +0.000 C 
BRANCH  34  36
ATOM     35  O   UNL     1     113.279 129.508 135.443  0.00  0.00    +0.000 OA
ATOM     36  C   UNL     1     112.624 129.007 135.425  0.00  0.00    +0.000 C 
ATOM     37  C   UNL     1     112.696 128.883 136.238  0.00  0.00    +0.000 C 
ATOM     38  C   UNL     1     112.552 129.130 134.612  0.00  0.00    +0.000 C 
ENDBRANCH  34  36
ENDBRANCH  33  34
ENDBRANCH   5  33
TORSDOF 7
ENDMDL
MODEL 7
REMARK VINA RESULT:      -8.9      1.412      2.003
REMARK  Name = 5318156
REMARK  7 active torsions:
REMARK  status: ('A' for Active; 'I' for Inactive)
REMARK    1  A    between atoms: O_2  and  C_17
REMARK    2  A    between atoms: O_2  and  C_20
REMARK    3  A    between atoms: C_16  and  C_18
REMARK    4  A    between atoms: C_19  and  C_21
REMARK    5  A    between atoms: C_21  and  C_22
REMARK    6  A    between atoms: C_22  and  C_23
REMARK    7  A    between atoms: C_31  and  C_33
REMARK                            x       y       z     vdW  Elec       q    Type
REMARK                         _______ _______ _______ _____ _____    ______ ____
ROOT
ATOM      1  O   UNL     1     111.110 127.410 136.815  0.00  0.00    +0.000 OA
ATOM      2  O   UNL     1     109.305 128.953 138.461  0.00  0.00    +0.000 OA
ATOM      3  O   UNL     1     109.327 127.512 138.529  0.00  0.00    +0.000 OA
ATOM      4  O   UNL     1     109.923 126.052 138.045  0.00  0.00    +0.000 OA
ATOM      5  C   UNL     1     111.129 128.858 136.707  0.00  0.00    +0.000 A 
ATOM      6  C   UNL     1     110.822 129.622 136.955  0.00  0.00    +0.000 A 
ATOM      7  C   UNL     1     110.812 128.140 137.057  0.00  0.00    +0.000 A 
ATOM      8  C   UNL     1     110.204 129.657 137.550  0.00  0.00    +0.000 A 
ATOM      9  C   UNL     1     110.218 128.175 137.628  0.00  0.00    +0.000 A 
ATOM     10  C   UNL     1     109.899 128.929 137.889  0.00  0.00    +0.000 A 
ATOM     11  C   UNL     1     109.922 127.479 137.957  0.00  0.00    +0.000 A 
ATOM     12  C   UNL     1     110.813 126.714 137.144  0.00  0.00    +0.000 A 
ATOM     13  C   UNL     1     110.219 126.748 137.715  0.00  0.00    +0.000 A 
ENDROOT
BRANCH  12  15
ATOM     14  O   UNL     1     112.004 123.793 136.175  0.00  0.00    +0.000 OA
ATOM     15  C   UNL     1     111.111 125.984 136.902  0.00  0.00    +0.000 A 
ATOM     16  C   UNL     1     111.687 125.603 137.353  0.00  0.00    +0.000 A 
ATOM     17  C   UNL     1     110.832 125.635 136.208  0.00  0.00    +0.000 A 
ATOM     18  C   UNL     1     111.984 124.873 137.111  0.00  0.00    +0.000 A 
ATOM     19  C   UNL     1     111.130 124.904 135.966  0.00  0.00    +0.000 A 
ATOM     20  C   UNL     1     111.706 124.523 136.417  0.00  0.00    +0.000 A 
ENDBRANCH  12  15
BRANCH   6  21
ATOM     21  O   UNL     1     111.121 130.317 136.624  0.00  0.00    +0.000 OA
BRANCH  21  30
ATOM     22  O   UNL     1     109.974 130.803 135.923  0.00  0.00    +0.000 OA
ATOM     23  O   UNL     1     110.344 133.055 136.879  0.00  0.00    +0.000 OA
ATOM     24  O   UNL     1     109.076 132.790 135.859  0.00  0.00    +0.000 OA
ATOM     25  O   UNL     1     111.367 131.818 137.262  0.00  0.00    +0.000 OA
ATOM     26  C   UNL     1     110.221 132.305 136.560  0.00  0.00    +0.000 C 
ATOM     27  C   UNL     1     109.587 132.172 136.050  0.00  0.00    +0.000 C 
ATOM     28  C   UNL     1     110.733 131.685 136.752  0.00  0.00    +0.000 C 
ATOM     29  C   UNL     1     109.463 131.421 135.731  0.00  0.00    +0.000 C 
ATOM     30  C   UNL     1     110.610 130.935 136.433  0.00  0.00    +0.000 C 
BRANCH  29  32
ATOM     31  O   UNL     1     108.895 130.733 134.615  0.00  0.00    +0.000 OA
ATOM     32  C   UNL     1     108.829 131.289 135.222  0.00  0.00    +0.000 C 
ENDBRANCH  29  32
ENDBRANCH  21  30
ENDBRANCH   6  21
BRANCH   5  33
ATOM     33  C   UNL     1     111.723 128.815 136.136  0.00  0.00    +0.000 C 
BRANCH  33  34
ATOM     34  C   UNL     1     112.505 128.980 136.340  0.00  0.00    +0.000 C 
BRANCH  34  36
ATOM     35  O   UNL     1     113.722 128.661 135.274  0.00  0.00    +0.000 OA
ATOM     36  C   UNL     1     113.113 128.821 135.807  0.00  0.00    +0.000 C 
ATOM     37  C   UNL     1     113.647 128.761 136.434  0.00  0.00    +0.000 C 
ATOM     38  C   UNL     1     112.580 128.881 135.180  0.00  0.00    +0.000 C 
ENDBRANCH  34  36
ENDBRANCH  33  34
ENDBRANCH   5  33
TORSDOF 7
ENDMDL
MODEL 8
REMARK VINA RESULT:      -8.9      1.986      5.706
REMARK  Name = 5318156
REMARK  7 active torsions:
REMARK  status: ('A' for Active; 'I' for Inactive)
REMARK    1  A    between atoms: O_2  and  C_17
REMARK    2  A    between atoms: O_2  and  C_20
REMARK    3  A    between atoms: C_16  and  C_18
REMARK    4  A    between atoms: C_19  and  C_21
REMARK    5  A    between atoms: C_21  and  C_22
REMARK    6  A    between atoms: C_22  and  C_23
REMARK    7  A    between atoms: C_31  and  C_33
REMARK                            x       y       z     vdW  Elec       q    Type
REMARK                         _______ _______ _______ _____ _____    ______ ____
ROOT
ATOM      1  O   UNL     1     111.874 129.445 137.181  0.00  0.00    +0.000 OA
ATOM      2  O   UNL     1     111.929 127.438 139.259  0.00  0.00    +0.000 OA
ATOM      3  O   UNL     1     111.244 128.692 139.453  0.00  0.00    +0.000 OA
ATOM      4  O   UNL     1     110.768 130.177 138.914  0.00  0.00    +0.000 OA
ATOM      5  C   UNL     1     112.579 128.200 136.933  0.00  0.00    +0.000 A 
ATOM      6  C   UNL     1     112.830 127.425 137.208  0.00  0.00    +0.000 A 
ATOM      7  C   UNL     1     112.113 128.703 137.450  0.00  0.00    +0.000 A 
ATOM      8  C   UNL     1     112.611 127.164 137.996  0.00  0.00    +0.000 A 
ATOM      9  C   UNL     1     111.903 128.451 138.208  0.00  0.00    +0.000 A 
ATOM     10  C   UNL     1     112.144 127.681 138.500  0.00  0.00    +0.000 A 
ATOM     11  C   UNL     1     111.454 128.943 138.696  0.00  0.00    +0.000 A 
ATOM     12  C   UNL     1     111.426 129.937 137.669  0.00  0.00    +0.000 A 
ATOM     13  C   UNL     1     111.216 129.685 138.426  0.00  0.00    +0.000 A 
ENDROOT
BRANCH  12  15
ATOM     14  O   UNL     1     110.472 132.906 136.592  0.00  0.00    +0.000 OA
ATOM     15  C   UNL     1     111.188 130.679 137.400  0.00  0.00    +0.000 A 
ATOM     16  C   UNL     1     111.653 131.343 137.553  0.00  0.00    +0.000 A 
ATOM     17  C   UNL     1     110.483 130.758 136.977  0.00  0.00    +0.000 A 
ATOM     18  C   UNL     1     111.414 132.084 137.284  0.00  0.00    +0.000 A 
ATOM     19  C   UNL     1     110.245 131.500 136.708  0.00  0.00    +0.000 A 
ATOM     20  C   UNL     1     110.710 132.164 136.861  0.00  0.00    +0.000 A 
ENDBRANCH  12  15
BRANCH   6  21
ATOM     21  O   UNL     1     113.279 126.936 136.718  0.00  0.00    +0.000 OA
BRANCH  21  30
ATOM     22  O   UNL     1     112.378 125.849 136.492  0.00  0.00    +0.000 OA
ATOM     23  O   UNL     1     114.180 124.243 137.039  0.00  0.00    +0.000 OA
ATOM     24  O   UNL     1     112.680 123.692 136.631  0.00  0.00    +0.000 OA
ATOM     25  O   UNL     1     114.480 125.865 137.082  0.00  0.00    +0.000 OA
ATOM     26  C   UNL     1     113.580 124.778 136.857  0.00  0.00    +0.000 C 
ATOM     27  C   UNL     1     112.829 124.503 136.653  0.00  0.00    +0.000 C 
ATOM     28  C   UNL     1     113.729 125.590 136.878  0.00  0.00    +0.000 C 
ATOM     29  C   UNL     1     112.228 125.039 136.471  0.00  0.00    +0.000 C 
ATOM     30  C   UNL     1     113.129 126.125 136.696  0.00  0.00    +0.000 C 
BRANCH  29  32
ATOM     31  O   UNL     1     111.070 125.105 135.637  0.00  0.00    +0.000 OA
ATOM     32  C   UNL     1     111.479 124.763 136.267  0.00  0.00    +0.000 C 
ENDBRANCH  29  32
ENDBRANCH  21  30
ENDBRANCH   6  21
BRANCH   5  33
ATOM     33  C   UNL     1     112.785 128.459 136.178  0.00  0.00    +0.000 C 
BRANCH  33  34
ATOM     34  C   UNL     1     113.542 128.753 136.033  0.00  0.00    +0.000 C 
BRANCH  34  36
ATOM     35  O   UNL     1     113.872 129.524 134.613  0.00  0.00    +0.000 OA
ATOM     36  C   UNL     1     113.707 129.138 135.323  0.00  0.00    +0.000 C 
ATOM     37  C   UNL     1     113.053 128.775 134.974  0.00  0.00    +0.000 C 
ATOM     38  C   UNL     1     114.361 129.502 135.672  0.00  0.00    +0.000 C 
ENDBRANCH  34  36
ENDBRANCH  33  34
ENDBRANCH   5  33
TORSDOF 7
ENDMDL
MODEL 9
REMARK VINA RESULT:      -8.8      3.438      4.706
REMARK  Name = 5318156
REMARK  7 active torsions:
REMARK  status: ('A' for Active; 'I' for Inactive)
REMARK    1  A    between atoms: O_2  and  C_17
REMARK    2  A    between atoms: O_2  and  C_20
REMARK    3  A    between atoms: C_16  and  C_18
REMARK    4  A    between atoms: C_19  and  C_21
REMARK    5  A    between atoms: C_21  and  C_22
REMARK    6  A    between atoms: C_22  and  C_23
REMARK    7  A    between atoms: C_31  and  C_33
REMARK                            x       y       z     vdW  Elec       q    Type
REMARK                         _______ _______ _______ _____ _____    ______ ____
ROOT
ATOM      1  O   UNL     1     112.985 127.246 138.251  0.00  0.00    +0.000 OA
ATOM      2  O   UNL     1     112.944 130.064 137.619  0.00  0.00    +0.000 OA
ATOM      3  O   UNL     1     113.063 129.071 136.580  0.00  0.00    +0.000 OA
ATOM      4  O   UNL     1     113.157 127.498 136.090  0.00  0.00    +0.000 OA
ATOM      5  C   UNL     1     112.863 128.204 139.335  0.00  0.00    +0.000 A 
ATOM      6  C   UNL     1     112.814 129.022 139.597  0.00  0.00    +0.000 A 
ATOM      7  C   UNL     1     112.938 128.032 138.497  0.00  0.00    +0.000 A 
ATOM      8  C   UNL     1     112.841 129.655 139.017  0.00  0.00    +0.000 A 
ATOM      9  C   UNL     1     112.964 128.640 137.940  0.00  0.00    +0.000 A 
ATOM     10  C   UNL     1     112.917 129.463 138.183  0.00  0.00    +0.000 A 
ATOM     11  C   UNL     1     113.037 128.462 137.138  0.00  0.00    +0.000 A 
ATOM     12  C   UNL     1     113.058 127.068 137.449  0.00  0.00    +0.000 A 
ATOM     13  C   UNL     1     113.084 127.676 136.892  0.00  0.00    +0.000 A 
ENDROOT
BRANCH  12  15
ATOM     14  O   UNL     1     113.244 123.923 136.466  0.00  0.00    +0.000 OA
ATOM     15  C   UNL     1     113.105 126.281 137.203  0.00  0.00    +0.000 A 
ATOM     16  C   UNL     1     113.833 125.894 137.195  0.00  0.00    +0.000 A 
ATOM     17  C   UNL     1     112.422 125.883 136.964  0.00  0.00    +0.000 A 
ATOM     18  C   UNL     1     113.879 125.108 136.950  0.00  0.00    +0.000 A 
ATOM     19  C   UNL     1     112.469 125.097 136.719  0.00  0.00    +0.000 A 
ATOM     20  C   UNL     1     113.197 124.709 136.711  0.00  0.00    +0.000 A 
ENDBRANCH  12  15
BRANCH   6  21
ATOM     21  O   UNL     1     112.741 129.197 140.400  0.00  0.00    +0.000 OA
BRANCH  21  30
ATOM     22  O   UNL     1     113.986 129.885 140.536  0.00  0.00    +0.000 OA
ATOM     23  O   UNL     1     112.937 131.471 142.120  0.00  0.00    +0.000 OA
ATOM     24  O   UNL     1     114.531 131.630 141.727  0.00  0.00    +0.000 OA
ATOM     25  O   UNL     1     112.042 130.254 141.456  0.00  0.00    +0.000 OA
ATOM     26  C   UNL     1     113.287 130.942 141.592  0.00  0.00    +0.000 C 
ATOM     27  C   UNL     1     114.084 131.021 141.395  0.00  0.00    +0.000 C 
ATOM     28  C   UNL     1     112.839 130.333 141.260  0.00  0.00    +0.000 C 
ATOM     29  C   UNL     1     114.433 130.493 140.867  0.00  0.00    +0.000 C 
ATOM     30  C   UNL     1     113.188 129.804 140.732  0.00  0.00    +0.000 C 
BRANCH  29  32
ATOM     31  O   UNL     1     115.710 129.904 140.609  0.00  0.00    +0.000 OA
ATOM     32  C   UNL     1     115.230 130.573 140.671  0.00  0.00    +0.000 C 
ENDBRANCH  29  32
ENDBRANCH  21  30
ENDBRANCH   6  21
BRANCH   5  33
ATOM     33  C   UNL     1     112.838 127.590 139.884  0.00  0.00    +0.000 C 
BRANCH  33  34
ATOM     34  C   UNL     1     112.113 127.332 140.183  0.00  0.00    +0.000 C 
BRANCH  34  36
ATOM     35  O   UNL     1     112.052 126.034 141.200  0.00  0.00    +0.000 OA
ATOM     36  C   UNL     1     112.083 126.684 140.691  0.00  0.00    +0.000 C 
ATOM     37  C   UNL     1     112.899 126.735 140.806  0.00  0.00    +0.000 C 
ATOM     38  C   UNL     1     111.267 126.632 140.577  0.00  0.00    +0.000 C 
ENDBRANCH  34  36
ENDBRANCH  33  34
ENDBRANCH   5  33
TORSDOF 7
ENDMDL
MODEL 10
REMARK VINA RESULT:      -8.8      2.375      3.346
REMARK  Name = 5318156
REMARK  7 active torsions:
REMARK  status: ('A' for Active; 'I' for Inactive)
REMARK    1  A    between atoms: O_2  and  C_17
REMARK    2  A    between atoms: O_2  and  C_20
REMARK    3  A    between atoms: C_16  and  C_18
REMARK    4  A    between atoms: C_19  and  C_21
REMARK    5  A    between atoms: C_21  and  C_22
REMARK    6  A    between atoms: C_22  and  C_23
REMARK    7  A    between atoms: C_31  and  C_33
REMARK                            x       y       z     vdW  Elec       q    Type
REMARK                         _______ _______ _______ _____ _____    ______ ____
ROOT
ATOM      1  O   UNL     1     112.823 127.370 137.561  0.00  0.00    +0.000 OA
ATOM      2  O   UNL     1     112.887 128.856 140.037  0.00  0.00    +0.000 OA
ATOM      3  O   UNL     1     113.407 127.513 139.962  0.00  0.00    +0.000 OA
ATOM      4  O   UNL     1     113.734 126.136 139.114  0.00  0.00    +0.000 OA
ATOM      5  C   UNL     1     112.286 128.720 137.582  0.00  0.00    +0.000 A 
ATOM      6  C   UNL     1     112.113 129.440 138.018  0.00  0.00    +0.000 A 
ATOM      7  C   UNL     1     112.659 128.059 137.985  0.00  0.00    +0.000 A 
ATOM      8  C   UNL     1     112.316 129.489 138.851  0.00  0.00    +0.000 A 
ATOM      9  C   UNL     1     112.854 128.107 138.785  0.00  0.00    +0.000 A 
ATOM     10  C   UNL     1     112.689 128.818 139.237  0.00  0.00    +0.000 A 
ATOM     11  C   UNL     1     113.212 127.466 139.161  0.00  0.00    +0.000 A 
ATOM     12  C   UNL     1     113.181 126.729 137.937  0.00  0.00    +0.000 A 
ATOM     13  C   UNL     1     113.375 126.777 138.737  0.00  0.00    +0.000 A 
ENDROOT
BRANCH  12  15
ATOM     14  O   UNL     1     113.835 123.975 136.242  0.00  0.00    +0.000 OA
ATOM     15  C   UNL     1     113.344 126.041 137.513  0.00  0.00    +0.000 A 
ATOM     16  C   UNL     1     112.764 125.460 137.430  0.00  0.00    +0.000 A 
ATOM     17  C   UNL     1     114.088 125.934 137.172  0.00  0.00    +0.000 A 
ATOM     18  C   UNL     1     112.928 124.772 137.007  0.00  0.00    +0.000 A 
ATOM     19  C   UNL     1     114.252 125.245 136.748  0.00  0.00    +0.000 A 
ATOM     20  C   UNL     1     113.672 124.664 136.666  0.00  0.00    +0.000 A 
ENDBRANCH  12  15
BRANCH   6  21
ATOM     21  O   UNL     1     111.755 130.079 137.639  0.00  0.00    +0.000 OA
BRANCH  21  30
ATOM     22  O   UNL     1     110.502 130.058 138.326  0.00  0.00    +0.000 OA
ATOM     23  O   UNL     1     110.535 132.529 138.462  0.00  0.00    +0.000 OA
ATOM     24  O   UNL     1     109.272 131.685 139.103  0.00  0.00    +0.000 OA
ATOM     25  O   UNL     1     111.777 131.727 137.730  0.00  0.00    +0.000 OA
ATOM     26  C   UNL     1     110.524 131.706 138.417  0.00  0.00    +0.000 C 
ATOM     27  C   UNL     1     109.893 131.283 138.737  0.00  0.00    +0.000 C 
ATOM     28  C   UNL     1     111.145 131.304 138.050  0.00  0.00    +0.000 C 
ATOM     29  C   UNL     1     109.881 130.459 138.692  0.00  0.00    +0.000 C 
ATOM     30  C   UNL     1     111.134 130.480 138.005  0.00  0.00    +0.000 C 
BRANCH  29  32
ATOM     31  O   UNL     1     108.916 129.410 138.593  0.00  0.00    +0.000 OA
ATOM     32  C   UNL     1     109.250 130.037 139.012  0.00  0.00    +0.000 C 
ENDBRANCH  29  32
ENDBRANCH  21  30
ENDBRANCH   6  21
BRANCH   5  33
ATOM     33  C   UNL     1     112.095 128.663 136.782  0.00  0.00    +0.000 C 
BRANCH  33  34
ATOM     34  C   UNL     1     112.571 129.030 136.216  0.00  0.00    +0.000 C 
BRANCH  34  36
ATOM     35  O   UNL     1     112.328 128.730 134.612  0.00  0.00    +0.000 OA
ATOM     36  C   UNL     1     112.450 128.880 135.414  0.00  0.00    +0.000 C 
ATOM     37  C   UNL     1     113.228 129.103 135.255  0.00  0.00    +0.000 C 
ATOM     38  C   UNL     1     111.670 128.657 135.573  0.00  0.00    +0.000 C 
ENDBRANCH  34  36
ENDBRANCH  33  34
ENDBRANCH   5  33
TORSDOF 7
ENDMDL
