MODEL 1
REMARK VINA RESULT:      -8.7      0.000      0.000
REMARK  Name = 44260059
REMARK  7 active torsions:
REMARK  status: ('A' for Active; 'I' for Inactive)
REMARK    1  A    between atoms: O_2  and  C_19
REMARK    2  A    between atoms: O_2  and  C_21
REMARK    3  A    between atoms: O_9  and  C_28
REMARK    4  A    between atoms: O_11  and  C_29
REMARK    5  A    between atoms: O_13  and  C_33
REMARK    6  A    between atoms: C_18  and  C_20
REMARK    7  A    between atoms: C_22  and  C_26
REMARK                            x       y       z     vdW  Elec       q    Type
REMARK                         _______ _______ _______ _____ _____    ______ ____
ROOT
ATOM      1  O   UNL     1     112.635 127.429 136.497  0.00  0.00    +0.000 OA
ATOM      2  O   UNL     1     112.847 128.449 138.743  0.00  0.00    +0.000 OA
ATOM      3  O   UNL     1     112.291 129.691 138.263  0.00  0.00    +0.000 OA
ATOM      4  O   UNL     1     111.506 129.905 135.458  0.00  0.00    +0.000 OA
ATOM      5  C   UNL     1     113.017 127.330 137.871  0.00  0.00    +0.000 A 
ATOM      6  C   UNL     1     112.947 126.990 137.122  0.00  0.00    +0.000 A 
ATOM      7  C   UNL     1     112.776 128.109 137.994  0.00  0.00    +0.000 A 
ATOM      8  C   UNL     1     112.464 128.549 137.369  0.00  0.00    +0.000 A 
ATOM      9  C   UNL     1     112.394 128.209 136.622  0.00  0.00    +0.000 A 
ATOM     10  C   UNL     1     112.216 129.359 137.511  0.00  0.00    +0.000 A 
ATOM     11  C   UNL     1     112.071 128.655 135.962  0.00  0.00    +0.000 A 
ATOM     12  C   UNL     1     111.891 129.821 136.864  0.00  0.00    +0.000 A 
ATOM     13  C   UNL     1     111.817 129.468 136.085  0.00  0.00    +0.000 A 
ENDROOT
BRANCH   6  15
ATOM     14  O   UNL     1     113.910 123.872 136.630  0.00  0.00    +0.000 OA
ATOM     15  C   UNL     1     113.188 126.211 136.999  0.00  0.00    +0.000 A 
ATOM     16  C   UNL     1     112.625 125.614 136.909  0.00  0.00    +0.000 A 
ATOM     17  C   UNL     1     113.992 126.028 136.966  0.00  0.00    +0.000 A 
ATOM     18  C   UNL     1     112.866 124.835 136.786  0.00  0.00    +0.000 A 
ATOM     19  C   UNL     1     114.232 125.248 136.843  0.00  0.00    +0.000 A 
ATOM     20  C   UNL     1     113.670 124.652 136.753  0.00  0.00    +0.000 A 
BRANCH  18  21
ATOM     21  O   UNL     1     112.302 124.239 136.695  0.00  0.00    +0.000 OA
ATOM     22  C   UNL     1     111.584 124.402 136.323  0.00  0.00    +0.000 C 
ENDBRANCH  18  21
ENDBRANCH   6  15
BRANCH  11  23
ATOM     23  O   UNL     1     112.003 128.308 135.217  0.00  0.00    +0.000 OA
ATOM     24  C   UNL     1     111.270 128.279 134.840  0.00  0.00    +0.000 C 
ENDBRANCH  11  23
BRANCH  12  25
ATOM     25  O   UNL     1     111.651 130.600 136.991  0.00  0.00    +0.000 OA
ATOM     26  C   UNL     1     112.192 131.218 136.915  0.00  0.00    +0.000 C 
ENDBRANCH  12  25
BRANCH   5  27
ATOM     27  O   UNL     1     113.329 126.891 138.496  0.00  0.00    +0.000 OA
BRANCH  27  36
ATOM     28  O   UNL     1     112.076 126.639 139.134  0.00  0.00    +0.000 OA
ATOM     29  O   UNL     1     113.184 126.733 141.346  0.00  0.00    +0.000 OA
ATOM     30  O   UNL     1     111.562 126.450 141.247  0.00  0.00    +0.000 OA
ATOM     31  O   UNL     1     114.068 126.953 139.970  0.00  0.00    +0.000 OA
ATOM     32  C   UNL     1     112.815 126.702 140.609  0.00  0.00    +0.000 C 
ATOM     33  C   UNL     1     112.003 126.560 140.559  0.00  0.00    +0.000 C 
ATOM     34  C   UNL     1     113.257 126.812 139.920  0.00  0.00    +0.000 C 
ATOM     35  C   UNL     1     111.634 126.529 139.822  0.00  0.00    +0.000 C 
ATOM     36  C   UNL     1     112.887 126.781 139.183  0.00  0.00    +0.000 C 
BRANCH  35  38
ATOM     37  O   UNL     1     110.545 125.689 139.434  0.00  0.00    +0.000 OA
ATOM     38  C   UNL     1     110.823 126.388 139.773  0.00  0.00    +0.000 C 
ENDBRANCH  35  38
ENDBRANCH  27  36
ENDBRANCH   5  27
TORSDOF 7
ENDMDL
MODEL 2
REMARK VINA RESULT:      -8.7      0.869      1.685
REMARK  Name = 44260059
REMARK  7 active torsions:
REMARK  status: ('A' for Active; 'I' for Inactive)
REMARK    1  A    between atoms: O_2  and  C_19
REMARK    2  A    between atoms: O_2  and  C_21
REMARK    3  A    between atoms: O_9  and  C_28
REMARK    4  A    between atoms: O_11  and  C_29
REMARK    5  A    between atoms: O_13  and  C_33
REMARK    6  A    between atoms: C_18  and  C_20
REMARK    7  A    between atoms: C_22  and  C_26
REMARK                            x       y       z     vdW  Elec       q    Type
REMARK                         _______ _______ _______ _____ _____    ______ ____
ROOT
ATOM      1  O   UNL     1     112.893 127.376 136.771  0.00  0.00    +0.000 OA
ATOM      2  O   UNL     1     111.748 128.221 138.797  0.00  0.00    +0.000 OA
ATOM      3  O   UNL     1     111.942 129.586 138.372  0.00  0.00    +0.000 OA
ATOM      4  O   UNL     1     113.320 130.106 135.850  0.00  0.00    +0.000 OA
ATOM      5  C   UNL     1     112.218 127.127 138.006  0.00  0.00    +0.000 A 
ATOM      6  C   UNL     1     112.600 126.846 137.330  0.00  0.00    +0.000 A 
ATOM      7  C   UNL     1     112.130 127.939 138.121  0.00  0.00    +0.000 A 
ATOM      8  C   UNL     1     112.423 128.470 137.562  0.00  0.00    +0.000 A 
ATOM      9  C   UNL     1     112.804 128.188 136.887  0.00  0.00    +0.000 A 
ATOM     10  C   UNL     1     112.325 129.313 137.694  0.00  0.00    +0.000 A 
ATOM     11  C   UNL     1     113.114 128.730 136.297  0.00  0.00    +0.000 A 
ATOM     12  C   UNL     1     112.628 129.870 137.115  0.00  0.00    +0.000 A 
ATOM     13  C   UNL     1     113.026 129.578 136.411  0.00  0.00    +0.000 A 
ENDROOT
BRANCH   6  15
ATOM     14  O   UNL     1     112.954 123.597 136.870  0.00  0.00    +0.000 OA
ATOM     15  C   UNL     1     112.688 126.034 137.215  0.00  0.00    +0.000 A 
ATOM     16  C   UNL     1     113.418 125.674 137.353  0.00  0.00    +0.000 A 
ATOM     17  C   UNL     1     112.046 125.580 136.962  0.00  0.00    +0.000 A 
ATOM     18  C   UNL     1     113.506 124.862 137.238  0.00  0.00    +0.000 A 
ATOM     19  C   UNL     1     112.135 124.768 136.847  0.00  0.00    +0.000 A 
ATOM     20  C   UNL     1     112.865 124.409 136.985  0.00  0.00    +0.000 A 
BRANCH  18  21
ATOM     21  O   UNL     1     114.237 124.503 137.376  0.00  0.00    +0.000 OA
ATOM     22  C   UNL     1     114.935 124.919 137.232  0.00  0.00    +0.000 C 
ENDBRANCH  18  21
ENDBRANCH   6  15
BRANCH  11  23
ATOM     23  O   UNL     1     113.495 128.441 135.624  0.00  0.00    +0.000 OA
ATOM     24  C   UNL     1     114.260 128.689 135.444  0.00  0.00    +0.000 C 
ENDBRANCH  11  23
BRANCH  12  25
ATOM     25  O   UNL     1     112.539 130.682 137.233  0.00  0.00    +0.000 OA
ATOM     26  C   UNL     1     111.884 131.075 136.922  0.00  0.00    +0.000 C 
ENDBRANCH  12  25
BRANCH   5  27
ATOM     27  O   UNL     1     111.925 126.596 138.566  0.00  0.00    +0.000 OA
BRANCH  27  36
ATOM     28  O   UNL     1     112.944 126.891 139.523  0.00  0.00    +0.000 OA
ATOM     29  O   UNL     1     111.396 126.286 141.357  0.00  0.00    +0.000 OA
ATOM     30  O   UNL     1     112.931 126.783 141.702  0.00  0.00    +0.000 OA
ATOM     31  O   UNL     1     110.893 126.193 139.788  0.00  0.00    +0.000 OA
ATOM     32  C   UNL     1     111.912 126.488 140.746  0.00  0.00    +0.000 C 
ATOM     33  C   UNL     1     112.680 126.736 140.918  0.00  0.00    +0.000 C 
ATOM     34  C   UNL     1     111.660 126.441 139.961  0.00  0.00    +0.000 C 
ATOM     35  C   UNL     1     113.195 126.938 140.306  0.00  0.00    +0.000 C 
ATOM     36  C   UNL     1     112.176 126.643 139.349  0.00  0.00    +0.000 C 
BRANCH  35  38
ATOM     37  O   UNL     1     114.608 126.728 140.245  0.00  0.00    +0.000 OA
ATOM     38  C   UNL     1     113.962 127.186 140.479  0.00  0.00    +0.000 C 
ENDBRANCH  35  38
ENDBRANCH  27  36
ENDBRANCH   5  27
TORSDOF 7
ENDMDL
MODEL 3
REMARK VINA RESULT:      -8.7      2.041      4.756
REMARK  Name = 44260059
REMARK  7 active torsions:
REMARK  status: ('A' for Active; 'I' for Inactive)
REMARK    1  A    between atoms: O_2  and  C_19
REMARK    2  A    between atoms: O_2  and  C_21
REMARK    3  A    between atoms: O_9  and  C_28
REMARK    4  A    between atoms: O_11  and  C_29
REMARK    5  A    between atoms: O_13  and  C_33
REMARK    6  A    between atoms: C_18  and  C_20
REMARK    7  A    between atoms: C_22  and  C_26
REMARK                            x       y       z     vdW  Elec       q    Type
REMARK                         _______ _______ _______ _____ _____    ______ ____
ROOT
ATOM      1  O   UNL     1     113.269 126.918 136.655  0.00  0.00    +0.000 OA
ATOM      2  O   UNL     1     111.088 126.516 135.553  0.00  0.00    +0.000 OA
ATOM      3  O   UNL     1     111.194 125.098 135.796  0.00  0.00    +0.000 OA
ATOM      4  O   UNL     1     113.551 124.067 137.180  0.00  0.00    +0.000 OA
ATOM      5  C   UNL     1     112.113 127.417 135.977  0.00  0.00    +0.000 A 
ATOM      6  C   UNL     1     112.840 127.551 136.345  0.00  0.00    +0.000 A 
ATOM      7  C   UNL     1     111.816 126.650 135.921  0.00  0.00    +0.000 A 
ATOM      8  C   UNL     1     112.244 126.017 136.231  0.00  0.00    +0.000 A 
ATOM      9  C   UNL     1     112.970 126.151 136.598  0.00  0.00    +0.000 A 
ATOM     10  C   UNL     1     111.922 125.223 136.165  0.00  0.00    +0.000 A 
ATOM     11  C   UNL     1     113.426 125.500 136.925  0.00  0.00    +0.000 A 
ATOM     12  C   UNL     1     112.364 124.560 136.486  0.00  0.00    +0.000 A 
ATOM     13  C   UNL     1     113.121 124.699 136.869  0.00  0.00    +0.000 A 
ENDROOT
BRANCH   6  15
ATOM     14  O   UNL     1     114.031 130.621 136.574  0.00  0.00    +0.000 OA
ATOM     15  C   UNL     1     113.138 128.318 136.402  0.00  0.00    +0.000 A 
ATOM     16  C   UNL     1     113.094 128.726 137.118  0.00  0.00    +0.000 A 
ATOM     17  C   UNL     1     113.480 128.678 135.743  0.00  0.00    +0.000 A 
ATOM     18  C   UNL     1     113.392 129.493 137.175  0.00  0.00    +0.000 A 
ATOM     19  C   UNL     1     113.777 129.446 135.801  0.00  0.00    +0.000 A 
ATOM     20  C   UNL     1     113.733 129.853 136.516  0.00  0.00    +0.000 A 
BRANCH  18  21
ATOM     21  O   UNL     1     113.347 129.900 137.892  0.00  0.00    +0.000 OA
ATOM     22  C   UNL     1     113.397 129.488 138.605  0.00  0.00    +0.000 C 
ENDBRANCH  18  21
ENDBRANCH   6  15
BRANCH  11  23
ATOM     23  O   UNL     1     114.151 125.643 137.291  0.00  0.00    +0.000 OA
ATOM     24  C   UNL     1     114.829 125.252 137.029  0.00  0.00    +0.000 C 
ENDBRANCH  11  23
BRANCH  12  25
ATOM     25  O   UNL     1     112.063 123.793 136.428  0.00  0.00    +0.000 OA
ATOM     26  C   UNL     1     111.725 123.431 137.087  0.00  0.00    +0.000 C 
ENDBRANCH  12  25
BRANCH   5  27
ATOM     27  O   UNL     1     111.685 128.051 135.667  0.00  0.00    +0.000 OA
BRANCH  27  36
ATOM     28  O   UNL     1     110.712 128.052 136.713  0.00  0.00    +0.000 OA
ATOM     29  O   UNL     1     109.013 128.911 135.131  0.00  0.00    +0.000 OA
ATOM     30  O   UNL     1     108.606 128.626 136.704  0.00  0.00    +0.000 OA
ATOM     31  O   UNL     1     110.552 128.623 134.612  0.00  0.00    +0.000 OA
ATOM     32  C   UNL     1     109.579 128.625 135.659  0.00  0.00    +0.000 C 
ATOM     33  C   UNL     1     109.376 128.482 136.445  0.00  0.00    +0.000 C 
ATOM     34  C   UNL     1     110.350 128.481 135.399  0.00  0.00    +0.000 C 
ATOM     35  C   UNL     1     109.943 128.196 136.973  0.00  0.00    +0.000 C 
ATOM     36  C   UNL     1     110.916 128.194 135.926  0.00  0.00    +0.000 C 
BRANCH  35  38
ATOM     37  O   UNL     1     110.094 128.489 138.363  0.00  0.00    +0.000 OA
ATOM     38  C   UNL     1     109.739 128.054 137.759  0.00  0.00    +0.000 C 
ENDBRANCH  35  38
ENDBRANCH  27  36
ENDBRANCH   5  27
TORSDOF 7
ENDMDL
MODEL 4
REMARK VINA RESULT:      -8.6      1.837      3.640
REMARK  Name = 44260059
REMARK  7 active torsions:
REMARK  status: ('A' for Active; 'I' for Inactive)
REMARK    1  A    between atoms: O_2  and  C_19
REMARK    2  A    between atoms: O_2  and  C_21
REMARK    3  A    between atoms: O_9  and  C_28
REMARK    4  A    between atoms: O_11  and  C_29
REMARK    5  A    between atoms: O_13  and  C_33
REMARK    6  A    between atoms: C_18  and  C_20
REMARK    7  A    between atoms: C_22  and  C_26
REMARK                            x       y       z     vdW  Elec       q    Type
REMARK                         _______ _______ _______ _____ _____    ______ ____
ROOT
ATOM      1  O   UNL     1     111.508 126.773 136.778  0.00  0.00    +0.000 OA
ATOM      2  O   UNL     1     112.024 128.747 135.376  0.00  0.00    +0.000 OA
ATOM      3  O   UNL     1     110.619 129.011 135.181  0.00  0.00    +0.000 OA
ATOM      4  O   UNL     1     108.656 127.244 136.427  0.00  0.00    +0.000 OA
ATOM      5  C   UNL     1     112.465 127.641 136.166  0.00  0.00    +0.000 A 
ATOM      6  C   UNL     1     112.293 126.982 136.633  0.00  0.00    +0.000 A 
ATOM      7  C   UNL     1     111.852 128.089 135.844  0.00  0.00    +0.000 A 
ATOM      8  C   UNL     1     111.067 127.879 135.988  0.00  0.00    +0.000 A 
ATOM      9  C   UNL     1     110.896 127.222 136.455  0.00  0.00    +0.000 A 
ATOM     10  C   UNL     1     110.438 128.355 135.647  0.00  0.00    +0.000 A 
ATOM     11  C   UNL     1     110.083 126.993 136.614  0.00  0.00    +0.000 A 
ATOM     12  C   UNL     1     109.619 128.141 135.794  0.00  0.00    +0.000 A 
ATOM     13  C   UNL     1     109.440 127.456 136.281  0.00  0.00    +0.000 A 
ENDROOT
BRANCH   6  15
ATOM     14  O   UNL     1     114.746 125.191 137.923  0.00  0.00    +0.000 OA
ATOM     15  C   UNL     1     112.906 126.534 136.955  0.00  0.00    +0.000 A 
ATOM     16  C   UNL     1     113.087 126.600 137.758  0.00  0.00    +0.000 A 
ATOM     17  C   UNL     1     113.339 126.021 136.475  0.00  0.00    +0.000 A 
ATOM     18  C   UNL     1     113.700 126.152 138.080  0.00  0.00    +0.000 A 
ATOM     19  C   UNL     1     113.952 125.573 136.799  0.00  0.00    +0.000 A 
ATOM     20  C   UNL     1     114.133 125.639 137.600  0.00  0.00    +0.000 A 
BRANCH  18  21
ATOM     21  O   UNL     1     113.881 126.218 138.883  0.00  0.00    +0.000 OA
ATOM     22  C   UNL     1     113.301 126.458 139.418  0.00  0.00    +0.000 C 
ENDBRANCH  18  21
ENDBRANCH   6  15
BRANCH  11  23
ATOM     23  O   UNL     1     109.920 126.333 137.082  0.00  0.00    +0.000 OA
ATOM     24  C   UNL     1     109.498 126.421 137.785  0.00  0.00    +0.000 C 
ENDBRANCH  11  23
BRANCH  12  25
ATOM     25  O   UNL     1     109.008 128.592 135.471  0.00  0.00    +0.000 OA
ATOM     26  C   UNL     1     108.705 129.236 135.887  0.00  0.00    +0.000 C 
ENDBRANCH  12  25
BRANCH   5  27
ATOM     27  O   UNL     1     113.250 127.850 136.021  0.00  0.00    +0.000 OA
BRANCH  27  36
ATOM     28  O   UNL     1     113.231 128.975 136.902  0.00  0.00    +0.000 OA
ATOM     29  O   UNL     1     114.911 130.113 135.484  0.00  0.00    +0.000 OA
ATOM     30  O   UNL     1     114.332 130.858 136.837  0.00  0.00    +0.000 OA
ATOM     31  O   UNL     1     114.370 128.609 135.076  0.00  0.00    +0.000 OA
ATOM     32  C   UNL     1     114.351 129.734 135.957  0.00  0.00    +0.000 C 
ATOM     33  C   UNL     1     114.061 130.106 136.633  0.00  0.00    +0.000 C 
ATOM     34  C   UNL     1     114.080 128.981 135.753  0.00  0.00    +0.000 C 
ATOM     35  C   UNL     1     113.501 129.727 137.106  0.00  0.00    +0.000 C 
ATOM     36  C   UNL     1     113.520 128.602 136.225  0.00  0.00    +0.000 C 
BRANCH  35  38
ATOM     37  O   UNL     1     113.356 129.775 138.527  0.00  0.00    +0.000 OA
ATOM     38  C   UNL     1     113.212 130.100 137.782  0.00  0.00    +0.000 C 
ENDBRANCH  35  38
ENDBRANCH  27  36
ENDBRANCH   5  27
TORSDOF 7
ENDMDL
MODEL 5
REMARK VINA RESULT:      -8.6      1.161      3.592
REMARK  Name = 44260059
REMARK  7 active torsions:
REMARK  status: ('A' for Active; 'I' for Inactive)
REMARK    1  A    between atoms: O_2  and  C_19
REMARK    2  A    between atoms: O_2  and  C_21
REMARK    3  A    between atoms: O_9  and  C_28
REMARK    4  A    between atoms: O_11  and  C_29
REMARK    5  A    between atoms: O_13  and  C_33
REMARK    6  A    between atoms: C_18  and  C_20
REMARK    7  A    between atoms: C_22  and  C_26
REMARK                            x       y       z     vdW  Elec       q    Type
REMARK                         _______ _______ _______ _____ _____    ______ ____
ROOT
ATOM      1  O   UNL     1     112.964 128.434 138.202  0.00  0.00    +0.000 OA
ATOM      2  O   UNL     1     112.294 127.118 136.215  0.00  0.00    +0.000 OA
ATOM      3  O   UNL     1     112.777 128.151 135.332  0.00  0.00    +0.000 OA
ATOM      4  O   UNL     1     113.961 130.562 136.480  0.00  0.00    +0.000 OA
ATOM      5  C   UNL     1     112.386 127.256 137.635  0.00  0.00    +0.000 A 
ATOM      6  C   UNL     1     112.609 127.696 138.297  0.00  0.00    +0.000 A 
ATOM      7  C   UNL     1     112.518 127.557 136.878  0.00  0.00    +0.000 A 
ATOM      8  C   UNL     1     112.872 128.296 136.783  0.00  0.00    +0.000 A 
ATOM      9  C   UNL     1     113.096 128.734 137.444  0.00  0.00    +0.000 A 
ATOM     10  C   UNL     1     113.004 128.597 135.988  0.00  0.00    +0.000 A 
ATOM     11  C   UNL     1     113.466 129.504 137.359  0.00  0.00    +0.000 A 
ATOM     12  C   UNL     1     113.373 129.365 135.883  0.00  0.00    +0.000 A 
ATOM     13  C   UNL     1     113.606 129.823 136.573  0.00  0.00    +0.000 A 
ENDROOT
BRANCH   6  15
ATOM     14  O   UNL     1     112.084 126.494 141.325  0.00  0.00    +0.000 OA
ATOM     15  C   UNL     1     112.477 127.395 139.054  0.00  0.00    +0.000 A 
ATOM     16  C   UNL     1     113.115 127.148 139.516  0.00  0.00    +0.000 A 
ATOM     17  C   UNL     1     111.709 127.342 139.349  0.00  0.00    +0.000 A 
ATOM     18  C   UNL     1     112.984 126.848 140.273  0.00  0.00    +0.000 A 
ATOM     19  C   UNL     1     111.578 127.041 140.106  0.00  0.00    +0.000 A 
ATOM     20  C   UNL     1     112.215 126.794 140.568  0.00  0.00    +0.000 A 
BRANCH  18  21
ATOM     21  O   UNL     1     113.622 126.601 140.735  0.00  0.00    +0.000 OA
ATOM     22  C   UNL     1     114.332 127.019 140.715  0.00  0.00    +0.000 C 
ENDBRANCH  18  21
ENDBRANCH   6  15
BRANCH  11  23
ATOM     23  O   UNL     1     113.686 129.937 138.026  0.00  0.00    +0.000 OA
ATOM     24  C   UNL     1     113.360 130.682 138.161  0.00  0.00    +0.000 C 
ENDBRANCH  11  23
BRANCH  12  25
ATOM     25  O   UNL     1     113.504 129.663 135.125  0.00  0.00    +0.000 OA
ATOM     26  C   UNL     1     114.235 129.554 134.758  0.00  0.00    +0.000 C 
ENDBRANCH  12  25
BRANCH   5  27
ATOM     27  O   UNL     1     112.031 126.518 137.730  0.00  0.00    +0.000 OA
BRANCH  27  36
ATOM     28  O   UNL     1     113.199 125.778 137.369  0.00  0.00    +0.000 OA
ATOM     29  O   UNL     1     111.774 123.976 136.450  0.00  0.00    +0.000 OA
ATOM     30  O   UNL     1     113.416 123.837 136.395  0.00  0.00    +0.000 OA
ATOM     31  O   UNL     1     111.081 125.316 137.117  0.00  0.00    +0.000 OA
ATOM     32  C   UNL     1     112.249 124.576 136.756  0.00  0.00    +0.000 C 
ATOM     33  C   UNL     1     113.070 124.508 136.729  0.00  0.00    +0.000 C 
ATOM     34  C   UNL     1     111.902 125.247 137.090  0.00  0.00    +0.000 C 
ATOM     35  C   UNL     1     113.545 125.109 137.035  0.00  0.00    +0.000 C 
ATOM     36  C   UNL     1     112.377 125.848 137.396  0.00  0.00    +0.000 C 
BRANCH  35  38
ATOM     37  O   UNL     1     114.802 125.007 137.708  0.00  0.00    +0.000 OA
ATOM     38  C   UNL     1     114.366 125.039 137.008  0.00  0.00    +0.000 C 
ENDBRANCH  35  38
ENDBRANCH  27  36
ENDBRANCH   5  27
TORSDOF 7
ENDMDL
MODEL 6
REMARK VINA RESULT:      -8.5      1.388      3.794
REMARK  Name = 44260059
REMARK  7 active torsions:
REMARK  status: ('A' for Active; 'I' for Inactive)
REMARK    1  A    between atoms: O_2  and  C_19
REMARK    2  A    between atoms: O_2  and  C_21
REMARK    3  A    between atoms: O_9  and  C_28
REMARK    4  A    between atoms: O_11  and  C_29
REMARK    5  A    between atoms: O_13  and  C_33
REMARK    6  A    between atoms: C_18  and  C_20
REMARK    7  A    between atoms: C_22  and  C_26
REMARK                            x       y       z     vdW  Elec       q    Type
REMARK                         _______ _______ _______ _____ _____    ______ ____
ROOT
ATOM      1  O   UNL     1     112.071 126.129 137.989  0.00  0.00    +0.000 OA
ATOM      2  O   UNL     1     112.124 128.194 136.624  0.00  0.00    +0.000 OA
ATOM      3  O   UNL     1     111.537 127.501 135.502  0.00  0.00    +0.000 OA
ATOM      4  O   UNL     1     110.885 124.667 135.767  0.00  0.00    +0.000 OA
ATOM      5  C   UNL     1     112.388 127.517 137.854  0.00  0.00    +0.000 A 
ATOM      6  C   UNL     1     112.371 126.828 138.309  0.00  0.00    +0.000 A 
ATOM      7  C   UNL     1     112.106 127.505 137.079  0.00  0.00    +0.000 A 
ATOM      8  C   UNL     1     111.807 126.806 136.759  0.00  0.00    +0.000 A 
ATOM      9  C   UNL     1     111.789 126.119 137.214  0.00  0.00    +0.000 A 
ATOM     10  C   UNL     1     111.516 126.808 135.950  0.00  0.00    +0.000 A 
ATOM     11  C   UNL     1     111.480 125.385 136.892  0.00  0.00    +0.000 A 
ATOM     12  C   UNL     1     111.203 126.084 135.611  0.00  0.00    +0.000 A 
ATOM     13  C   UNL     1     111.184 125.367 136.085  0.00  0.00    +0.000 A 
ENDROOT
BRANCH   6  15
ATOM     14  O   UNL     1     113.497 126.874 141.411  0.00  0.00    +0.000 OA
ATOM     15  C   UNL     1     112.653 126.840 139.084  0.00  0.00    +0.000 A 
ATOM     16  C   UNL     1     112.121 126.836 139.716  0.00  0.00    +0.000 A 
ATOM     17  C   UNL     1     113.465 126.855 139.228  0.00  0.00    +0.000 A 
ATOM     18  C   UNL     1     112.404 126.847 140.491  0.00  0.00    +0.000 A 
ATOM     19  C   UNL     1     113.746 126.866 140.004  0.00  0.00    +0.000 A 
ATOM     20  C   UNL     1     113.216 126.862 140.635  0.00  0.00    +0.000 A 
BRANCH  18  21
ATOM     21  O   UNL     1     111.872 126.843 141.123  0.00  0.00    +0.000 OA
ATOM     22  C   UNL     1     111.125 126.506 141.032  0.00  0.00    +0.000 C 
ENDBRANCH  18  21
ENDBRANCH   6  15
BRANCH  11  23
ATOM     23  O   UNL     1     111.466 124.701 137.354  0.00  0.00    +0.000 OA
ATOM     24  C   UNL     1     111.876 124.029 137.108  0.00  0.00    +0.000 C 
ENDBRANCH  11  23
BRANCH  12  25
ATOM     25  O   UNL     1     110.921 126.076 134.836  0.00  0.00    +0.000 OA
ATOM     26  C   UNL     1     110.114 126.159 134.688  0.00  0.00    +0.000 C 
ENDBRANCH  12  25
BRANCH   5  27
ATOM     27  O   UNL     1     112.688 128.216 138.174  0.00  0.00    +0.000 OA
BRANCH  27  36
ATOM     28  O   UNL     1     111.400 128.816 138.323  0.00  0.00    +0.000 OA
ATOM     29  O   UNL     1     112.418 131.059 138.091  0.00  0.00    +0.000 OA
ATOM     30  O   UNL     1     110.791 130.911 138.317  0.00  0.00    +0.000 OA
ATOM     31  O   UNL     1     113.367 129.711 138.019  0.00  0.00    +0.000 OA
ATOM     32  C   UNL     1     112.079 130.312 138.168  0.00  0.00    +0.000 C 
ATOM     33  C   UNL     1     111.265 130.237 138.281  0.00  0.00    +0.000 C 
ATOM     34  C   UNL     1     112.553 129.637 138.132  0.00  0.00    +0.000 C 
ATOM     35  C   UNL     1     110.926 129.489 138.359  0.00  0.00    +0.000 C 
ATOM     36  C   UNL     1     112.214 128.889 138.210  0.00  0.00    +0.000 C 
BRANCH  35  38
ATOM     37  O   UNL     1     109.820 129.085 139.169  0.00  0.00    +0.000 OA
ATOM     38  C   UNL     1     110.112 129.416 138.471  0.00  0.00    +0.000 C 
ENDBRANCH  35  38
ENDBRANCH  27  36
ENDBRANCH   5  27
TORSDOF 7
ENDMDL
MODEL 7
REMARK VINA RESULT:      -8.5      1.885      4.078
REMARK  Name = 44260059
REMARK  7 active torsions:
REMARK  status: ('A' for Active; 'I' for Inactive)
REMARK    1  A    between atoms: O_2  and  C_19
REMARK    2  A    between atoms: O_2  and  C_21
REMARK    3  A    between atoms: O_9  and  C_28
REMARK    4  A    between atoms: O_11  and  C_29
REMARK    5  A    between atoms: O_13  and  C_33
REMARK    6  A    between atoms: C_18  and  C_20
REMARK    7  A    between atoms: C_22  and  C_26
REMARK                            x       y       z     vdW  Elec       q    Type
REMARK                         _______ _______ _______ _____ _____    ______ ____
ROOT
ATOM      1  O   UNL     1     113.236 126.654 138.470  0.00  0.00    +0.000 OA
ATOM      2  O   UNL     1     111.206 125.567 139.380  0.00  0.00    +0.000 OA
ATOM      3  O   UNL     1     111.084 124.744 138.202  0.00  0.00    +0.000 OA
ATOM      4  O   UNL     1     113.053 125.026 136.062  0.00  0.00    +0.000 OA
ATOM      5  C   UNL     1     112.270 126.512 139.514  0.00  0.00    +0.000 A 
ATOM      6  C   UNL     1     112.947 126.875 139.210  0.00  0.00    +0.000 A 
ATOM      7  C   UNL     1     111.883 125.930 139.077  0.00  0.00    +0.000 A 
ATOM      8  C   UNL     1     112.173 125.709 138.336  0.00  0.00    +0.000 A 
ATOM      9  C   UNL     1     112.848 126.071 138.033  0.00  0.00    +0.000 A 
ATOM     10  C   UNL     1     111.760 125.101 137.890  0.00  0.00    +0.000 A 
ATOM     11  C   UNL     1     113.160 125.851 137.263  0.00  0.00    +0.000 A 
ATOM     12  C   UNL     1     112.057 124.867 137.119  0.00  0.00    +0.000 A 
ATOM     13  C   UNL     1     112.761 125.244 136.803  0.00  0.00    +0.000 A 
ENDROOT
BRANCH   6  15
ATOM     14  O   UNL     1     114.493 129.207 140.960  0.00  0.00    +0.000 OA
ATOM     15  C   UNL     1     113.334 127.457 139.648  0.00  0.00    +0.000 A 
ATOM     16  C   UNL     1     113.255 128.252 139.437  0.00  0.00    +0.000 A 
ATOM     17  C   UNL     1     113.799 127.247 140.296  0.00  0.00    +0.000 A 
ATOM     18  C   UNL     1     113.641 128.834 139.875  0.00  0.00    +0.000 A 
ATOM     19  C   UNL     1     114.185 127.830 140.733  0.00  0.00    +0.000 A 
ATOM     20  C   UNL     1     114.107 128.624 140.523  0.00  0.00    +0.000 A 
BRANCH  18  21
ATOM     21  O   UNL     1     113.563 129.629 139.664  0.00  0.00    +0.000 OA
ATOM     22  C   UNL     1     113.486 129.839 138.870  0.00  0.00    +0.000 C 
ENDBRANCH  18  21
ENDBRANCH   6  15
BRANCH  11  23
ATOM     23  O   UNL     1     113.837 126.218 136.967  0.00  0.00    +0.000 OA
ATOM     24  C   UNL     1     114.488 125.764 136.743  0.00  0.00    +0.000 C 
ENDBRANCH  11  23
BRANCH  12  25
ATOM     25  O   UNL     1     111.668 124.284 136.684  0.00  0.00    +0.000 OA
ATOM     26  C   UNL     1     111.896 123.495 136.754  0.00  0.00    +0.000 C 
ENDBRANCH  12  25
BRANCH   5  27
ATOM     27  O   UNL     1     111.981 126.733 140.255  0.00  0.00    +0.000 OA
BRANCH  27  36
ATOM     28  O   UNL     1     110.875 127.482 139.747  0.00  0.00    +0.000 OA
ATOM     29  O   UNL     1     109.535 126.848 141.729  0.00  0.00    +0.000 OA
ATOM     30  O   UNL     1     108.877 127.808 140.560  0.00  0.00    +0.000 OA
ATOM     31  O   UNL     1     111.088 126.310 141.576  0.00  0.00    +0.000 OA
ATOM     32  C   UNL     1     109.982 127.060 141.068  0.00  0.00    +0.000 C 
ATOM     33  C   UNL     1     109.653 127.540 140.483  0.00  0.00    +0.000 C 
ATOM     34  C   UNL     1     110.759 126.790 140.991  0.00  0.00    +0.000 C 
ATOM     35  C   UNL     1     110.099 127.751 139.823  0.00  0.00    +0.000 C 
ATOM     36  C   UNL     1     111.205 127.002 140.331  0.00  0.00    +0.000 C 
BRANCH  35  38
ATOM     37  O   UNL     1     110.100 128.969 139.076  0.00  0.00    +0.000 OA
ATOM     38  C   UNL     1     109.770 128.231 139.239  0.00  0.00    +0.000 C 
ENDBRANCH  35  38
ENDBRANCH  27  36
ENDBRANCH   5  27
TORSDOF 7
ENDMDL
MODEL 8
REMARK VINA RESULT:      -8.4      1.444      4.115
REMARK  Name = 44260059
REMARK  7 active torsions:
REMARK  status: ('A' for Active; 'I' for Inactive)
REMARK    1  A    between atoms: O_2  and  C_19
REMARK    2  A    between atoms: O_2  and  C_21
REMARK    3  A    between atoms: O_9  and  C_28
REMARK    4  A    between atoms: O_11  and  C_29
REMARK    5  A    between atoms: O_13  and  C_33
REMARK    6  A    between atoms: C_18  and  C_20
REMARK    7  A    between atoms: C_22  and  C_26
REMARK                            x       y       z     vdW  Elec       q    Type
REMARK                         _______ _______ _______ _____ _____    ______ ____
ROOT
ATOM      1  O   UNL     1     111.147 126.070 138.396  0.00  0.00    +0.000 OA
ATOM      2  O   UNL     1     113.336 127.225 138.325  0.00  0.00    +0.000 OA
ATOM      3  O   UNL     1     113.374 127.303 139.765  0.00  0.00    +0.000 OA
ATOM      4  O   UNL     1     111.156 126.191 141.306  0.00  0.00    +0.000 OA
ATOM      5  C   UNL     1     112.235 126.616 137.647  0.00  0.00    +0.000 A 
ATOM      6  C   UNL     1     111.505 126.231 137.670  0.00  0.00    +0.000 A 
ATOM      7  C   UNL     1     112.606 126.840 138.349  0.00  0.00    +0.000 A 
ATOM      8  C   UNL     1     112.248 126.679 139.074  0.00  0.00    +0.000 A 
ATOM      9  C   UNL     1     111.519 126.295 139.098  0.00  0.00    +0.000 A 
ATOM     10  C   UNL     1     112.644 126.918 139.798  0.00  0.00    +0.000 A 
ATOM     11  C   UNL     1     111.135 126.121 139.847  0.00  0.00    +0.000 A 
ATOM     12  C   UNL     1     112.276 126.754 140.557  0.00  0.00    +0.000 A 
ATOM     13  C   UNL     1     111.516 126.353 140.582  0.00  0.00    +0.000 A 
ENDROOT
BRANCH   6  15
ATOM     14  O   UNL     1     110.021 125.336 134.862  0.00  0.00    +0.000 OA
ATOM     15  C   UNL     1     111.135 126.006 136.968  0.00  0.00    +0.000 A 
ATOM     16  C   UNL     1     110.488 126.437 136.688  0.00  0.00    +0.000 A 
ATOM     17  C   UNL     1     111.410 125.353 136.547  0.00  0.00    +0.000 A 
ATOM     18  C   UNL     1     110.118 126.213 135.986  0.00  0.00    +0.000 A 
ATOM     19  C   UNL     1     111.038 125.130 135.844  0.00  0.00    +0.000 A 
ATOM     20  C   UNL     1     110.393 125.559 135.564  0.00  0.00    +0.000 A 
BRANCH  18  21
ATOM     21  O   UNL     1     109.471 126.643 135.706  0.00  0.00    +0.000 OA
ATOM     22  C   UNL     1     108.945 126.990 136.237  0.00  0.00    +0.000 C 
ENDBRANCH  18  21
ENDBRANCH   6  15
BRANCH  11  23
ATOM     23  O   UNL     1     110.406 125.736 139.862  0.00  0.00    +0.000 OA
ATOM     24  C   UNL     1     109.759 126.090 140.232  0.00  0.00    +0.000 C 
ENDBRANCH  11  23
BRANCH  12  25
ATOM     25  O   UNL     1     112.649 126.979 141.257  0.00  0.00    +0.000 OA
ATOM     26  C   UNL     1     112.501 127.722 141.584  0.00  0.00    +0.000 C 
ENDBRANCH  12  25
BRANCH   5  27
ATOM     27  O   UNL     1     112.594 126.776 136.921  0.00  0.00    +0.000 OA
BRANCH  27  36
ATOM     28  O   UNL     1     112.289 128.172 136.938  0.00  0.00    +0.000 OA
ATOM     29  O   UNL     1     114.367 128.641 135.678  0.00  0.00    +0.000 OA
ATOM     30  O   UNL     1     113.370 129.880 136.115  0.00  0.00    +0.000 OA
ATOM     31  O   UNL     1     113.979 127.089 136.081  0.00  0.00    +0.000 OA
ATOM     32  C   UNL     1     113.674 128.485 136.098  0.00  0.00    +0.000 C 
ATOM     33  C   UNL     1     113.176 129.104 136.317  0.00  0.00    +0.000 C 
ATOM     34  C   UNL     1     113.480 127.708 136.300  0.00  0.00    +0.000 C 
ATOM     35  C   UNL     1     112.483 128.948 136.737  0.00  0.00    +0.000 C 
ATOM     36  C   UNL     1     112.787 127.552 136.720  0.00  0.00    +0.000 C 
BRANCH  35  38
ATOM     37  O   UNL     1     111.211 129.596 136.670  0.00  0.00    +0.000 OA
ATOM     38  C   UNL     1     111.985 129.568 136.956  0.00  0.00    +0.000 C 
ENDBRANCH  35  38
ENDBRANCH  27  36
ENDBRANCH   5  27
TORSDOF 7
ENDMDL
MODEL 9
REMARK VINA RESULT:      -8.4      1.203      3.888
REMARK  Name = 44260059
REMARK  7 active torsions:
REMARK  status: ('A' for Active; 'I' for Inactive)
REMARK    1  A    between atoms: O_2  and  C_19
REMARK    2  A    between atoms: O_2  and  C_21
REMARK    3  A    between atoms: O_9  and  C_28
REMARK    4  A    between atoms: O_11  and  C_29
REMARK    5  A    between atoms: O_13  and  C_33
REMARK    6  A    between atoms: C_18  and  C_20
REMARK    7  A    between atoms: C_22  and  C_26
REMARK                            x       y       z     vdW  Elec       q    Type
REMARK                         _______ _______ _______ _____ _____    ______ ____
ROOT
ATOM      1  O   UNL     1     112.354 128.388 138.149  0.00  0.00    +0.000 OA
ATOM      2  O   UNL     1     112.908 126.026 138.642  0.00  0.00    +0.000 OA
ATOM      3  O   UNL     1     112.372 126.149 139.976  0.00  0.00    +0.000 OA
ATOM      4  O   UNL     1     111.254 128.710 140.827  0.00  0.00    +0.000 OA
ATOM      5  C   UNL     1     112.900 127.132 137.738  0.00  0.00    +0.000 A 
ATOM      6  C   UNL     1     112.715 127.920 137.573  0.00  0.00    +0.000 A 
ATOM      7  C   UNL     1     112.723 126.814 138.478  0.00  0.00    +0.000 A 
ATOM      8  C   UNL     1     112.362 127.282 139.053  0.00  0.00    +0.000 A 
ATOM      9  C   UNL     1     112.177 128.068 138.889  0.00  0.00    +0.000 A 
ATOM     10  C   UNL     1     112.183 126.937 139.820  0.00  0.00    +0.000 A 
ATOM     11  C   UNL     1     111.801 128.566 139.480  0.00  0.00    +0.000 A 
ATOM     12  C   UNL     1     111.807 127.420 140.424  0.00  0.00    +0.000 A 
ATOM     13  C   UNL     1     111.615 128.240 140.253  0.00  0.00    +0.000 A 
ENDROOT
BRANCH   6  15
ATOM     14  O   UNL     1     113.419 129.195 134.612  0.00  0.00    +0.000 OA
ATOM     15  C   UNL     1     112.891 128.239 136.833  0.00  0.00    +0.000 A 
ATOM     16  C   UNL     1     112.287 128.368 136.285  0.00  0.00    +0.000 A 
ATOM     17  C   UNL     1     113.671 128.428 136.641  0.00  0.00    +0.000 A 
ATOM     18  C   UNL     1     112.464 128.687 135.545  0.00  0.00    +0.000 A 
ATOM     19  C   UNL     1     113.846 128.747 135.900  0.00  0.00    +0.000 A 
ATOM     20  C   UNL     1     113.243 128.876 135.353  0.00  0.00    +0.000 A 
BRANCH  18  21
ATOM     21  O   UNL     1     111.860 128.816 134.997  0.00  0.00    +0.000 OA
ATOM     22  C   UNL     1     111.117 129.068 135.254  0.00  0.00    +0.000 C 
ENDBRANCH  18  21
ENDBRANCH   6  15
BRANCH  11  23
ATOM     23  O   UNL     1     111.620 129.352 139.307  0.00  0.00    +0.000 OA
ATOM     24  C   UNL     1     111.952 129.960 139.756  0.00  0.00    +0.000 C 
ENDBRANCH  11  23
BRANCH  12  25
ATOM     25  O   UNL     1     111.632 127.098 141.163  0.00  0.00    +0.000 OA
ATOM     26  C   UNL     1     110.874 126.814 141.321  0.00  0.00    +0.000 C 
ENDBRANCH  12  25
BRANCH   5  27
ATOM     27  O   UNL     1     113.261 126.665 137.162  0.00  0.00    +0.000 OA
BRANCH  27  36
ATOM     28  O   UNL     1     112.087 125.915 136.842  0.00  0.00    +0.000 OA
ATOM     29  O   UNL     1     113.484 123.930 136.363  0.00  0.00    +0.000 OA
ATOM     30  O   UNL     1     111.845 123.843 136.203  0.00  0.00    +0.000 OA
ATOM     31  O   UNL     1     114.192 125.341 136.843  0.00  0.00    +0.000 OA
ATOM     32  C   UNL     1     113.018 124.592 136.523  0.00  0.00    +0.000 C 
ATOM     33  C   UNL     1     112.198 124.549 136.443  0.00  0.00    +0.000 C 
ATOM     34  C   UNL     1     113.372 125.298 136.763  0.00  0.00    +0.000 C 
ATOM     35  C   UNL     1     111.733 125.211 136.603  0.00  0.00    +0.000 C 
ATOM     36  C   UNL     1     112.907 125.960 136.922  0.00  0.00    +0.000 C 
BRANCH  35  38
ATOM     37  O   UNL     1     110.528 125.627 135.956  0.00  0.00    +0.000 OA
ATOM     38  C   UNL     1     110.913 125.167 136.522  0.00  0.00    +0.000 C 
ENDBRANCH  35  38
ENDBRANCH  27  36
ENDBRANCH   5  27
TORSDOF 7
ENDMDL
MODEL 10
REMARK VINA RESULT:      -8.4      1.777      3.696
REMARK  Name = 44260059
REMARK  7 active torsions:
REMARK  status: ('A' for Active; 'I' for Inactive)
REMARK    1  A    between atoms: O_2  and  C_19
REMARK    2  A    between atoms: O_2  and  C_21
REMARK    3  A    between atoms: O_9  and  C_28
REMARK    4  A    between atoms: O_11  and  C_29
REMARK    5  A    between atoms: O_13  and  C_33
REMARK    6  A    between atoms: C_18  and  C_20
REMARK    7  A    between atoms: C_22  and  C_26
REMARK                            x       y       z     vdW  Elec       q    Type
REMARK                         _______ _______ _______ _____ _____    ______ ____
ROOT
ATOM      1  O   UNL     1     111.974 129.103 135.444  0.00  0.00    +0.000 OA
ATOM      2  O   UNL     1     111.963 126.710 136.078  0.00  0.00    +0.000 OA
ATOM      3  O   UNL     1     110.553 126.610 135.792  0.00  0.00    +0.000 OA
ATOM      4  O   UNL     1     109.126 128.977 134.846  0.00  0.00    +0.000 OA
ATOM      5  C   UNL     1     112.667 127.941 135.907  0.00  0.00    +0.000 A 
ATOM      6  C   UNL     1     112.670 128.739 135.695  0.00  0.00    +0.000 A 
ATOM      7  C   UNL     1     111.967 127.508 135.867  0.00  0.00    +0.000 A 
ATOM      8  C   UNL     1     111.270 127.871 135.615  0.00  0.00    +0.000 A 
ATOM      9  C   UNL     1     111.273 128.668 135.404  0.00  0.00    +0.000 A 
ATOM     10  C   UNL     1     110.547 127.408 135.578  0.00  0.00    +0.000 A 
ATOM     11  C   UNL     1     110.555 129.058 135.141  0.00  0.00    +0.000 A 
ATOM     12  C   UNL     1     109.818 127.781 135.317  0.00  0.00    +0.000 A 
ATOM     13  C   UNL     1     109.822 128.611 135.097  0.00  0.00    +0.000 A 
ENDROOT
BRANCH   6  15
ATOM     14  O   UNL     1     115.472 130.476 135.858  0.00  0.00    +0.000 OA
ATOM     15  C   UNL     1     113.371 129.173 135.735  0.00  0.00    +0.000 A 
ATOM     16  C   UNL     1     113.488 129.711 136.351  0.00  0.00    +0.000 A 
ATOM     17  C   UNL     1     113.954 129.070 135.161  0.00  0.00    +0.000 A 
ATOM     18  C   UNL     1     114.189 130.144 136.391  0.00  0.00    +0.000 A 
ATOM     19  C   UNL     1     114.655 129.504 135.202  0.00  0.00    +0.000 A 
ATOM     20  C   UNL     1     114.772 130.041 135.817  0.00  0.00    +0.000 A 
BRANCH  18  21
ATOM     21  O   UNL     1     114.306 130.682 137.007  0.00  0.00    +0.000 OA
ATOM     22  C   UNL     1     113.661 131.074 137.341  0.00  0.00    +0.000 C 
ENDBRANCH  18  21
ENDBRANCH   6  15
BRANCH  11  23
ATOM     23  O   UNL     1     110.567 129.856 134.932  0.00  0.00    +0.000 OA
ATOM     24  C   UNL     1     110.056 130.388 135.302  0.00  0.00    +0.000 C 
ENDBRANCH  11  23
BRANCH  12  25
ATOM     25  O   UNL     1     109.119 127.344 135.278  0.00  0.00    +0.000 OA
ATOM     26  C   UNL     1     108.637 127.276 135.944  0.00  0.00    +0.000 C 
ENDBRANCH  12  25
BRANCH   5  27
ATOM     27  O   UNL     1     113.364 127.578 136.158  0.00  0.00    +0.000 OA
BRANCH  27  36
ATOM     28  O   UNL     1     112.993 127.540 137.538  0.00  0.00    +0.000 OA
ATOM     29  O   UNL     1     114.291 125.453 137.829  0.00  0.00    +0.000 OA
ATOM     30  O   UNL     1     113.488 126.111 139.110  0.00  0.00    +0.000 OA
ATOM     31  O   UNL     1     114.229 126.186 136.352  0.00  0.00    +0.000 OA
ATOM     32  C   UNL     1     113.858 126.149 137.732  0.00  0.00    +0.000 C 
ATOM     33  C   UNL     1     113.457 126.478 138.373  0.00  0.00    +0.000 C 
ATOM     34  C   UNL     1     113.827 126.516 136.993  0.00  0.00    +0.000 C 
ATOM     35  C   UNL     1     113.024 127.174 138.275  0.00  0.00    +0.000 C 
ATOM     36  C   UNL     1     113.395 127.212 136.896  0.00  0.00    +0.000 C 
BRANCH  35  38
ATOM     37  O   UNL     1     112.837 128.247 139.200  0.00  0.00    +0.000 OA
ATOM     38  C   UNL     1     112.623 127.503 138.916  0.00  0.00    +0.000 C 
ENDBRANCH  35  38
ENDBRANCH  27  36
ENDBRANCH   5  27
TORSDOF 7
ENDMDL
