MODEL 1
REMARK VINA RESULT:      -9.7      0.000      0.000
REMARK  Name = 74978248
REMARK  6 active torsions:
REMARK  status: ('A' for Active; 'I' for Inactive)
REMARK    1  A    between atoms: S_1  and  O_12
REMARK    2  A    between atoms: O_3  and  C_21
REMARK    3  A    between atoms: O_3  and  C_24
REMARK    4  A    between atoms: O_12  and  C_36
REMARK    5  A    between atoms: C_22  and  C_23
REMARK    6  A    between atoms: C_25  and  C_29
REMARK                            x       y       z     vdW  Elec       q    Type
REMARK                         _______ _______ _______ _____ _____    ______ ____
ROOT
ATOM      1  O   UNL     1     105.684 124.410 147.736  0.00  0.00    +0.000 OA
ATOM      2  O   UNL     1     107.097 125.639 146.115  0.00  0.00    +0.000 OA
ATOM      3  O   UNL     1     108.221 125.596 147.019  0.00  0.00    +0.000 OA
ATOM      4  O   UNL     1     107.909 124.286 149.611  0.00  0.00    +0.000 OA
ATOM      5  C   UNL     1     105.842 125.053 146.468  0.00  0.00    +0.000 A 
ATOM      6  C   UNL     1     105.371 124.643 147.009  0.00  0.00    +0.000 A 
ATOM      7  C   UNL     1     106.626 125.229 146.656  0.00  0.00    +0.000 A 
ATOM      8  C   UNL     1     106.939 124.996 147.383  0.00  0.00    +0.000 A 
ATOM      9  C   UNL     1     106.469 124.587 147.922  0.00  0.00    +0.000 A 
ATOM     10  C   UNL     1     107.757 125.186 147.565  0.00  0.00    +0.000 A 
ATOM     11  C   UNL     1     106.782 124.339 148.682  0.00  0.00    +0.000 A 
ATOM     12  C   UNL     1     108.088 124.947 148.321  0.00  0.00    +0.000 A 
ATOM     13  C   UNL     1     107.599 124.520 148.883  0.00  0.00    +0.000 A 
ENDROOT
BRANCH   6  15
ATOM     14  O   UNL     1     102.235 123.940 146.261  0.00  0.00    +0.000 OA
ATOM     15  C   UNL     1     104.587 124.467 146.821  0.00  0.00    +0.000 A 
ATOM     16  C   UNL     1     103.973 124.846 147.221  0.00  0.00    +0.000 A 
ATOM     17  C   UNL     1     104.418 123.912 146.235  0.00  0.00    +0.000 A 
ATOM     18  C   UNL     1     103.189 124.670 147.034  0.00  0.00    +0.000 A 
ATOM     19  C   UNL     1     103.633 123.737 146.048  0.00  0.00    +0.000 A 
ATOM     20  C   UNL     1     103.019 124.115 146.447  0.00  0.00    +0.000 A 
BRANCH  18  21
ATOM     21  O   UNL     1     102.574 125.049 147.434  0.00  0.00    +0.000 OA
BRANCH  21  22
ATOM     22  S   UNL     1     102.653 125.230 148.235  0.00  0.00    +0.000 S 
ATOM     23  O   UNL     1     102.731 125.411 149.036  0.00  0.00    +0.000 OA
ATOM     24  O   UNL     1     102.806 126.017 148.042  0.00  0.00    +0.000 OA
ATOM     25  O   UNL     1     102.499 124.443 148.428  0.00  0.00    +0.000 OA
ENDBRANCH  21  22
ENDBRANCH  18  21
ENDBRANCH   6  15
BRANCH   5  26
ATOM     26  O   UNL     1     105.529 125.285 145.741  0.00  0.00    +0.000 OA
BRANCH  26  34
ATOM     27  O   UNL     1     105.417 126.662 146.110  0.00  0.00    +0.000 OA
ATOM     28  O   UNL     1     105.718 127.320 143.743  0.00  0.00    +0.000 OA
ATOM     29  O   UNL     1     105.729 125.724 144.163  0.00  0.00    +0.000 OA
ATOM     30  O   UNL     1     105.506 128.476 144.900  0.00  0.00    +0.000 OA
ATOM     31  C   UNL     1     105.617 127.100 144.532  0.00  0.00    +0.000 C 
ATOM     32  C   UNL     1     105.623 126.302 144.742  0.00  0.00    +0.000 C 
ATOM     33  C   UNL     1     105.512 127.678 145.111  0.00  0.00    +0.000 C 
ATOM     34  C   UNL     1     105.523 126.083 145.531  0.00  0.00    +0.000 C 
ATOM     35  C   UNL     1     105.411 127.459 145.900  0.00  0.00    +0.000 C 
BRANCH  35  38
ATOM     36  O   UNL     1     105.959 128.428 146.796  0.00  0.00    +0.000 OA
ATOM     37  O   UNL     1     104.546 128.225 146.739  0.00  0.00    +0.000 OA
ATOM     38  C   UNL     1     105.306 128.037 146.478  0.00  0.00    +0.000 C 
ENDBRANCH  35  38
ENDBRANCH  26  34
ENDBRANCH   5  26
TORSDOF 6
ENDMDL
MODEL 2
REMARK VINA RESULT:      -9.6      1.343      3.931
REMARK  Name = 74978248
REMARK  6 active torsions:
REMARK  status: ('A' for Active; 'I' for Inactive)
REMARK    1  A    between atoms: S_1  and  O_12
REMARK    2  A    between atoms: O_3  and  C_21
REMARK    3  A    between atoms: O_3  and  C_24
REMARK    4  A    between atoms: O_12  and  C_36
REMARK    5  A    between atoms: C_22  and  C_23
REMARK    6  A    between atoms: C_25  and  C_29
REMARK                            x       y       z     vdW  Elec       q    Type
REMARK                         _______ _______ _______ _____ _____    ______ ____
ROOT
ATOM      1  O   UNL     1     106.764 126.003 146.983  0.00  0.00    +0.000 OA
ATOM      2  O   UNL     1     105.001 124.958 148.372  0.00  0.00    +0.000 OA
ATOM      3  O   UNL     1     105.992 124.251 149.147  0.00  0.00    +0.000 OA
ATOM      4  O   UNL     1     108.818 124.608 148.504  0.00  0.00    +0.000 OA
ATOM      5  C   UNL     1     105.382 125.825 147.302  0.00  0.00    +0.000 A 
ATOM      6  C   UNL     1     105.970 126.174 146.838  0.00  0.00    +0.000 A 
ATOM      7  C   UNL     1     105.589 125.307 147.909  0.00  0.00    +0.000 A 
ATOM      8  C   UNL     1     106.384 125.136 148.053  0.00  0.00    +0.000 A 
ATOM      9  C   UNL     1     106.970 125.485 147.591  0.00  0.00    +0.000 A 
ATOM     10  C   UNL     1     106.586 124.594 148.689  0.00  0.00    +0.000 A 
ATOM     11  C   UNL     1     107.801 125.316 147.731  0.00  0.00    +0.000 A 
ATOM     12  C   UNL     1     107.411 124.414 148.844  0.00  0.00    +0.000 A 
ATOM     13  C   UNL     1     108.023 124.776 148.362  0.00  0.00    +0.000 A 
ENDROOT
BRANCH   6  15
ATOM     14  O   UNL     1     105.141 128.246 144.408  0.00  0.00    +0.000 OA
ATOM     15  C   UNL     1     105.762 126.692 146.231  0.00  0.00    +0.000 A 
ATOM     16  C   UNL     1     105.880 126.473 145.444  0.00  0.00    +0.000 A 
ATOM     17  C   UNL     1     105.438 127.429 146.410  0.00  0.00    +0.000 A 
ATOM     18  C   UNL     1     105.672 126.991 144.837  0.00  0.00    +0.000 A 
ATOM     19  C   UNL     1     105.230 127.947 145.802  0.00  0.00    +0.000 A 
ATOM     20  C   UNL     1     105.348 127.728 145.016  0.00  0.00    +0.000 A 
BRANCH  18  21
ATOM     21  O   UNL     1     105.790 126.772 144.050  0.00  0.00    +0.000 OA
BRANCH  21  22
ATOM     22  S   UNL     1     106.201 126.079 143.871  0.00  0.00    +0.000 S 
ATOM     23  O   UNL     1     106.612 125.387 143.693  0.00  0.00    +0.000 OA
ATOM     24  O   UNL     1     105.486 125.682 143.764  0.00  0.00    +0.000 OA
ATOM     25  O   UNL     1     106.916 126.476 143.978  0.00  0.00    +0.000 OA
ENDBRANCH  21  22
ENDBRANCH  18  21
ENDBRANCH   6  15
BRANCH   5  26
ATOM     26  O   UNL     1     104.588 125.995 147.157  0.00  0.00    +0.000 OA
BRANCH  26  34
ATOM     27  O   UNL     1     104.270 124.768 146.498  0.00  0.00    +0.000 OA
ATOM     28  O   UNL     1     102.033 124.778 147.557  0.00  0.00    +0.000 OA
ATOM     29  O   UNL     1     103.096 126.002 147.863  0.00  0.00    +0.000 OA
ATOM     30  O   UNL     1     102.461 123.548 146.545  0.00  0.00    +0.000 OA
ATOM     31  C   UNL     1     102.779 124.775 147.204  0.00  0.00    +0.000 C 
ATOM     32  C   UNL     1     103.311 125.387 147.357  0.00  0.00    +0.000 C 
ATOM     33  C   UNL     1     102.993 124.160 146.698  0.00  0.00    +0.000 C 
ATOM     34  C   UNL     1     104.056 125.384 147.004  0.00  0.00    +0.000 C 
ATOM     35  C   UNL     1     103.739 124.156 146.345  0.00  0.00    +0.000 C 
BRANCH  35  38
ATOM     36  O   UNL     1     103.773 123.586 145.035  0.00  0.00    +0.000 OA
ATOM     37  O   UNL     1     104.346 122.880 146.137  0.00  0.00    +0.000 OA
ATOM     38  C   UNL     1     103.952 123.541 145.839  0.00  0.00    +0.000 C 
ENDBRANCH  35  38
ENDBRANCH  26  34
ENDBRANCH   5  26
TORSDOF 6
ENDMDL
MODEL 3
REMARK VINA RESULT:      -9.5      1.064      2.047
REMARK  Name = 74978248
REMARK  6 active torsions:
REMARK  status: ('A' for Active; 'I' for Inactive)
REMARK    1  A    between atoms: S_1  and  O_12
REMARK    2  A    between atoms: O_3  and  C_21
REMARK    3  A    between atoms: O_3  and  C_24
REMARK    4  A    between atoms: O_12  and  C_36
REMARK    5  A    between atoms: C_22  and  C_23
REMARK    6  A    between atoms: C_25  and  C_29
REMARK                            x       y       z     vdW  Elec       q    Type
REMARK                         _______ _______ _______ _____ _____    ______ ____
ROOT
ATOM      1  O   UNL     1     105.599 125.188 148.543  0.00  0.00    +0.000 OA
ATOM      2  O   UNL     1     106.967 126.240 146.767  0.00  0.00    +0.000 OA
ATOM      3  O   UNL     1     108.159 125.598 147.265  0.00  0.00    +0.000 OA
ATOM      4  O   UNL     1     107.964 123.859 149.604  0.00  0.00    +0.000 OA
ATOM      5  C   UNL     1     105.700 126.038 147.398  0.00  0.00    +0.000 A 
ATOM      6  C   UNL     1     105.245 125.687 147.990  0.00  0.00    +0.000 A 
ATOM      7  C   UNL     1     106.511 125.889 147.359  0.00  0.00    +0.000 A 
ATOM      8  C   UNL     1     106.866 125.390 147.912  0.00  0.00    +0.000 A 
ATOM      9  C   UNL     1     106.410 125.040 148.503  0.00  0.00    +0.000 A 
ATOM     10  C   UNL     1     107.711 125.243 147.860  0.00  0.00    +0.000 A 
ATOM     11  C   UNL     1     106.767 124.518 149.085  0.00  0.00    +0.000 A 
ATOM     12  C   UNL     1     108.086 124.724 148.433  0.00  0.00    +0.000 A 
ATOM     13  C   UNL     1     107.611 124.358 149.050  0.00  0.00    +0.000 A 
ENDROOT
BRANCH   6  15
ATOM     14  O   UNL     1     102.002 126.282 148.144  0.00  0.00    +0.000 OA
ATOM     15  C   UNL     1     104.434 125.837 148.029  0.00  0.00    +0.000 A 
ATOM     16  C   UNL     1     103.896 125.246 147.820  0.00  0.00    +0.000 A 
ATOM     17  C   UNL     1     104.161 126.575 148.276  0.00  0.00    +0.000 A 
ATOM     18  C   UNL     1     103.086 125.395 147.859  0.00  0.00    +0.000 A 
ATOM     19  C   UNL     1     103.351 126.723 148.314  0.00  0.00    +0.000 A 
ATOM     20  C   UNL     1     102.813 126.134 148.106  0.00  0.00    +0.000 A 
BRANCH  18  21
ATOM     21  O   UNL     1     102.548 124.805 147.650  0.00  0.00    +0.000 OA
BRANCH  21  22
ATOM     22  S   UNL     1     102.820 124.063 147.415  0.00  0.00    +0.000 S 
ATOM     23  O   UNL     1     103.093 123.320 147.179  0.00  0.00    +0.000 OA
ATOM     24  O   UNL     1     102.910 123.845 148.206  0.00  0.00    +0.000 OA
ATOM     25  O   UNL     1     102.731 124.281 146.624  0.00  0.00    +0.000 OA
ENDBRANCH  21  22
ENDBRANCH  18  21
ENDBRANCH   6  15
BRANCH   5  26
ATOM     26  O   UNL     1     105.346 126.538 146.845  0.00  0.00    +0.000 OA
BRANCH  26  34
ATOM     27  O   UNL     1     105.462 125.609 145.765  0.00  0.00    +0.000 OA
ATOM     28  O   UNL     1     105.625 127.491 144.166  0.00  0.00    +0.000 OA
ATOM     29  O   UNL     1     105.454 127.792 145.779  0.00  0.00    +0.000 OA
ATOM     30  O   UNL     1     105.687 125.936 143.620  0.00  0.00    +0.000 OA
ATOM     31  C   UNL     1     105.570 126.863 144.699  0.00  0.00    +0.000 C 
ATOM     32  C   UNL     1     105.485 127.014 145.506  0.00  0.00    +0.000 C 
ATOM     33  C   UNL     1     105.601 126.086 144.426  0.00  0.00    +0.000 C 
ATOM     34  C   UNL     1     105.431 126.387 146.039  0.00  0.00    +0.000 C 
ATOM     35  C   UNL     1     105.547 125.458 144.959  0.00  0.00    +0.000 C 
BRANCH  35  38
ATOM     36  O   UNL     1     106.306 124.307 144.585  0.00  0.00    +0.000 OA
ATOM     37  O   UNL     1     104.880 124.277 144.513  0.00  0.00    +0.000 OA
ATOM     38  C   UNL     1     105.578 124.681 144.686  0.00  0.00    +0.000 C 
ENDBRANCH  35  38
ENDBRANCH  26  34
ENDBRANCH   5  26
TORSDOF 6
ENDMDL
MODEL 4
REMARK VINA RESULT:      -9.4      9.822     12.204
REMARK  Name = 74978248
REMARK  6 active torsions:
REMARK  status: ('A' for Active; 'I' for Inactive)
REMARK    1  A    between atoms: S_1  and  O_12
REMARK    2  A    between atoms: O_3  and  C_21
REMARK    3  A    between atoms: O_3  and  C_24
REMARK    4  A    between atoms: O_12  and  C_36
REMARK    5  A    between atoms: C_22  and  C_23
REMARK    6  A    between atoms: C_25  and  C_29
REMARK                            x       y       z     vdW  Elec       q    Type
REMARK                         _______ _______ _______ _____ _____    ______ ____
ROOT
ATOM      1  O   UNL     1     112.977 127.096 136.566  0.00  0.00    +0.000 OA
ATOM      2  O   UNL     1     112.957 128.428 138.653  0.00  0.00    +0.000 OA
ATOM      3  O   UNL     1     112.411 129.566 137.955  0.00  0.00    +0.000 OA
ATOM      4  O   UNL     1     111.875 129.352 135.092  0.00  0.00    +0.000 OA
ATOM      5  C   UNL     1     113.238 127.206 137.968  0.00  0.00    +0.000 A 
ATOM      6  C   UNL     1     113.244 126.762 137.272  0.00  0.00    +0.000 A 
ATOM      7  C   UNL     1     112.964 127.984 137.957  0.00  0.00    +0.000 A 
ATOM      8  C   UNL     1     112.697 128.318 137.252  0.00  0.00    +0.000 A 
ATOM      9  C   UNL     1     112.704 127.874 136.557  0.00  0.00    +0.000 A 
ATOM     10  C   UNL     1     112.414 129.130 137.254  0.00  0.00    +0.000 A 
ATOM     11  C   UNL     1     112.428 128.210 135.816  0.00  0.00    +0.000 A 
ATOM     12  C   UNL     1     112.135 129.483 136.523  0.00  0.00    +0.000 A 
ATOM     13  C   UNL     1     112.142 129.021 135.798  0.00  0.00    +0.000 A 
ENDROOT
BRANCH   6  15
ATOM     14  O   UNL     1     114.338 123.648 137.314  0.00  0.00    +0.000 OA
ATOM     15  C   UNL     1     113.518 125.984 137.282  0.00  0.00    +0.000 A 
ATOM     16  C   UNL     1     112.988 125.359 137.183  0.00  0.00    +0.000 A 
ATOM     17  C   UNL     1     114.322 125.830 137.392  0.00  0.00    +0.000 A 
ATOM     18  C   UNL     1     113.262 124.581 137.194  0.00  0.00    +0.000 A 
ATOM     19  C   UNL     1     114.594 125.051 137.402  0.00  0.00    +0.000 A 
ATOM     20  C   UNL     1     114.065 124.427 137.303  0.00  0.00    +0.000 A 
BRANCH  18  21
ATOM     21  O   UNL     1     112.732 123.956 137.094  0.00  0.00    +0.000 OA
BRANCH  21  22
ATOM     22  S   UNL     1     112.049 124.061 136.644  0.00  0.00    +0.000 S 
ATOM     23  O   UNL     1     111.366 124.167 136.193  0.00  0.00    +0.000 OA
ATOM     24  O   UNL     1     112.494 123.988 135.953  0.00  0.00    +0.000 OA
ATOM     25  O   UNL     1     111.604 124.135 137.335  0.00  0.00    +0.000 OA
ENDBRANCH  21  22
ENDBRANCH  18  21
ENDBRANCH   6  15
BRANCH   5  26
ATOM     26  O   UNL     1     113.505 126.871 138.673  0.00  0.00    +0.000 OA
BRANCH  26  34
ATOM     27  O   UNL     1     112.199 126.672 139.219  0.00  0.00    +0.000 OA
ATOM     28  O   UNL     1     113.099 127.017 141.498  0.00  0.00    +0.000 OA
ATOM     29  O   UNL     1     114.105 127.101 140.193  0.00  0.00    +0.000 OA
ATOM     30  O   UNL     1     111.495 126.703 141.284  0.00  0.00    +0.000 OA
ATOM     31  C   UNL     1     112.799 126.902 140.738  0.00  0.00    +0.000 C 
ATOM     32  C   UNL     1     113.302 126.944 140.085  0.00  0.00    +0.000 C 
ATOM     33  C   UNL     1     111.997 126.745 140.631  0.00  0.00    +0.000 C 
ATOM     34  C   UNL     1     113.002 126.829 139.325  0.00  0.00    +0.000 C 
ATOM     35  C   UNL     1     111.697 126.630 139.871  0.00  0.00    +0.000 C 
BRANCH  35  38
ATOM     36  O   UNL     1     110.626 125.693 139.740  0.00  0.00    +0.000 OA
ATOM     37  O   UNL     1     110.360 127.096 139.682  0.00  0.00    +0.000 OA
ATOM     38  C   UNL     1     110.895 126.473 139.764  0.00  0.00    +0.000 C 
ENDBRANCH  35  38
ENDBRANCH  26  34
ENDBRANCH   5  26
TORSDOF 6
ENDMDL
MODEL 5
REMARK VINA RESULT:      -9.3     10.132     12.515
REMARK  Name = 74978248
REMARK  6 active torsions:
REMARK  status: ('A' for Active; 'I' for Inactive)
REMARK    1  A    between atoms: S_1  and  O_12
REMARK    2  A    between atoms: O_3  and  C_21
REMARK    3  A    between atoms: O_3  and  C_24
REMARK    4  A    between atoms: O_12  and  C_36
REMARK    5  A    between atoms: C_22  and  C_23
REMARK    6  A    between atoms: C_25  and  C_29
REMARK                            x       y       z     vdW  Elec       q    Type
REMARK                         _______ _______ _______ _____ _____    ______ ____
ROOT
ATOM      1  O   UNL     1     113.491 126.817 136.823  0.00  0.00    +0.000 OA
ATOM      2  O   UNL     1     111.572 125.510 135.963  0.00  0.00    +0.000 OA
ATOM      3  O   UNL     1     112.225 124.271 136.309  0.00  0.00    +0.000 OA
ATOM      4  O   UNL     1     114.868 124.356 137.549  0.00  0.00    +0.000 OA
ATOM      5  C   UNL     1     112.197 126.770 136.216  0.00  0.00    +0.000 A 
ATOM      6  C   UNL     1     112.837 127.206 136.503  0.00  0.00    +0.000 A 
ATOM      7  C   UNL     1     112.212 125.946 136.250  0.00  0.00    +0.000 A 
ATOM      8  C   UNL     1     112.866 125.557 136.570  0.00  0.00    +0.000 A 
ATOM      9  C   UNL     1     113.505 125.993 136.856  0.00  0.00    +0.000 A 
ATOM     10  C   UNL     1     112.869 124.698 136.598  0.00  0.00    +0.000 A 
ATOM     11  C   UNL     1     114.191 125.600 137.191  0.00  0.00    +0.000 A 
ATOM     12  C   UNL     1     113.547 124.288 136.930  0.00  0.00    +0.000 A 
ATOM     13  C   UNL     1     114.213 124.742 137.229  0.00  0.00    +0.000 A 
ENDROOT
BRANCH   6  15
ATOM     14  O   UNL     1     112.777 130.503 136.372  0.00  0.00    +0.000 OA
ATOM     15  C   UNL     1     112.822 128.030 136.470  0.00  0.00    +0.000 A 
ATOM     16  C   UNL     1     112.740 128.469 137.164  0.00  0.00    +0.000 A 
ATOM     17  C   UNL     1     112.889 128.415 135.743  0.00  0.00    +0.000 A 
ATOM     18  C   UNL     1     112.726 129.293 137.131  0.00  0.00    +0.000 A 
ATOM     19  C   UNL     1     112.874 129.239 135.711  0.00  0.00    +0.000 A 
ATOM     20  C   UNL     1     112.792 129.678 136.404  0.00  0.00    +0.000 A 
BRANCH  18  21
ATOM     21  O   UNL     1     112.644 129.732 137.825  0.00  0.00    +0.000 OA
BRANCH  21  22
ATOM     22  S   UNL     1     113.000 129.472 138.522  0.00  0.00    +0.000 S 
ATOM     23  O   UNL     1     113.356 129.211 139.220  0.00  0.00    +0.000 OA
ATOM     24  O   UNL     1     112.273 129.186 138.787  0.00  0.00    +0.000 OA
ATOM     25  O   UNL     1     113.727 129.758 138.258  0.00  0.00    +0.000 OA
ENDBRANCH  21  22
ENDBRANCH  18  21
ENDBRANCH   6  15
BRANCH   5  26
ATOM     26  O   UNL     1     111.543 127.158 135.897  0.00  0.00    +0.000 OA
BRANCH  26  34
ATOM     27  O   UNL     1     110.699 126.962 137.033  0.00  0.00    +0.000 OA
ATOM     28  O   UNL     1     108.729 126.809 135.542  0.00  0.00    +0.000 OA
ATOM     29  O   UNL     1     110.230 127.056 134.903  0.00  0.00    +0.000 OA
ATOM     30  O   UNL     1     108.542 126.664 137.175  0.00  0.00    +0.000 OA
ATOM     31  C   UNL     1     109.386 126.860 136.039  0.00  0.00    +0.000 C 
ATOM     32  C   UNL     1     110.137 126.984 135.719  0.00  0.00    +0.000 C 
ATOM     33  C   UNL     1     109.293 126.787 136.856  0.00  0.00    +0.000 C 
ATOM     34  C   UNL     1     110.794 127.035 136.216  0.00  0.00    +0.000 C 
ATOM     35  C   UNL     1     109.950 126.839 137.352  0.00  0.00    +0.000 C 
BRANCH  35  38
ATOM     36  O   UNL     1     109.914 126.025 138.527  0.00  0.00    +0.000 OA
ATOM     37  O   UNL     1     109.704 127.435 138.627  0.00  0.00    +0.000 OA
ATOM     38  C   UNL     1     109.856 126.766 138.168  0.00  0.00    +0.000 C 
ENDBRANCH  35  38
ENDBRANCH  26  34
ENDBRANCH   5  26
TORSDOF 6
ENDMDL
MODEL 6
REMARK VINA RESULT:      -9.3      9.847     12.201
REMARK  Name = 74978248
REMARK  6 active torsions:
REMARK  status: ('A' for Active; 'I' for Inactive)
REMARK    1  A    between atoms: S_1  and  O_12
REMARK    2  A    between atoms: O_3  and  C_21
REMARK    3  A    between atoms: O_3  and  C_24
REMARK    4  A    between atoms: O_12  and  C_36
REMARK    5  A    between atoms: C_22  and  C_23
REMARK    6  A    between atoms: C_25  and  C_29
REMARK                            x       y       z     vdW  Elec       q    Type
REMARK                         _______ _______ _______ _____ _____    ______ ____
ROOT
ATOM      1  O   UNL     1     112.427 128.382 138.275  0.00  0.00    +0.000 OA
ATOM      2  O   UNL     1     111.964 127.002 136.272  0.00  0.00    +0.000 OA
ATOM      3  O   UNL     1     112.289 128.105 135.402  0.00  0.00    +0.000 OA
ATOM      4  O   UNL     1     113.097 130.653 136.580  0.00  0.00    +0.000 OA
ATOM      5  C   UNL     1     112.032 127.137 137.693  0.00  0.00    +0.000 A 
ATOM      6  C   UNL     1     112.187 127.597 138.361  0.00  0.00    +0.000 A 
ATOM      7  C   UNL     1     112.119 127.462 136.940  0.00  0.00    +0.000 A 
ATOM      8  C   UNL     1     112.359 128.246 136.854  0.00  0.00    +0.000 A 
ATOM      9  C   UNL     1     112.514 128.706 137.521  0.00  0.00    +0.000 A 
ATOM     10  C   UNL     1     112.446 128.573 136.064  0.00  0.00    +0.000 A 
ATOM     11  C   UNL     1     112.765 129.524 137.445  0.00  0.00    +0.000 A 
ATOM     12  C   UNL     1     112.696 129.389 135.968  0.00  0.00    +0.000 A 
ATOM     13  C   UNL     1     112.857 129.868 136.663  0.00  0.00    +0.000 A 
ENDROOT
BRANCH   6  15
ATOM     14  O   UNL     1     111.843 126.296 141.375  0.00  0.00    +0.000 OA
ATOM     15  C   UNL     1     112.100 127.272 139.114  0.00  0.00    +0.000 A 
ATOM     16  C   UNL     1     112.765 127.147 139.588  0.00  0.00    +0.000 A 
ATOM     17  C   UNL     1     111.351 127.071 139.394  0.00  0.00    +0.000 A 
ATOM     18  C   UNL     1     112.678 126.822 140.341  0.00  0.00    +0.000 A 
ATOM     19  C   UNL     1     111.265 126.746 140.148  0.00  0.00    +0.000 A 
ATOM     20  C   UNL     1     111.929 126.622 140.621  0.00  0.00    +0.000 A 
BRANCH  18  21
ATOM     21  O   UNL     1     113.343 126.698 140.815  0.00  0.00    +0.000 OA
BRANCH  21  22
ATOM     22  S   UNL     1     113.965 127.240 140.804  0.00  0.00    +0.000 S 
ATOM     23  O   UNL     1     114.587 127.782 140.794  0.00  0.00    +0.000 OA
ATOM     24  O   UNL     1     113.534 127.744 141.295  0.00  0.00    +0.000 OA
ATOM     25  O   UNL     1     114.396 126.735 140.314  0.00  0.00    +0.000 OA
ENDBRANCH  21  22
ENDBRANCH  18  21
ENDBRANCH   6  15
BRANCH   5  26
ATOM     26  O   UNL     1     111.792 126.352 137.779  0.00  0.00    +0.000 OA
BRANCH  26  34
ATOM     27  O   UNL     1     113.058 125.792 137.428  0.00  0.00    +0.000 OA
ATOM     28  O   UNL     1     111.917 123.831 136.440  0.00  0.00    +0.000 OA
ATOM     29  O   UNL     1     111.031 125.045 137.121  0.00  0.00    +0.000 OA
ATOM     30  O   UNL     1     113.563 123.925 136.418  0.00  0.00    +0.000 OA
ATOM     31  C   UNL     1     112.297 124.484 136.770  0.00  0.00    +0.000 C 
ATOM     32  C   UNL     1     111.854 125.092 137.110  0.00  0.00    +0.000 C 
ATOM     33  C   UNL     1     113.121 124.532 136.759  0.00  0.00    +0.000 C 
ATOM     34  C   UNL     1     112.235 125.746 137.439  0.00  0.00    +0.000 C 
ATOM     35  C   UNL     1     113.501 125.186 137.088  0.00  0.00    +0.000 C 
BRANCH  35  38
ATOM     36  O   UNL     1     114.712 125.535 136.414  0.00  0.00    +0.000 OA
ATOM     37  O   UNL     1     114.761 124.976 137.728  0.00  0.00    +0.000 OA
ATOM     38  C   UNL     1     114.324 125.232 137.076  0.00  0.00    +0.000 C 
ENDBRANCH  35  38
ENDBRANCH  26  34
ENDBRANCH   5  26
TORSDOF 6
ENDMDL
MODEL 7
REMARK VINA RESULT:      -9.3      9.683     12.101
REMARK  Name = 74978248
REMARK  6 active torsions:
REMARK  status: ('A' for Active; 'I' for Inactive)
REMARK    1  A    between atoms: S_1  and  O_12
REMARK    2  A    between atoms: O_3  and  C_21
REMARK    3  A    between atoms: O_3  and  C_24
REMARK    4  A    between atoms: O_12  and  C_36
REMARK    5  A    between atoms: C_22  and  C_23
REMARK    6  A    between atoms: C_25  and  C_29
REMARK                            x       y       z     vdW  Elec       q    Type
REMARK                         _______ _______ _______ _____ _____    ______ ____
ROOT
ATOM      1  O   UNL     1     112.114 126.926 136.538  0.00  0.00    +0.000 OA
ATOM      2  O   UNL     1     111.143 127.884 138.604  0.00  0.00    +0.000 OA
ATOM      3  O   UNL     1     111.117 129.201 138.016  0.00  0.00    +0.000 OA
ATOM      4  O   UNL     1     112.093 129.555 135.285  0.00  0.00    +0.000 OA
ATOM      5  C   UNL     1     111.635 126.758 137.875  0.00  0.00    +0.000 A 
ATOM      6  C   UNL     1     111.959 126.439 137.186  0.00  0.00    +0.000 A 
ATOM      7  C   UNL     1     111.467 127.564 137.915  0.00  0.00    +0.000 A 
ATOM      8  C   UNL     1     111.621 128.052 137.267  0.00  0.00    +0.000 A 
ATOM      9  C   UNL     1     111.945 127.732 136.580  0.00  0.00    +0.000 A 
ATOM     10  C   UNL     1     111.441 128.890 137.323  0.00  0.00    +0.000 A 
ATOM     11  C   UNL     1     112.110 128.229 135.898  0.00  0.00    +0.000 A 
ATOM     12  C   UNL     1     111.600 129.402 136.652  0.00  0.00    +0.000 A 
ATOM     13  C   UNL     1     111.937 129.070 135.934  0.00  0.00    +0.000 A 
ENDROOT
BRANCH   6  15
ATOM     14  O   UNL     1     112.636 123.213 137.025  0.00  0.00    +0.000 OA
ATOM     15  C   UNL     1     112.128 125.632 137.145  0.00  0.00    +0.000 A 
ATOM     16  C   UNL     1     112.912 125.375 137.149  0.00  0.00    +0.000 A 
ATOM     17  C   UNL     1     111.513 125.083 137.102  0.00  0.00    +0.000 A 
ATOM     18  C   UNL     1     113.081 124.568 137.108  0.00  0.00    +0.000 A 
ATOM     19  C   UNL     1     111.683 124.277 137.061  0.00  0.00    +0.000 A 
ATOM     20  C   UNL     1     112.466 124.019 137.065  0.00  0.00    +0.000 A 
BRANCH  18  21
ATOM     21  O   UNL     1     113.865 124.310 137.112  0.00  0.00    +0.000 OA
BRANCH  21  22
ATOM     22  S   UNL     1     114.462 124.801 136.822  0.00  0.00    +0.000 S 
ATOM     23  O   UNL     1     115.059 125.292 136.533  0.00  0.00    +0.000 OA
ATOM     24  O   UNL     1     114.239 124.617 136.050  0.00  0.00    +0.000 OA
ATOM     25  O   UNL     1     114.685 124.985 137.595  0.00  0.00    +0.000 OA
ENDBRANCH  21  22
ENDBRANCH  18  21
ENDBRANCH   6  15
BRANCH   5  26
ATOM     26  O   UNL     1     111.481 126.271 138.522  0.00  0.00    +0.000 OA
BRANCH  26  34
ATOM     27  O   UNL     1     112.592 126.741 139.288  0.00  0.00    +0.000 OA
ATOM     28  O   UNL     1     111.336 126.309 141.376  0.00  0.00    +0.000 OA
ATOM     29  O   UNL     1     110.643 125.983 139.915  0.00  0.00    +0.000 OA
ATOM     30  O   UNL     1     112.865 126.923 141.445  0.00  0.00    +0.000 OA
ATOM     31  C   UNL     1     111.754 126.453 140.680  0.00  0.00    +0.000 C 
ATOM     32  C   UNL     1     111.408 126.290 139.949  0.00  0.00    +0.000 C 
ATOM     33  C   UNL     1     112.519 126.760 140.714  0.00  0.00    +0.000 C 
ATOM     34  C   UNL     1     111.827 126.434 139.253  0.00  0.00    +0.000 C 
ATOM     35  C   UNL     1     112.938 126.904 140.018  0.00  0.00    +0.000 C 
BRANCH  35  38
ATOM     36  O   UNL     1     113.820 128.028 140.059  0.00  0.00    +0.000 OA
ATOM     37  O   UNL     1     114.350 126.701 140.082  0.00  0.00    +0.000 OA
ATOM     38  C   UNL     1     113.702 127.211 140.053  0.00  0.00    +0.000 C 
ENDBRANCH  35  38
ENDBRANCH  26  34
ENDBRANCH   5  26
TORSDOF 6
ENDMDL
MODEL 8
REMARK VINA RESULT:      -9.3     10.721     12.940
REMARK  Name = 74978248
REMARK  6 active torsions:
REMARK  status: ('A' for Active; 'I' for Inactive)
REMARK    1  A    between atoms: S_1  and  O_12
REMARK    2  A    between atoms: O_3  and  C_21
REMARK    3  A    between atoms: O_3  and  C_24
REMARK    4  A    between atoms: O_12  and  C_36
REMARK    5  A    between atoms: C_22  and  C_23
REMARK    6  A    between atoms: C_25  and  C_29
REMARK                            x       y       z     vdW  Elec       q    Type
REMARK                         _______ _______ _______ _____ _____    ______ ____
ROOT
ATOM      1  O   UNL     1     112.909 128.456 138.224  0.00  0.00    +0.000 OA
ATOM      2  O   UNL     1     112.299 126.128 138.804  0.00  0.00    +0.000 OA
ATOM      3  O   UNL     1     112.790 126.304 140.149  0.00  0.00    +0.000 OA
ATOM      4  O   UNL     1     113.920 128.884 140.922  0.00  0.00    +0.000 OA
ATOM      5  C   UNL     1     112.357 127.191 137.851  0.00  0.00    +0.000 A 
ATOM      6  C   UNL     1     112.561 127.968 137.658  0.00  0.00    +0.000 A 
ATOM      7  C   UNL     1     112.502 126.904 138.611  0.00  0.00    +0.000 A 
ATOM      8  C   UNL     1     112.851 127.393 139.177  0.00  0.00    +0.000 A 
ATOM      9  C   UNL     1     113.054 128.168 138.984  0.00  0.00    +0.000 A 
ATOM     10  C   UNL     1     112.997 127.081 139.965  0.00  0.00    +0.000 A 
ATOM     11  C   UNL     1     113.417 128.687 139.564  0.00  0.00    +0.000 A 
ATOM     12  C   UNL     1     113.359 127.585 140.559  0.00  0.00    +0.000 A 
ATOM     13  C   UNL     1     113.571 128.393 140.358  0.00  0.00    +0.000 A 
ENDROOT
BRANCH   6  15
ATOM     14  O   UNL     1     111.983 129.115 134.618  0.00  0.00    +0.000 OA
ATOM     15  C   UNL     1     112.416 128.254 136.898  0.00  0.00    +0.000 A 
ATOM     16  C   UNL     1     113.047 128.408 136.388  0.00  0.00    +0.000 A 
ATOM     17  C   UNL     1     111.641 128.388 136.648  0.00  0.00    +0.000 A 
ATOM     18  C   UNL     1     112.901 128.695 135.629  0.00  0.00    +0.000 A 
ATOM     19  C   UNL     1     111.497 128.675 135.888  0.00  0.00    +0.000 A 
ATOM     20  C   UNL     1     112.127 128.828 135.379  0.00  0.00    +0.000 A 
BRANCH  18  21
ATOM     21  O   UNL     1     113.532 128.848 135.119  0.00  0.00    +0.000 OA
BRANCH  21  22
ATOM     22  S   UNL     1     114.223 129.195 135.409  0.00  0.00    +0.000 S 
ATOM     23  O   UNL     1     114.913 129.541 135.699  0.00  0.00    +0.000 OA
ATOM     24  O   UNL     1     114.592 128.457 135.410  0.00  0.00    +0.000 OA
ATOM     25  O   UNL     1     113.853 129.932 135.407  0.00  0.00    +0.000 OA
ENDBRANCH  21  22
ENDBRANCH  18  21
ENDBRANCH   6  15
BRANCH   5  26
ATOM     26  O   UNL     1     112.009 126.703 137.285  0.00  0.00    +0.000 OA
BRANCH  26  34
ATOM     27  O   UNL     1     113.195 125.940 137.055  0.00  0.00    +0.000 OA
ATOM     28  O   UNL     1     111.815 123.969 136.474  0.00  0.00    +0.000 OA
ATOM     29  O   UNL     1     111.089 125.389 136.898  0.00  0.00    +0.000 OA
ATOM     30  O   UNL     1     113.460 123.863 136.437  0.00  0.00    +0.000 OA
ATOM     31  C   UNL     1     112.275 124.626 136.668  0.00  0.00    +0.000 C 
ATOM     32  C   UNL     1     111.912 125.337 136.880  0.00  0.00    +0.000 C 
ATOM     33  C   UNL     1     113.098 124.574 136.649  0.00  0.00    +0.000 C 
ATOM     34  C   UNL     1     112.372 125.993 137.073  0.00  0.00    +0.000 C 
ATOM     35  C   UNL     1     113.558 125.230 136.843  0.00  0.00    +0.000 C 
BRANCH  35  38
ATOM     36  O   UNL     1     114.790 124.881 137.477  0.00  0.00    +0.000 OA
ATOM     37  O   UNL     1     114.794 125.420 136.153  0.00  0.00    +0.000 OA
ATOM     38  C   UNL     1     114.380 125.177 136.825  0.00  0.00    +0.000 C 
ENDBRANCH  35  38
ENDBRANCH  26  34
ENDBRANCH   5  26
TORSDOF 6
ENDMDL
MODEL 9
REMARK VINA RESULT:      -9.1      9.082     11.168
REMARK  Name = 74978248
REMARK  6 active torsions:
REMARK  status: ('A' for Active; 'I' for Inactive)
REMARK    1  A    between atoms: S_1  and  O_12
REMARK    2  A    between atoms: O_3  and  C_21
REMARK    3  A    between atoms: O_3  and  C_24
REMARK    4  A    between atoms: O_12  and  C_36
REMARK    5  A    between atoms: C_22  and  C_23
REMARK    6  A    between atoms: C_25  and  C_29
REMARK                            x       y       z     vdW  Elec       q    Type
REMARK                         _______ _______ _______ _____ _____    ______ ____
ROOT
ATOM      1  O   UNL     1     112.302 125.591 138.319  0.00  0.00    +0.000 OA
ATOM      2  O   UNL     1     112.095 127.162 136.417  0.00  0.00    +0.000 OA
ATOM      3  O   UNL     1     111.752 126.082 135.524  0.00  0.00    +0.000 OA
ATOM      4  O   UNL     1     111.616 123.360 136.577  0.00  0.00    +0.000 OA
ATOM      5  C   UNL     1     112.367 126.921 137.799  0.00  0.00    +0.000 A 
ATOM      6  C   UNL     1     112.436 126.397 138.433  0.00  0.00    +0.000 A 
ATOM      7  C   UNL     1     112.164 126.638 137.051  0.00  0.00    +0.000 A 
ATOM      8  C   UNL     1     112.030 125.832 136.937  0.00  0.00    +0.000 A 
ATOM      9  C   UNL     1     112.099 125.309 137.570  0.00  0.00    +0.000 A 
ATOM     10  C   UNL     1     111.819 125.551 136.153  0.00  0.00    +0.000 A 
ATOM     11  C   UNL     1     111.961 124.468 137.465  0.00  0.00    +0.000 A 
ATOM     12  C   UNL     1     111.678 124.712 136.028  0.00  0.00    +0.000 A 
ATOM     13  C   UNL     1     111.749 124.167 136.688  0.00  0.00    +0.000 A 
ENDROOT
BRANCH   6  15
ATOM     14  O   UNL     1     113.247 127.529 141.425  0.00  0.00    +0.000 OA
ATOM     15  C   UNL     1     112.639 126.680 139.180  0.00  0.00    +0.000 A 
ATOM     16  C   UNL     1     112.067 126.724 139.774  0.00  0.00    +0.000 A 
ATOM     17  C   UNL     1     113.414 126.919 139.335  0.00  0.00    +0.000 A 
ATOM     18  C   UNL     1     112.271 127.007 140.522  0.00  0.00    +0.000 A 
ATOM     19  C   UNL     1     113.616 127.202 140.084  0.00  0.00    +0.000 A 
ATOM     20  C   UNL     1     113.045 127.246 140.677  0.00  0.00    +0.000 A 
BRANCH  18  21
ATOM     21  O   UNL     1     111.698 127.050 141.116  0.00  0.00    +0.000 OA
BRANCH  21  22
ATOM     22  S   UNL     1     111.057 126.532 141.109  0.00  0.00    +0.000 S 
ATOM     23  O   UNL     1     110.415 126.013 141.103  0.00  0.00    +0.000 OA
ATOM     24  O   UNL     1     110.571 127.136 140.827  0.00  0.00    +0.000 OA
ATOM     25  O   UNL     1     111.542 125.927 141.392  0.00  0.00    +0.000 OA
ENDBRANCH  21  22
ENDBRANCH  18  21
ENDBRANCH   6  15
BRANCH   5  26
ATOM     26  O   UNL     1     112.502 127.727 137.913  0.00  0.00    +0.000 OA
BRANCH  26  34
ATOM     27  O   UNL     1     111.122 128.095 137.849  0.00  0.00    +0.000 OA
ATOM     28  O   UNL     1     111.749 130.277 136.864  0.00  0.00    +0.000 OA
ATOM     29  O   UNL     1     112.919 129.182 137.256  0.00  0.00    +0.000 OA
ATOM     30  O   UNL     1     110.161 129.917 137.129  0.00  0.00    +0.000 OA
ATOM     31  C   UNL     1     111.540 129.549 137.192  0.00  0.00    +0.000 C 
ATOM     32  C   UNL     1     112.126 129.001 137.389  0.00  0.00    +0.000 C 
ATOM     33  C   UNL     1     110.746 129.369 137.325  0.00  0.00    +0.000 C 
ATOM     34  C   UNL     1     111.917 128.274 137.717  0.00  0.00    +0.000 C 
ATOM     35  C   UNL     1     110.537 128.642 137.654  0.00  0.00    +0.000 C 
BRANCH  35  38
ATOM     36  O   UNL     1     109.292 128.119 137.187  0.00  0.00    +0.000 OA
ATOM     37  O   UNL     1     109.401 128.625 138.518  0.00  0.00    +0.000 OA
ATOM     38  C   UNL     1     109.744 128.462 137.786  0.00  0.00    +0.000 C 
ENDBRANCH  35  38
ENDBRANCH  26  34
ENDBRANCH   5  26
TORSDOF 6
ENDMDL
MODEL 10
REMARK VINA RESULT:      -9.1     10.266     12.366
REMARK  Name = 74978248
REMARK  6 active torsions:
REMARK  status: ('A' for Active; 'I' for Inactive)
REMARK    1  A    between atoms: S_1  and  O_12
REMARK    2  A    between atoms: O_3  and  C_21
REMARK    3  A    between atoms: O_3  and  C_24
REMARK    4  A    between atoms: O_12  and  C_36
REMARK    5  A    between atoms: C_22  and  C_23
REMARK    6  A    between atoms: C_25  and  C_29
REMARK                            x       y       z     vdW  Elec       q    Type
REMARK                         _______ _______ _______ _____ _____    ______ ____
ROOT
ATOM      1  O   UNL     1     113.069 126.251 138.746  0.00  0.00    +0.000 OA
ATOM      2  O   UNL     1     112.970 128.622 138.041  0.00  0.00    +0.000 OA
ATOM      3  O   UNL     1     112.482 129.018 139.340  0.00  0.00    +0.000 OA
ATOM      4  O   UNL     1     112.087 126.976 141.391  0.00  0.00    +0.000 OA
ATOM      5  C   UNL     1     113.260 127.254 137.746  0.00  0.00    +0.000 A 
ATOM      6  C   UNL     1     113.293 126.464 137.981  0.00  0.00    +0.000 A 
ATOM      7  C   UNL     1     113.003 127.831 138.277  0.00  0.00    +0.000 A 
ATOM      8  C   UNL     1     112.778 127.619 139.041  0.00  0.00    +0.000 A 
ATOM      9  C   UNL     1     112.811 126.829 139.276  0.00  0.00    +0.000 A 
ATOM     10  C   UNL     1     112.512 128.230 139.584  0.00  0.00    +0.000 A 
ATOM     11  C   UNL     1     112.581 126.594 140.069  0.00  0.00    +0.000 A 
ATOM     12  C   UNL     1     112.277 128.014 140.382  0.00  0.00    +0.000 A 
ATOM     13  C   UNL     1     112.311 127.191 140.627  0.00  0.00    +0.000 A 
ENDROOT
BRANCH   6  15
ATOM     14  O   UNL     1     114.321 124.154 135.860  0.00  0.00    +0.000 OA
ATOM     15  C   UNL     1     113.551 125.887 137.451  0.00  0.00    +0.000 A 
ATOM     16  C   UNL     1     113.015 125.334 137.151  0.00  0.00    +0.000 A 
ATOM     17  C   UNL     1     114.343 125.861 137.221  0.00  0.00    +0.000 A 
ATOM     18  C   UNL     1     113.273 124.757 136.621  0.00  0.00    +0.000 A 
ATOM     19  C   UNL     1     114.599 125.283 136.690  0.00  0.00    +0.000 A 
ATOM     20  C   UNL     1     114.065 124.732 136.390  0.00  0.00    +0.000 A 
BRANCH  18  21
ATOM     21  O   UNL     1     112.737 124.205 136.320  0.00  0.00    +0.000 OA
BRANCH  21  22
ATOM     22  S   UNL     1     112.155 123.887 136.810  0.00  0.00    +0.000 S 
ATOM     23  O   UNL     1     111.572 123.569 137.300  0.00  0.00    +0.000 OA
ATOM     24  O   UNL     1     111.596 124.391 136.472  0.00  0.00    +0.000 OA
ATOM     25  O   UNL     1     112.714 123.383 137.148  0.00  0.00    +0.000 OA
ENDBRANCH  21  22
ENDBRANCH  18  21
ENDBRANCH   6  15
BRANCH   5  26
ATOM     26  O   UNL     1     113.485 127.467 136.981  0.00  0.00    +0.000 OA
BRANCH  26  34
ATOM     27  O   UNL     1     112.147 127.640 136.509  0.00  0.00    +0.000 OA
ATOM     28  O   UNL     1     112.928 129.385 134.938  0.00  0.00    +0.000 OA
ATOM     29  O   UNL     1     114.005 128.631 135.934  0.00  0.00    +0.000 OA
ATOM     30  O   UNL     1     111.331 128.976 134.989  0.00  0.00    +0.000 OA
ATOM     31  C   UNL     1     112.668 128.803 135.461  0.00  0.00    +0.000 C 
ATOM     32  C   UNL     1     113.207 128.426 135.960  0.00  0.00    +0.000 C 
ATOM     33  C   UNL     1     111.869 128.598 135.487  0.00  0.00    +0.000 C 
ATOM     34  C   UNL     1     112.946 127.844 136.484  0.00  0.00    +0.000 C 
ATOM     35  C   UNL     1     111.609 128.016 136.011  0.00  0.00    +0.000 C 
BRANCH  35  38
ATOM     36  O   UNL     1     110.291 128.235 136.518  0.00  0.00    +0.000 OA
ATOM     37  O   UNL     1     110.531 127.184 135.581  0.00  0.00    +0.000 OA
ATOM     38  C   UNL     1     110.811 127.812 136.037  0.00  0.00    +0.000 C 
ENDBRANCH  35  38
ENDBRANCH  26  34
ENDBRANCH   5  26
TORSDOF 6
ENDMDL
