MODEL 1
REMARK VINA RESULT:      -7.9      0.000      0.000
REMARK  Name = 44259691
REMARK  6 active torsions:
REMARK  status: ('A' for Active; 'I' for Inactive)
REMARK    1  A    between atoms: O_2  and  C_12
REMARK    2  A    between atoms: O_3  and  C_18
REMARK    3  A    between atoms: O_3  and  C_23
REMARK    4  A    between atoms: O_4  and  C_17
REMARK    5  A    between atoms: C_8  and  C_10
REMARK    6  A    between atoms: C_23  and  C_24
REMARK                            x       y       z     vdW  Elec       q    Type
REMARK                         _______ _______ _______ _____ _____    ______ ____
ROOT
ATOM      1  O   UNL     1     113.368 126.777 136.863  0.00  0.00    +0.000 OA
ATOM      2  O   UNL     1     112.340 124.141 136.277  0.00  0.00    +0.000 OA
ATOM      3  O   UNL     1     111.579 125.325 135.960  0.00  0.00    +0.000 OA
ATOM      4  O   UNL     1     114.961 124.433 137.533  0.00  0.00    +0.000 OA
ATOM      5  C   UNL     1     112.682 127.113 136.550  0.00  0.00    +0.000 A 
ATOM      6  C   UNL     1     112.860 125.473 136.574  0.00  0.00    +0.000 A 
ATOM      7  C   UNL     1     113.457 125.957 136.875  0.00  0.00    +0.000 A 
ATOM      8  C   UNL     1     112.086 126.629 136.249  0.00  0.00    +0.000 A 
ATOM      9  C   UNL     1     112.175 125.809 136.261  0.00  0.00    +0.000 A 
ATOM     10  C   UNL     1     112.941 124.617 136.580  0.00  0.00    +0.000 A 
ATOM     11  C   UNL     1     114.175 125.619 137.204  0.00  0.00    +0.000 A 
ATOM     12  C   UNL     1     114.274 124.766 137.219  0.00  0.00    +0.000 A 
ATOM     13  C   UNL     1     113.653 124.262 136.905  0.00  0.00    +0.000 A 
ENDROOT
BRANCH   5  14
ATOM     14  C   UNL     1     112.594 127.933 136.538  0.00  0.00    +0.000 A 
ATOM     15  C   UNL     1     112.922 128.376 135.924  0.00  0.00    +0.000 A 
ATOM     16  C   UNL     1     112.176 128.312 137.142  0.00  0.00    +0.000 A 
ATOM     17  C   UNL     1     112.833 129.196 135.914  0.00  0.00    +0.000 A 
ATOM     18  C   UNL     1     112.416 129.574 136.516  0.00  0.00    +0.000 A 
ATOM     19  C   UNL     1     112.088 129.132 137.131  0.00  0.00    +0.000 A 
BRANCH  17  20
ATOM     20  O   UNL     1     113.162 129.638 135.300  0.00  0.00    +0.000 OA
ATOM     21  C   UNL     1     113.819 129.352 134.890  0.00  0.00    +0.000 C 
ENDBRANCH  17  20
BRANCH  18  22
ATOM     22  O   UNL     1     112.327 130.394 136.506  0.00  0.00    +0.000 OA
BRANCH  22  23
ATOM     23  C   UNL     1     111.633 130.738 136.788  0.00  0.00    +0.000 C 
BRANCH  23  24
ATOM     24  C   UNL     1     111.609 131.546 136.953  0.00  0.00    +0.000 C 
ATOM     25  C   UNL     1     110.889 131.948 136.947  0.00  0.00    +0.000 C 
ATOM     26  C   UNL     1     110.865 132.756 137.112  0.00  0.00    +0.000 C 
ATOM     27  C   UNL     1     110.192 131.542 136.775  0.00  0.00    +0.000 C 
ENDBRANCH  23  24
ENDBRANCH  22  23
ENDBRANCH  18  22
ENDBRANCH   5  14
BRANCH   8  28
ATOM     28  O   UNL     1     111.401 126.965 135.936  0.00  0.00    +0.000 OA
ATOM     29  C   UNL     1     110.934 126.535 135.410  0.00  0.00    +0.000 C 
ENDBRANCH   8  28
TORSDOF 6
ENDMDL
MODEL 2
REMARK VINA RESULT:      -7.8      1.454      5.660
REMARK  Name = 44259691
REMARK  6 active torsions:
REMARK  status: ('A' for Active; 'I' for Inactive)
REMARK    1  A    between atoms: O_2  and  C_12
REMARK    2  A    between atoms: O_3  and  C_18
REMARK    3  A    between atoms: O_3  and  C_23
REMARK    4  A    between atoms: O_4  and  C_17
REMARK    5  A    between atoms: C_8  and  C_10
REMARK    6  A    between atoms: C_23  and  C_24
REMARK                            x       y       z     vdW  Elec       q    Type
REMARK                         _______ _______ _______ _____ _____    ______ ____
ROOT
ATOM      1  O   UNL     1     111.367 130.229 136.494  0.00  0.00    +0.000 OA
ATOM      2  O   UNL     1     110.755 132.370 138.336  0.00  0.00    +0.000 OA
ATOM      3  O   UNL     1     111.735 131.364 138.662  0.00  0.00    +0.000 OA
ATOM      4  O   UNL     1     109.375 132.224 135.765  0.00  0.00    +0.000 OA
ATOM      5  C   UNL     1     111.917 129.926 137.030  0.00  0.00    +0.000 A 
ATOM      6  C   UNL     1     111.064 131.288 137.404  0.00  0.00    +0.000 A 
ATOM      7  C   UNL     1     110.941 130.910 136.681  0.00  0.00    +0.000 A 
ATOM      8  C   UNL     1     112.040 130.305 137.753  0.00  0.00    +0.000 A 
ATOM      9  C   UNL     1     111.613 130.986 137.940  0.00  0.00    +0.000 A 
ATOM     10  C   UNL     1     110.625 131.998 137.610  0.00  0.00    +0.000 A 
ATOM     11  C   UNL     1     110.371 131.216 136.115  0.00  0.00    +0.000 A 
ATOM     12  C   UNL     1     109.924 131.924 136.304  0.00  0.00    +0.000 A 
ATOM     13  C   UNL     1     110.052 132.318 137.057  0.00  0.00    +0.000 A 
ENDROOT
BRANCH   5  14
ATOM     14  C   UNL     1     112.343 129.245 136.843  0.00  0.00    +0.000 A 
ATOM     15  C   UNL     1     113.026 129.299 136.383  0.00  0.00    +0.000 A 
ATOM     16  C   UNL     1     112.086 128.510 137.115  0.00  0.00    +0.000 A 
ATOM     17  C   UNL     1     113.452 128.617 136.196  0.00  0.00    +0.000 A 
ATOM     18  C   UNL     1     113.195 127.883 136.468  0.00  0.00    +0.000 A 
ATOM     19  C   UNL     1     112.512 127.829 136.928  0.00  0.00    +0.000 A 
BRANCH  17  20
ATOM     20  O   UNL     1     114.135 128.671 135.737  0.00  0.00    +0.000 OA
ATOM     21  C   UNL     1     114.247 129.320 135.239  0.00  0.00    +0.000 C 
ENDBRANCH  17  20
BRANCH  18  22
ATOM     22  O   UNL     1     113.620 127.201 136.281  0.00  0.00    +0.000 OA
BRANCH  22  23
ATOM     23  C   UNL     1     113.685 126.590 136.832  0.00  0.00    +0.000 C 
BRANCH  23  24
ATOM     24  C   UNL     1     114.012 125.866 136.609  0.00  0.00    +0.000 C 
ATOM     25  C   UNL     1     114.275 125.338 137.185  0.00  0.00    +0.000 C 
ATOM     26  C   UNL     1     114.603 124.614 136.963  0.00  0.00    +0.000 C 
ATOM     27  C   UNL     1     114.210 125.533 137.984  0.00  0.00    +0.000 C 
ENDBRANCH  23  24
ENDBRANCH  22  23
ENDBRANCH  18  22
ENDBRANCH   5  14
BRANCH   8  28
ATOM     28  O   UNL     1     112.589 130.002 138.288  0.00  0.00    +0.000 OA
ATOM     29  C   UNL     1     112.951 130.503 138.835  0.00  0.00    +0.000 C 
ENDBRANCH   8  28
TORSDOF 6
ENDMDL
MODEL 3
REMARK VINA RESULT:      -7.7      1.408      5.370
REMARK  Name = 44259691
REMARK  6 active torsions:
REMARK  status: ('A' for Active; 'I' for Inactive)
REMARK    1  A    between atoms: O_2  and  C_12
REMARK    2  A    between atoms: O_3  and  C_18
REMARK    3  A    between atoms: O_3  and  C_23
REMARK    4  A    between atoms: O_4  and  C_17
REMARK    5  A    between atoms: C_8  and  C_10
REMARK    6  A    between atoms: C_23  and  C_24
REMARK                            x       y       z     vdW  Elec       q    Type
REMARK                         _______ _______ _______ _____ _____    ______ ____
ROOT
ATOM      1  O   UNL     1     111.713 130.348 136.804  0.00  0.00    +0.000 OA
ATOM      2  O   UNL     1     109.310 131.487 135.671  0.00  0.00    +0.000 OA
ATOM      3  O   UNL     1     109.827 130.223 135.206  0.00  0.00    +0.000 OA
ATOM      4  O   UNL     1     110.730 132.904 137.794  0.00  0.00    +0.000 OA
ATOM      5  C   UNL     1     111.643 129.700 136.297  0.00  0.00    +0.000 A 
ATOM      6  C   UNL     1     110.525 130.912 136.244  0.00  0.00    +0.000 A 
ATOM      7  C   UNL     1     111.153 130.954 136.777  0.00  0.00    +0.000 A 
ATOM      8  C   UNL     1     111.014 129.658 135.765  0.00  0.00    +0.000 A 
ATOM      9  C   UNL     1     110.455 130.264 135.739  0.00  0.00    +0.000 A 
ATOM     10  C   UNL     1     109.936 131.537 136.207  0.00  0.00    +0.000 A 
ATOM     11  C   UNL     1     111.237 131.624 137.309  0.00  0.00    +0.000 A 
ATOM     12  C   UNL     1     110.658 132.258 137.286  0.00  0.00    +0.000 A 
ATOM     13  C   UNL     1     110.003 132.214 136.731  0.00  0.00    +0.000 A 
ENDROOT
BRANCH   5  14
ATOM     14  C   UNL     1     112.202 129.094 136.324  0.00  0.00    +0.000 A 
ATOM     15  C   UNL     1     112.894 129.151 135.878  0.00  0.00    +0.000 A 
ATOM     16  C   UNL     1     112.069 128.431 136.798  0.00  0.00    +0.000 A 
ATOM     17  C   UNL     1     113.453 128.544 135.906  0.00  0.00    +0.000 A 
ATOM     18  C   UNL     1     113.320 127.882 136.379  0.00  0.00    +0.000 A 
ATOM     19  C   UNL     1     112.628 127.825 136.825  0.00  0.00    +0.000 A 
BRANCH  17  20
ATOM     20  O   UNL     1     114.145 128.600 135.461  0.00  0.00    +0.000 OA
ATOM     21  C   UNL     1     114.422 129.340 135.220  0.00  0.00    +0.000 C 
ENDBRANCH  17  20
BRANCH  18  22
ATOM     22  O   UNL     1     113.879 127.275 136.407  0.00  0.00    +0.000 OA
BRANCH  22  23
ATOM     23  C   UNL     1     113.655 126.518 136.645  0.00  0.00    +0.000 C 
BRANCH  23  24
ATOM     24  C   UNL     1     114.219 125.995 136.944  0.00  0.00    +0.000 C 
ATOM     25  C   UNL     1     114.093 125.182 136.899  0.00  0.00    +0.000 C 
ATOM     26  C   UNL     1     114.657 124.659 137.198  0.00  0.00    +0.000 C 
ATOM     27  C   UNL     1     113.402 124.890 136.555  0.00  0.00    +0.000 C 
ENDBRANCH  23  24
ENDBRANCH  22  23
ENDBRANCH  18  22
ENDBRANCH   5  14
BRANCH   8  28
ATOM     28  O   UNL     1     110.945 129.010 135.259  0.00  0.00    +0.000 OA
ATOM     29  C   UNL     1     110.341 128.989 134.698  0.00  0.00    +0.000 C 
ENDBRANCH   8  28
TORSDOF 6
ENDMDL
MODEL 4
REMARK VINA RESULT:      -7.7      2.027      2.641
REMARK  Name = 44259691
REMARK  6 active torsions:
REMARK  status: ('A' for Active; 'I' for Inactive)
REMARK    1  A    between atoms: O_2  and  C_12
REMARK    2  A    between atoms: O_3  and  C_18
REMARK    3  A    between atoms: O_3  and  C_23
REMARK    4  A    between atoms: O_4  and  C_17
REMARK    5  A    between atoms: C_8  and  C_10
REMARK    6  A    between atoms: C_23  and  C_24
REMARK                            x       y       z     vdW  Elec       q    Type
REMARK                         _______ _______ _______ _____ _____    ______ ____
ROOT
ATOM      1  O   UNL     1     112.494 126.143 136.348  0.00  0.00    +0.000 OA
ATOM      2  O   UNL     1     111.139 124.884 138.569  0.00  0.00    +0.000 OA
ATOM      3  O   UNL     1     111.348 126.310 138.536  0.00  0.00    +0.000 OA
ATOM      4  O   UNL     1     112.108 123.256 136.345  0.00  0.00    +0.000 OA
ATOM      5  C   UNL     1     112.400 126.879 136.710  0.00  0.00    +0.000 A 
ATOM      6  C   UNL     1     111.824 125.519 137.446  0.00  0.00    +0.000 A 
ATOM      7  C   UNL     1     112.206 125.463 136.717  0.00  0.00    +0.000 A 
ATOM      8  C   UNL     1     112.018 126.935 137.439  0.00  0.00    +0.000 A 
ATOM      9  C   UNL     1     111.730 126.255 137.807  0.00  0.00    +0.000 A 
ATOM     10  C   UNL     1     111.520 124.818 137.839  0.00  0.00    +0.000 A 
ATOM     11  C   UNL     1     112.310 124.702 136.331  0.00  0.00    +0.000 A 
ATOM     12  C   UNL     1     112.012 123.991 136.709  0.00  0.00    +0.000 A 
ATOM     13  C   UNL     1     111.615 124.049 137.468  0.00  0.00    +0.000 A 
ENDROOT
BRANCH   5  14
ATOM     14  C   UNL     1     112.688 127.558 136.341  0.00  0.00    +0.000 A 
ATOM     15  C   UNL     1     112.242 127.931 135.755  0.00  0.00    +0.000 A 
ATOM     16  C   UNL     1     113.422 127.866 136.559  0.00  0.00    +0.000 A 
ATOM     17  C   UNL     1     112.532 128.610 135.387  0.00  0.00    +0.000 A 
ATOM     18  C   UNL     1     113.265 128.917 135.605  0.00  0.00    +0.000 A 
ATOM     19  C   UNL     1     113.710 128.545 136.191  0.00  0.00    +0.000 A 
BRANCH  17  20
ATOM     20  O   UNL     1     112.086 128.983 134.801  0.00  0.00    +0.000 OA
ATOM     21  C   UNL     1     111.331 128.704 134.616  0.00  0.00    +0.000 C 
ENDBRANCH  17  20
BRANCH  18  22
ATOM     22  O   UNL     1     113.554 129.597 135.237  0.00  0.00    +0.000 OA
BRANCH  22  23
ATOM     23  C   UNL     1     114.311 129.872 135.413  0.00  0.00    +0.000 C 
BRANCH  23  24
ATOM     24  C   UNL     1     114.708 130.361 134.881  0.00  0.00    +0.000 C 
ATOM     25  C   UNL     1     115.313 130.855 135.145  0.00  0.00    +0.000 C 
ATOM     26  C   UNL     1     115.710 131.344 134.612  0.00  0.00    +0.000 C 
ATOM     27  C   UNL     1     115.522 130.860 135.943  0.00  0.00    +0.000 C 
ENDBRANCH  23  24
ENDBRANCH  22  23
ENDBRANCH  18  22
ENDBRANCH   5  14
BRANCH   8  28
ATOM     28  O   UNL     1     111.924 127.670 137.799  0.00  0.00    +0.000 OA
ATOM     29  C   UNL     1     111.486 127.735 138.495  0.00  0.00    +0.000 C 
ENDBRANCH   8  28
TORSDOF 6
ENDMDL
MODEL 5
REMARK VINA RESULT:      -7.6     11.250     11.812
REMARK  Name = 44259691
REMARK  6 active torsions:
REMARK  status: ('A' for Active; 'I' for Inactive)
REMARK    1  A    between atoms: O_2  and  C_12
REMARK    2  A    between atoms: O_3  and  C_18
REMARK    3  A    between atoms: O_3  and  C_23
REMARK    4  A    between atoms: O_4  and  C_17
REMARK    5  A    between atoms: C_8  and  C_10
REMARK    6  A    between atoms: C_23  and  C_24
REMARK                            x       y       z     vdW  Elec       q    Type
REMARK                         _______ _______ _______ _____ _____    ______ ____
ROOT
ATOM      1  O   UNL     1     106.698 125.657 146.516  0.00  0.00    +0.000 OA
ATOM      2  O   UNL     1     105.660 124.389 148.896  0.00  0.00    +0.000 OA
ATOM      3  O   UNL     1     104.776 124.874 147.864  0.00  0.00    +0.000 OA
ATOM      4  O   UNL     1     108.544 124.703 148.555  0.00  0.00    +0.000 OA
ATOM      5  C   UNL     1     105.928 125.763 146.237  0.00  0.00    +0.000 A 
ATOM      6  C   UNL     1     106.185 125.030 147.693  0.00  0.00    +0.000 A 
ATOM      7  C   UNL     1     106.826 125.291 147.244  0.00  0.00    +0.000 A 
ATOM      8  C   UNL     1     105.287 125.501 146.687  0.00  0.00    +0.000 A 
ATOM      9  C   UNL     1     105.417 125.135 147.415  0.00  0.00    +0.000 A 
ATOM     10  C   UNL     1     106.307 124.647 148.453  0.00  0.00    +0.000 A 
ATOM     11  C   UNL     1     107.632 125.187 147.523  0.00  0.00    +0.000 A 
ATOM     12  C   UNL     1     107.773 124.806 148.280  0.00  0.00    +0.000 A 
ATOM     13  C   UNL     1     107.106 124.535 148.748  0.00  0.00    +0.000 A 
ENDROOT
BRANCH   5  14
ATOM     14  C   UNL     1     105.799 126.129 145.509  0.00  0.00    +0.000 A 
ATOM     15  C   UNL     1     105.792 125.680 144.817  0.00  0.00    +0.000 A 
ATOM     16  C   UNL     1     105.678 126.945 145.474  0.00  0.00    +0.000 A 
ATOM     17  C   UNL     1     105.664 126.048 144.089  0.00  0.00    +0.000 A 
ATOM     18  C   UNL     1     105.543 126.863 144.054  0.00  0.00    +0.000 A 
ATOM     19  C   UNL     1     105.550 127.311 144.747  0.00  0.00    +0.000 A 
BRANCH  17  20
ATOM     20  O   UNL     1     105.657 125.600 143.397  0.00  0.00    +0.000 OA
ATOM     21  C   UNL     1     106.014 124.856 143.383  0.00  0.00    +0.000 C 
ENDBRANCH  17  20
BRANCH  18  22
ATOM     22  O   UNL     1     105.414 127.230 143.326  0.00  0.00    +0.000 OA
BRANCH  22  23
ATOM     23  C   UNL     1     105.045 127.967 143.295  0.00  0.00    +0.000 C 
BRANCH  23  24
ATOM     24  C   UNL     1     104.826 128.289 142.568  0.00  0.00    +0.000 C 
ATOM     25  C   UNL     1     104.421 129.006 142.539  0.00  0.00    +0.000 C 
ATOM     26  C   UNL     1     104.202 129.329 141.812  0.00  0.00    +0.000 C 
ATOM     27  C   UNL     1     104.233 129.402 143.239  0.00  0.00    +0.000 C 
ENDBRANCH  23  24
ENDBRANCH  22  23
ENDBRANCH  18  22
ENDBRANCH   5  14
BRANCH   8  28
ATOM     28  O   UNL     1     104.518 125.607 146.409  0.00  0.00    +0.000 OA
ATOM     29  C   UNL     1     103.900 125.161 146.725  0.00  0.00    +0.000 C 
ENDBRANCH   8  28
TORSDOF 6
ENDMDL
MODEL 6
REMARK VINA RESULT:      -7.6     11.327     12.051
REMARK  Name = 44259691
REMARK  6 active torsions:
REMARK  status: ('A' for Active; 'I' for Inactive)
REMARK    1  A    between atoms: O_2  and  C_12
REMARK    2  A    between atoms: O_3  and  C_18
REMARK    3  A    between atoms: O_3  and  C_23
REMARK    4  A    between atoms: O_4  and  C_17
REMARK    5  A    between atoms: C_8  and  C_10
REMARK    6  A    between atoms: C_23  and  C_24
REMARK                            x       y       z     vdW  Elec       q    Type
REMARK                         _______ _______ _______ _____ _____    ______ ____
ROOT
ATOM      1  O   UNL     1     106.716 125.020 146.643  0.00  0.00    +0.000 OA
ATOM      2  O   UNL     1     105.447 124.514 149.189  0.00  0.00    +0.000 OA
ATOM      3  O   UNL     1     104.665 124.706 147.992  0.00  0.00    +0.000 OA
ATOM      4  O   UNL     1     108.360 124.642 149.016  0.00  0.00    +0.000 OA
ATOM      5  C   UNL     1     105.974 125.061 146.282  0.00  0.00    +0.000 A 
ATOM      6  C   UNL     1     106.089 124.770 147.902  0.00  0.00    +0.000 A 
ATOM      7  C   UNL     1     106.773 124.874 147.453  0.00  0.00    +0.000 A 
ATOM      8  C   UNL     1     105.290 124.957 146.732  0.00  0.00    +0.000 A 
ATOM      9  C   UNL     1     105.349 124.811 147.542  0.00  0.00    +0.000 A 
ATOM     10  C   UNL     1     106.136 124.617 148.747  0.00  0.00    +0.000 A 
ATOM     11  C   UNL     1     107.550 124.834 147.816  0.00  0.00    +0.000 A 
ATOM     12  C   UNL     1     107.617 124.682 148.659  0.00  0.00    +0.000 A 
ATOM     13  C   UNL     1     106.905 124.573 149.128  0.00  0.00    +0.000 A 
ENDROOT
BRANCH   5  14
ATOM     14  C   UNL     1     105.917 125.207 145.473  0.00  0.00    +0.000 A 
ATOM     15  C   UNL     1     105.980 125.978 145.186  0.00  0.00    +0.000 A 
ATOM     16  C   UNL     1     105.798 124.581 144.948  0.00  0.00    +0.000 A 
ATOM     17  C   UNL     1     105.923 126.123 144.376  0.00  0.00    +0.000 A 
ATOM     18  C   UNL     1     105.803 125.498 143.852  0.00  0.00    +0.000 A 
ATOM     19  C   UNL     1     105.741 124.726 144.139  0.00  0.00    +0.000 A 
BRANCH  17  20
ATOM     20  O   UNL     1     105.986 126.894 144.090  0.00  0.00    +0.000 OA
ATOM     21  C   UNL     1     105.954 127.533 144.612  0.00  0.00    +0.000 C 
ENDBRANCH  17  20
BRANCH  18  22
ATOM     22  O   UNL     1     105.746 125.642 143.042  0.00  0.00    +0.000 OA
BRANCH  22  23
ATOM     23  C   UNL     1     105.996 125.071 142.502  0.00  0.00    +0.000 C 
BRANCH  23  24
ATOM     24  C   UNL     1     105.755 125.114 141.714  0.00  0.00    +0.000 C 
ATOM     25  C   UNL     1     106.196 124.741 141.126  0.00  0.00    +0.000 C 
ATOM     26  C   UNL     1     105.955 124.784 140.338  0.00  0.00    +0.000 C 
ATOM     27  C   UNL     1     106.879 124.323 141.326  0.00  0.00    +0.000 C 
ENDBRANCH  23  24
ENDBRANCH  22  23
ENDBRANCH  18  22
ENDBRANCH   5  14
BRANCH   8  28
ATOM     28  O   UNL     1     104.550 124.998 146.372  0.00  0.00    +0.000 OA
ATOM     29  C   UNL     1     103.867 125.005 146.834  0.00  0.00    +0.000 C 
ENDBRANCH   8  28
TORSDOF 6
ENDMDL
MODEL 7
REMARK VINA RESULT:      -7.6      2.047      5.555
REMARK  Name = 44259691
REMARK  6 active torsions:
REMARK  status: ('A' for Active; 'I' for Inactive)
REMARK    1  A    between atoms: O_2  and  C_12
REMARK    2  A    between atoms: O_3  and  C_18
REMARK    3  A    between atoms: O_3  and  C_23
REMARK    4  A    between atoms: O_4  and  C_17
REMARK    5  A    between atoms: C_8  and  C_10
REMARK    6  A    between atoms: C_23  and  C_24
REMARK                            x       y       z     vdW  Elec       q    Type
REMARK                         _______ _______ _______ _____ _____    ______ ____
ROOT
ATOM      1  O   UNL     1     110.370 129.957 136.346  0.00  0.00    +0.000 OA
ATOM      2  O   UNL     1     107.559 130.189 135.717  0.00  0.00    +0.000 OA
ATOM      3  O   UNL     1     108.159 128.905 135.983  0.00  0.00    +0.000 OA
ATOM      4  O   UNL     1     109.228 132.584 135.820  0.00  0.00    +0.000 OA
ATOM      5  C   UNL     1     110.285 129.139 136.416  0.00  0.00    +0.000 A 
ATOM      6  C   UNL     1     108.980 130.073 136.035  0.00  0.00    +0.000 A 
ATOM      7  C   UNL     1     109.717 130.424 136.156  0.00  0.00    +0.000 A 
ATOM      8  C   UNL     1     109.549 128.788 136.295  0.00  0.00    +0.000 A 
ATOM      9  C   UNL     1     108.896 129.256 136.104  0.00  0.00    +0.000 A 
ATOM     10  C   UNL     1     108.292 130.549 135.836  0.00  0.00    +0.000 A 
ATOM     11  C   UNL     1     109.817 131.275 136.087  0.00  0.00    +0.000 A 
ATOM     12  C   UNL     1     109.140 131.766 135.889  0.00  0.00    +0.000 A 
ATOM     13  C   UNL     1     108.373 131.401 135.763  0.00  0.00    +0.000 A 
ENDROOT
BRANCH   5  14
ATOM     14  C   UNL     1     110.939 128.672 136.606  0.00  0.00    +0.000 A 
ATOM     15  C   UNL     1     111.141 128.548 137.396  0.00  0.00    +0.000 A 
ATOM     16  C   UNL     1     111.390 128.330 136.005  0.00  0.00    +0.000 A 
ATOM     17  C   UNL     1     111.795 128.081 137.585  0.00  0.00    +0.000 A 
ATOM     18  C   UNL     1     112.245 127.739 136.985  0.00  0.00    +0.000 A 
ATOM     19  C   UNL     1     112.043 127.863 136.195  0.00  0.00    +0.000 A 
BRANCH  17  20
ATOM     20  O   UNL     1     111.998 127.956 138.375  0.00  0.00    +0.000 OA
ATOM     21  C   UNL     1     111.776 128.506 138.950  0.00  0.00    +0.000 C 
ENDBRANCH  17  20
BRANCH  18  22
ATOM     22  O   UNL     1     112.899 127.272 137.174  0.00  0.00    +0.000 OA
BRANCH  22  23
ATOM     23  C   UNL     1     113.060 126.591 136.738  0.00  0.00    +0.000 C 
BRANCH  23  24
ATOM     24  C   UNL     1     113.803 126.235 136.787  0.00  0.00    +0.000 C 
ATOM     25  C   UNL     1     113.885 125.429 136.637  0.00  0.00    +0.000 C 
ATOM     26  C   UNL     1     114.628 125.073 136.686  0.00  0.00    +0.000 C 
ATOM     27  C   UNL     1     113.224 124.977 136.439  0.00  0.00    +0.000 C 
ENDBRANCH  23  24
ENDBRANCH  22  23
ENDBRANCH  18  22
ENDBRANCH   5  14
BRANCH   8  28
ATOM     28  O   UNL     1     109.465 127.971 136.364  0.00  0.00    +0.000 OA
ATOM     29  C   UNL     1     108.862 127.582 135.957  0.00  0.00    +0.000 C 
ENDBRANCH   8  28
TORSDOF 6
ENDMDL
MODEL 8
REMARK VINA RESULT:      -7.5      3.389      5.850
REMARK  Name = 44259691
REMARK  6 active torsions:
REMARK  status: ('A' for Active; 'I' for Inactive)
REMARK    1  A    between atoms: O_2  and  C_12
REMARK    2  A    between atoms: O_3  and  C_18
REMARK    3  A    between atoms: O_3  and  C_23
REMARK    4  A    between atoms: O_4  and  C_17
REMARK    5  A    between atoms: C_8  and  C_10
REMARK    6  A    between atoms: C_23  and  C_24
REMARK                            x       y       z     vdW  Elec       q    Type
REMARK                         _______ _______ _______ _____ _____    ______ ____
ROOT
ATOM      1  O   UNL     1     114.028 129.404 139.852  0.00  0.00    +0.000 OA
ATOM      2  O   UNL     1     113.006 131.011 142.025  0.00  0.00    +0.000 OA
ATOM      3  O   UNL     1     112.202 129.978 141.421  0.00  0.00    +0.000 OA
ATOM      4  O   UNL     1     115.710 131.474 141.021  0.00  0.00    +0.000 OA
ATOM      5  C   UNL     1     113.313 128.991 139.823  0.00  0.00    +0.000 A 
ATOM      6  C   UNL     1     113.523 130.200 140.927  0.00  0.00    +0.000 A 
ATOM      7  C   UNL     1     114.132 130.009 140.403  0.00  0.00    +0.000 A 
ATOM      8  C   UNL     1     112.705 129.182 140.346  0.00  0.00    +0.000 A 
ATOM      9  C   UNL     1     112.810 129.787 140.898  0.00  0.00    +0.000 A 
ATOM     10  C   UNL     1     113.621 130.827 141.506  0.00  0.00    +0.000 A 
ATOM     11  C   UNL     1     114.880 130.432 140.423  0.00  0.00    +0.000 A 
ATOM     12  C   UNL     1     114.995 131.062 140.996  0.00  0.00    +0.000 A 
ATOM     13  C   UNL     1     114.361 131.261 141.541  0.00  0.00    +0.000 A 
ENDROOT
BRANCH   5  14
ATOM     14  C   UNL     1     113.209 128.387 139.271  0.00  0.00    +0.000 A 
ATOM     15  C   UNL     1     112.967 128.566 138.503  0.00  0.00    +0.000 A 
ATOM     16  C   UNL     1     113.347 127.602 139.488  0.00  0.00    +0.000 A 
ATOM     17  C   UNL     1     112.863 127.961 137.952  0.00  0.00    +0.000 A 
ATOM     18  C   UNL     1     113.001 127.177 138.168  0.00  0.00    +0.000 A 
ATOM     19  C   UNL     1     113.243 126.998 138.936  0.00  0.00    +0.000 A 
BRANCH  17  20
ATOM     20  O   UNL     1     112.621 128.140 137.184  0.00  0.00    +0.000 OA
ATOM     21  C   UNL     1     112.609 128.925 136.928  0.00  0.00    +0.000 C 
ENDBRANCH  17  20
BRANCH  18  22
ATOM     22  O   UNL     1     112.897 126.572 137.617  0.00  0.00    +0.000 OA
BRANCH  22  23
ATOM     23  C   UNL     1     113.330 125.874 137.684  0.00  0.00    +0.000 C 
BRANCH  23  24
ATOM     24  C   UNL     1     113.077 125.192 137.294  0.00  0.00    +0.000 C 
ATOM     25  C   UNL     1     113.623 124.613 137.078  0.00  0.00    +0.000 C 
ATOM     26  C   UNL     1     113.370 123.931 136.689  0.00  0.00    +0.000 C 
ATOM     27  C   UNL     1     114.423 124.716 137.252  0.00  0.00    +0.000 C 
ENDBRANCH  23  24
ENDBRANCH  22  23
ENDBRANCH  18  22
ENDBRANCH   5  14
BRANCH   8  28
ATOM     28  O   UNL     1     111.992 128.769 140.318  0.00  0.00    +0.000 OA
ATOM     29  C   UNL     1     111.323 129.075 140.691  0.00  0.00    +0.000 C 
ENDBRANCH   8  28
TORSDOF 6
ENDMDL
MODEL 9
REMARK VINA RESULT:      -7.5      1.498      5.212
REMARK  Name = 44259691
REMARK  6 active torsions:
REMARK  status: ('A' for Active; 'I' for Inactive)
REMARK    1  A    between atoms: O_2  and  C_12
REMARK    2  A    between atoms: O_3  and  C_18
REMARK    3  A    between atoms: O_3  and  C_23
REMARK    4  A    between atoms: O_4  and  C_17
REMARK    5  A    between atoms: C_8  and  C_10
REMARK    6  A    between atoms: C_23  and  C_24
REMARK                            x       y       z     vdW  Elec       q    Type
REMARK                         _______ _______ _______ _____ _____    ______ ____
ROOT
ATOM      1  O   UNL     1     113.750 129.036 135.773  0.00  0.00    +0.000 OA
ATOM      2  O   UNL     1     113.874 131.761 136.727  0.00  0.00    +0.000 OA
ATOM      3  O   UNL     1     112.917 130.826 137.266  0.00  0.00    +0.000 OA
ATOM      4  O   UNL     1     115.710 130.867 134.638  0.00  0.00    +0.000 OA
ATOM      5  C   UNL     1     113.132 128.882 136.298  0.00  0.00    +0.000 A 
ATOM      6  C   UNL     1     113.812 130.384 136.244  0.00  0.00    +0.000 A 
ATOM      7  C   UNL     1     114.090 129.787 135.747  0.00  0.00    +0.000 A 
ATOM      8  C   UNL     1     112.854 129.478 136.795  0.00  0.00    +0.000 A 
ATOM      9  C   UNL     1     113.195 130.229 136.768  0.00  0.00    +0.000 A 
ATOM     10  C   UNL     1     114.159 131.171 136.226  0.00  0.00    +0.000 A 
ATOM     11  C   UNL     1     114.733 129.936 135.196  0.00  0.00    +0.000 A 
ATOM     12  C   UNL     1     115.092 130.716 135.164  0.00  0.00    +0.000 A 
ATOM     13  C   UNL     1     114.803 131.337 135.682  0.00  0.00    +0.000 A 
ENDROOT
BRANCH   5  14
ATOM     14  C   UNL     1     112.792 128.131 136.324  0.00  0.00    +0.000 A 
ATOM     15  C   UNL     1     112.191 127.930 135.795  0.00  0.00    +0.000 A 
ATOM     16  C   UNL     1     113.053 127.579 136.881  0.00  0.00    +0.000 A 
ATOM     17  C   UNL     1     111.852 127.178 135.823  0.00  0.00    +0.000 A 
ATOM     18  C   UNL     1     112.113 126.628 136.378  0.00  0.00    +0.000 A 
ATOM     19  C   UNL     1     112.713 126.828 136.907  0.00  0.00    +0.000 A 
BRANCH  17  20
ATOM     20  O   UNL     1     111.252 126.978 135.294  0.00  0.00    +0.000 OA
ATOM     21  C   UNL     1     110.907 127.560 134.820  0.00  0.00    +0.000 C 
ENDBRANCH  17  20
BRANCH  18  22
ATOM     22  O   UNL     1     111.774 125.876 136.405  0.00  0.00    +0.000 OA
BRANCH  22  23
ATOM     23  C   UNL     1     112.216 125.233 136.670  0.00  0.00    +0.000 C 
BRANCH  23  24
ATOM     24  C   UNL     1     111.849 124.506 136.806  0.00  0.00    +0.000 C 
ATOM     25  C   UNL     1     112.304 123.829 136.924  0.00  0.00    +0.000 C 
ATOM     26  C   UNL     1     111.937 123.103 137.059  0.00  0.00    +0.000 C 
ATOM     27  C   UNL     1     113.128 123.878 136.907  0.00  0.00    +0.000 C 
ENDBRANCH  23  24
ENDBRANCH  22  23
ENDBRANCH  18  22
ENDBRANCH   5  14
BRANCH   8  28
ATOM     28  O   UNL     1     112.237 129.324 137.319  0.00  0.00    +0.000 OA
ATOM     29  C   UNL     1     111.917 129.935 137.772  0.00  0.00    +0.000 C 
ENDBRANCH   8  28
TORSDOF 6
ENDMDL
MODEL 10
REMARK VINA RESULT:      -7.5     11.998     12.583
REMARK  Name = 44259691
REMARK  6 active torsions:
REMARK  status: ('A' for Active; 'I' for Inactive)
REMARK    1  A    between atoms: O_2  and  C_12
REMARK    2  A    between atoms: O_3  and  C_18
REMARK    3  A    between atoms: O_3  and  C_23
REMARK    4  A    between atoms: O_4  and  C_17
REMARK    5  A    between atoms: C_8  and  C_10
REMARK    6  A    between atoms: C_23  and  C_24
REMARK                            x       y       z     vdW  Elec       q    Type
REMARK                         _______ _______ _______ _____ _____    ______ ____
ROOT
ATOM      1  O   UNL     1     104.467 124.936 146.890  0.00  0.00    +0.000 OA
ATOM      2  O   UNL     1     103.245 122.742 145.462  0.00  0.00    +0.000 OA
ATOM      3  O   UNL     1     104.400 123.424 144.932  0.00  0.00    +0.000 OA
ATOM      4  O   UNL     1     102.137 123.605 148.022  0.00  0.00    +0.000 OA
ATOM      5  C   UNL     1     105.028 125.013 146.289  0.00  0.00    +0.000 A 
ATOM      6  C   UNL     1     103.862 123.851 146.184  0.00  0.00    +0.000 A 
ATOM      7  C   UNL     1     103.884 124.355 146.837  0.00  0.00    +0.000 A 
ATOM      8  C   UNL     1     105.006 124.509 145.636  0.00  0.00    +0.000 A 
ATOM      9  C   UNL     1     104.422 123.928 145.584  0.00  0.00    +0.000 A 
ATOM     10  C   UNL     1     103.259 123.241 146.118  0.00  0.00    +0.000 A 
ATOM     11  C   UNL     1     103.306 124.284 147.469  0.00  0.00    +0.000 A 
ATOM     12  C   UNL     1     102.697 123.680 147.420  0.00  0.00    +0.000 A 
ATOM     13  C   UNL     1     102.673 123.155 146.740  0.00  0.00    +0.000 A 
ENDROOT
BRANCH   5  14
ATOM     14  C   UNL     1     105.611 125.595 146.342  0.00  0.00    +0.000 A 
ATOM     15  C   UNL     1     106.336 125.422 146.695  0.00  0.00    +0.000 A 
ATOM     16  C   UNL     1     105.467 126.351 146.042  0.00  0.00    +0.000 A 
ATOM     17  C   UNL     1     106.918 126.004 146.747  0.00  0.00    +0.000 A 
ATOM     18  C   UNL     1     106.775 126.759 146.448  0.00  0.00    +0.000 A 
ATOM     19  C   UNL     1     106.050 126.932 146.095  0.00  0.00    +0.000 A 
BRANCH  17  20
ATOM     20  O   UNL     1     107.644 125.831 147.099  0.00  0.00    +0.000 OA
ATOM     21  C   UNL     1     107.685 125.276 147.709  0.00  0.00    +0.000 C 
ENDBRANCH  17  20
BRANCH  18  22
ATOM     22  O   UNL     1     107.357 127.342 146.500  0.00  0.00    +0.000 OA
BRANCH  22  23
ATOM     23  C   UNL     1     107.232 128.082 146.161  0.00  0.00    +0.000 C 
BRANCH  23  24
ATOM     24  C   UNL     1     107.875 128.544 145.926  0.00  0.00    +0.000 C 
ATOM     25  C   UNL     1     107.777 129.352 145.795  0.00  0.00    +0.000 C 
ATOM     26  C   UNL     1     108.420 129.813 145.561  0.00  0.00    +0.000 C 
ATOM     27  C   UNL     1     107.036 129.700 145.899  0.00  0.00    +0.000 C 
ENDBRANCH  23  24
ENDBRANCH  22  23
ENDBRANCH  18  22
ENDBRANCH   5  14
BRANCH   8  28
ATOM     28  O   UNL     1     105.566 124.587 145.037  0.00  0.00    +0.000 OA
ATOM     29  C   UNL     1     105.457 124.197 144.318  0.00  0.00    +0.000 C 
ENDBRANCH   8  28
TORSDOF 6
ENDMDL
