MODEL 1
REMARK VINA RESULT:      -9.1      0.000      0.000
REMARK  Name = 42607552
REMARK  6 active torsions:
REMARK  status: ('A' for Active; 'I' for Inactive)
REMARK    1  A    between atoms: O_4  and  C_16
REMARK    2  A    between atoms: O_4  and  C_18
REMARK    3  A    between atoms: C_14  and  C_17
REMARK    4  A    between atoms: C_23  and  C_24
REMARK    5  A    between atoms: C_24  and  C_25
REMARK    6  A    between atoms: C_26  and  C_27
REMARK                            x       y       z     vdW  Elec       q    Type
REMARK                         _______ _______ _______ _____ _____    ______ ____
ROOT
ATOM      1  O   UNL     1     109.236 126.921 137.798  0.00  0.00    +0.000 OA
ATOM      2  O   UNL     1     110.517 126.516 134.785  0.00  0.00    +0.000 OA
ATOM      3  C   UNL     1     109.372 127.353 136.443  0.00  0.00    +0.000 A 
ATOM      4  C   UNL     1     109.556 126.820 137.046  0.00  0.00    +0.000 A 
ATOM      5  C   UNL     1     109.692 127.252 135.690  0.00  0.00    +0.000 A 
ATOM      6  C   UNL     1     110.197 126.617 135.539  0.00  0.00    +0.000 A 
ATOM      7  C   UNL     1     110.060 126.185 136.894  0.00  0.00    +0.000 A 
ATOM      8  C   UNL     1     110.381 126.083 136.140  0.00  0.00    +0.000 A 
ENDROOT
BRANCH   8  10
ATOM      9  O   UNL     1     110.641 124.837 135.492  0.00  0.00    +0.000 OA
ATOM     10  C   UNL     1     110.886 125.449 135.988  0.00  0.00    +0.000 C 
BRANCH  10  11
ATOM     11  C   UNL     1     111.635 125.426 136.333  0.00  0.00    +0.000 C 
ATOM     12  C   UNL     1     112.157 124.815 136.146  0.00  0.00    +0.000 C 
BRANCH  12  15
ATOM     13  O   UNL     1     114.838 125.791 136.305  0.00  0.00    +0.000 OA
ATOM     14  O   UNL     1     115.155 124.723 137.522  0.00  0.00    +0.000 OA
ATOM     15  C   UNL     1     112.906 124.791 136.490  0.00  0.00    +0.000 A 
ATOM     16  C   UNL     1     113.497 125.303 136.226  0.00  0.00    +0.000 A 
ATOM     17  C   UNL     1     113.064 124.257 137.099  0.00  0.00    +0.000 A 
ATOM     18  C   UNL     1     114.246 125.280 136.570  0.00  0.00    +0.000 A 
ATOM     19  C   UNL     1     113.814 124.235 137.443  0.00  0.00    +0.000 A 
ATOM     20  C   UNL     1     114.405 124.745 137.178  0.00  0.00    +0.000 A 
ENDBRANCH  12  15
ENDBRANCH  10  11
ENDBRANCH   8  10
BRANCH   3  21
ATOM     21  O   UNL     1     108.867 127.988 136.595  0.00  0.00    +0.000 OA
BRANCH  21  30
ATOM     22  O   UNL     1     109.837 129.035 136.673  0.00  0.00    +0.000 OA
ATOM     23  O   UNL     1     108.354 130.507 135.347  0.00  0.00    +0.000 OA
ATOM     24  O   UNL     1     109.817 131.062 135.867  0.00  0.00    +0.000 OA
ATOM     25  O   UNL     1     107.878 128.970 135.712  0.00  0.00    +0.000 OA
ATOM     26  C   UNL     1     109.580 130.294 136.048  0.00  0.00    +0.000 C 
ATOM     27  C   UNL     1     108.848 130.016 135.789  0.00  0.00    +0.000 C 
ATOM     28  C   UNL     1     110.074 129.803 136.490  0.00  0.00    +0.000 C 
ATOM     29  C   UNL     1     108.610 129.248 135.971  0.00  0.00    +0.000 C 
ATOM     30  C   UNL     1     109.104 128.757 136.413  0.00  0.00    +0.000 C 
BRANCH  28  32
ATOM     31  O   UNL     1     111.038 129.960 137.533  0.00  0.00    +0.000 OA
ATOM     32  C   UNL     1     110.806 130.080 136.750  0.00  0.00    +0.000 C 
ENDBRANCH  28  32
ENDBRANCH  21  30
ENDBRANCH   3  21
TORSDOF 6
ENDMDL
MODEL 2
REMARK VINA RESULT:      -9.0      6.797      8.541
REMARK  Name = 42607552
REMARK  6 active torsions:
REMARK  status: ('A' for Active; 'I' for Inactive)
REMARK    1  A    between atoms: O_4  and  C_16
REMARK    2  A    between atoms: O_4  and  C_18
REMARK    3  A    between atoms: C_14  and  C_17
REMARK    4  A    between atoms: C_23  and  C_24
REMARK    5  A    between atoms: C_24  and  C_25
REMARK    6  A    between atoms: C_26  and  C_27
REMARK                            x       y       z     vdW  Elec       q    Type
REMARK                         _______ _______ _______ _____ _____    ______ ____
ROOT
ATOM      1  O   UNL     1     107.347 125.903 140.524  0.00  0.00    +0.000 OA
ATOM      2  O   UNL     1     105.108 123.972 141.989  0.00  0.00    +0.000 OA
ATOM      3  C   UNL     1     106.572 125.559 141.674  0.00  0.00    +0.000 A 
ATOM      4  C   UNL     1     106.788 125.420 140.890  0.00  0.00    +0.000 A 
ATOM      5  C   UNL     1     106.013 125.077 142.041  0.00  0.00    +0.000 A 
ATOM      6  C   UNL     1     105.668 124.455 141.623  0.00  0.00    +0.000 A 
ATOM      7  C   UNL     1     106.443 124.798 140.472  0.00  0.00    +0.000 A 
ATOM      8  C   UNL     1     105.883 124.315 140.839  0.00  0.00    +0.000 A 
ENDROOT
BRANCH   8  10
ATOM      9  O   UNL     1     105.816 122.923 140.524  0.00  0.00    +0.000 OA
ATOM     10  C   UNL     1     105.538 123.692 140.421  0.00  0.00    +0.000 C 
BRANCH  10  11
ATOM     11  C   UNL     1     104.916 123.841 139.900  0.00  0.00    +0.000 C 
ATOM     12  C   UNL     1     104.646 123.243 139.400  0.00  0.00    +0.000 C 
BRANCH  12  15
ATOM     13  O   UNL     1     103.660 123.481 136.727  0.00  0.00    +0.000 OA
ATOM     14  O   UNL     1     102.158 123.830 137.313  0.00  0.00    +0.000 OA
ATOM     15  C   UNL     1     104.024 123.390 138.879  0.00  0.00    +0.000 A 
ATOM     16  C   UNL     1     104.153 123.362 138.064  0.00  0.00    +0.000 A 
ATOM     17  C   UNL     1     103.272 123.565 139.171  0.00  0.00    +0.000 A 
ATOM     18  C   UNL     1     103.531 123.509 137.542  0.00  0.00    +0.000 A 
ATOM     19  C   UNL     1     102.651 123.712 138.649  0.00  0.00    +0.000 A 
ATOM     20  C   UNL     1     102.780 123.684 137.835  0.00  0.00    +0.000 A 
ENDBRANCH  12  15
ENDBRANCH  10  11
ENDBRANCH   8  10
BRANCH   3  21
ATOM     21  O   UNL     1     106.917 126.182 142.092  0.00  0.00    +0.000 OA
BRANCH  21  30
ATOM     22  O   UNL     1     105.853 127.134 142.025  0.00  0.00    +0.000 OA
ATOM     23  O   UNL     1     106.184 127.672 144.418  0.00  0.00    +0.000 OA
ATOM     24  O   UNL     1     105.011 128.444 143.553  0.00  0.00    +0.000 OA
ATOM     25  O   UNL     1     107.137 126.540 143.688  0.00  0.00    +0.000 OA
ATOM     26  C   UNL     1     105.487 127.879 143.189  0.00  0.00    +0.000 C 
ATOM     27  C   UNL     1     106.074 127.493 143.621  0.00  0.00    +0.000 C 
ATOM     28  C   UNL     1     105.377 127.700 142.391  0.00  0.00    +0.000 C 
ATOM     29  C   UNL     1     106.551 126.927 143.256  0.00  0.00    +0.000 C 
ATOM     30  C   UNL     1     106.441 126.747 142.458  0.00  0.00    +0.000 C 
BRANCH  28  32
ATOM     31  O   UNL     1     104.973 128.422 141.226  0.00  0.00    +0.000 OA
ATOM     32  C   UNL     1     104.791 128.086 141.958  0.00  0.00    +0.000 C 
ENDBRANCH  28  32
ENDBRANCH  21  30
ENDBRANCH   3  21
TORSDOF 6
ENDMDL
MODEL 3
REMARK VINA RESULT:      -8.8      9.208     11.581
REMARK  Name = 42607552
REMARK  6 active torsions:
REMARK  status: ('A' for Active; 'I' for Inactive)
REMARK    1  A    between atoms: O_4  and  C_16
REMARK    2  A    between atoms: O_4  and  C_18
REMARK    3  A    between atoms: C_14  and  C_17
REMARK    4  A    between atoms: C_23  and  C_24
REMARK    5  A    between atoms: C_24  and  C_25
REMARK    6  A    between atoms: C_26  and  C_27
REMARK                            x       y       z     vdW  Elec       q    Type
REMARK                         _______ _______ _______ _____ _____    ______ ____
ROOT
ATOM      1  O   UNL     1     106.250 124.908 144.486  0.00  0.00    +0.000 OA
ATOM      2  O   UNL     1     105.216 127.770 145.763  0.00  0.00    +0.000 OA
ATOM      3  C   UNL     1     105.683 125.647 145.570  0.00  0.00    +0.000 A 
ATOM      4  C   UNL     1     105.991 125.623 144.805  0.00  0.00    +0.000 A 
ATOM      5  C   UNL     1     105.424 126.362 145.889  0.00  0.00    +0.000 A 
ATOM      6  C   UNL     1     105.474 127.054 145.444  0.00  0.00    +0.000 A 
ATOM      7  C   UNL     1     106.041 126.315 144.360  0.00  0.00    +0.000 A 
ATOM      8  C   UNL     1     105.783 127.032 144.679  0.00  0.00    +0.000 A 
ENDROOT
BRANCH   8  10
ATOM      9  O   UNL     1     106.476 128.231 144.330  0.00  0.00    +0.000 OA
ATOM     10  C   UNL     1     105.833 127.724 144.233  0.00  0.00    +0.000 C 
BRANCH  10  11
ATOM     11  C   UNL     1     105.239 127.909 143.690  0.00  0.00    +0.000 C 
ATOM     12  C   UNL     1     105.378 128.471 143.103  0.00  0.00    +0.000 C 
BRANCH  12  15
ATOM     13  O   UNL     1     104.073 127.992 140.607  0.00  0.00    +0.000 OA
ATOM     14  O   UNL     1     103.009 129.211 140.929  0.00  0.00    +0.000 OA
ATOM     15  C   UNL     1     104.786 128.657 142.560  0.00  0.00    +0.000 A 
ATOM     16  C   UNL     1     104.726 128.232 141.855  0.00  0.00    +0.000 A 
ATOM     17  C   UNL     1     104.254 129.266 142.721  0.00  0.00    +0.000 A 
ATOM     18  C   UNL     1     104.133 128.417 141.312  0.00  0.00    +0.000 A 
ATOM     19  C   UNL     1     103.662 129.451 142.177  0.00  0.00    +0.000 A 
ATOM     20  C   UNL     1     103.601 129.027 141.473  0.00  0.00    +0.000 A 
ENDBRANCH  12  15
ENDBRANCH  10  11
ENDBRANCH   8  10
BRANCH   3  21
ATOM     21  O   UNL     1     105.632 124.954 146.016  0.00  0.00    +0.000 OA
BRANCH  21  30
ATOM     22  O   UNL     1     106.738 125.148 146.900  0.00  0.00    +0.000 OA
ATOM     23  O   UNL     1     105.342 124.413 148.807  0.00  0.00    +0.000 OA
ATOM     24  O   UNL     1     106.912 124.851 149.055  0.00  0.00    +0.000 OA
ATOM     25  O   UNL     1     104.701 124.464 147.287  0.00  0.00    +0.000 OA
ATOM     26  C   UNL     1     106.592 124.877 148.296  0.00  0.00    +0.000 C 
ATOM     27  C   UNL     1     105.807 124.658 148.171  0.00  0.00    +0.000 C 
ATOM     28  C   UNL     1     107.058 125.122 147.660  0.00  0.00    +0.000 C 
ATOM     29  C   UNL     1     105.486 124.683 147.411  0.00  0.00    +0.000 C 
ATOM     30  C   UNL     1     105.952 124.928 146.776  0.00  0.00    +0.000 C 
BRANCH  28  32
ATOM     31  O   UNL     1     108.419 125.145 147.225  0.00  0.00    +0.000 OA
ATOM     32  C   UNL     1     107.843 125.341 147.784  0.00  0.00    +0.000 C 
ENDBRANCH  28  32
ENDBRANCH  21  30
ENDBRANCH   3  21
TORSDOF 6
ENDMDL
MODEL 4
REMARK VINA RESULT:      -8.8      3.451      5.297
REMARK  Name = 42607552
REMARK  6 active torsions:
REMARK  status: ('A' for Active; 'I' for Inactive)
REMARK    1  A    between atoms: O_4  and  C_16
REMARK    2  A    between atoms: O_4  and  C_18
REMARK    3  A    between atoms: C_14  and  C_17
REMARK    4  A    between atoms: C_23  and  C_24
REMARK    5  A    between atoms: C_24  and  C_25
REMARK    6  A    between atoms: C_26  and  C_27
REMARK                            x       y       z     vdW  Elec       q    Type
REMARK                         _______ _______ _______ _____ _____    ______ ____
ROOT
ATOM      1  O   UNL     1     114.224 125.711 137.932  0.00  0.00    +0.000 OA
ATOM      2  O   UNL     1     111.614 126.686 139.700  0.00  0.00    +0.000 OA
ATOM      3  C   UNL     1     112.808 125.788 138.109  0.00  0.00    +0.000 A 
ATOM      4  C   UNL     1     113.572 125.954 138.374  0.00  0.00    +0.000 A 
ATOM      5  C   UNL     1     112.156 126.031 138.551  0.00  0.00    +0.000 A 
ATOM      6  C   UNL     1     112.267 126.442 139.258  0.00  0.00    +0.000 A 
ATOM      7  C   UNL     1     113.682 126.364 139.081  0.00  0.00    +0.000 A 
ATOM      8  C   UNL     1     113.029 126.608 139.524  0.00  0.00    +0.000 A 
ENDROOT
BRANCH   8  10
ATOM      9  O   UNL     1     113.013 126.639 140.951  0.00  0.00    +0.000 OA
ATOM     10  C   UNL     1     113.140 127.018 140.231  0.00  0.00    +0.000 C 
BRANCH  10  11
ATOM     11  C   UNL     1     113.378 127.808 140.216  0.00  0.00    +0.000 C 
ATOM     12  C   UNL     1     113.601 128.184 140.916  0.00  0.00    +0.000 C 
BRANCH  12  15
ATOM     13  O   UNL     1     113.099 130.931 141.526  0.00  0.00    +0.000 OA
ATOM     14  O   UNL     1     114.552 131.344 140.863  0.00  0.00    +0.000 OA
ATOM     15  C   UNL     1     113.840 128.974 140.902  0.00  0.00    +0.000 A 
ATOM     16  C   UNL     1     113.350 129.557 141.221  0.00  0.00    +0.000 A 
ATOM     17  C   UNL     1     114.566 129.181 140.571  0.00  0.00    +0.000 A 
ATOM     18  C   UNL     1     113.588 130.347 141.208  0.00  0.00    +0.000 A 
ATOM     19  C   UNL     1     114.803 129.971 140.558  0.00  0.00    +0.000 A 
ATOM     20  C   UNL     1     114.315 130.554 140.876  0.00  0.00    +0.000 A 
ENDBRANCH  12  15
ENDBRANCH  10  11
ENDBRANCH   8  10
BRANCH   3  21
ATOM     21  O   UNL     1     112.697 125.378 137.402  0.00  0.00    +0.000 OA
BRANCH  21  30
ATOM     22  O   UNL     1     112.281 126.477 136.588  0.00  0.00    +0.000 OA
ATOM     23  O   UNL     1     110.569 125.042 135.524  0.00  0.00    +0.000 OA
ATOM     24  O   UNL     1     110.724 126.618 135.066  0.00  0.00    +0.000 OA
ATOM     25  O   UNL     1     111.555 124.421 136.692  0.00  0.00    +0.000 OA
ATOM     26  C   UNL     1     111.217 126.308 135.650  0.00  0.00    +0.000 C 
ATOM     27  C   UNL     1     111.140 125.520 135.879  0.00  0.00    +0.000 C 
ATOM     28  C   UNL     1     111.788 126.787 136.004  0.00  0.00    +0.000 C 
ATOM     29  C   UNL     1     111.633 125.209 136.463  0.00  0.00    +0.000 C 
ATOM     30  C   UNL     1     112.204 125.688 136.818  0.00  0.00    +0.000 C 
BRANCH  28  32
ATOM     31  O   UNL     1     112.616 127.917 135.726  0.00  0.00    +0.000 OA
ATOM     32  C   UNL     1     111.866 127.575 135.776  0.00  0.00    +0.000 C 
ENDBRANCH  28  32
ENDBRANCH  21  30
ENDBRANCH   3  21
TORSDOF 6
ENDMDL
MODEL 5
REMARK VINA RESULT:      -8.7      1.787      5.602
REMARK  Name = 42607552
REMARK  6 active torsions:
REMARK  status: ('A' for Active; 'I' for Inactive)
REMARK    1  A    between atoms: O_4  and  C_16
REMARK    2  A    between atoms: O_4  and  C_18
REMARK    3  A    between atoms: C_14  and  C_17
REMARK    4  A    between atoms: C_23  and  C_24
REMARK    5  A    between atoms: C_24  and  C_25
REMARK    6  A    between atoms: C_26  and  C_27
REMARK                            x       y       z     vdW  Elec       q    Type
REMARK                         _______ _______ _______ _____ _____    ______ ____
ROOT
ATOM      1  O   UNL     1     108.202 127.516 136.102  0.00  0.00    +0.000 OA
ATOM      2  O   UNL     1     110.976 128.854 134.917  0.00  0.00    +0.000 OA
ATOM      3  C   UNL     1     109.526 127.366 135.585  0.00  0.00    +0.000 A 
ATOM      4  C   UNL     1     108.895 127.850 135.806  0.00  0.00    +0.000 A 
ATOM      5  C   UNL     1     110.219 127.700 135.289  0.00  0.00    +0.000 A 
ATOM      6  C   UNL     1     110.282 128.519 135.213  0.00  0.00    +0.000 A 
ATOM      7  C   UNL     1     108.959 128.669 135.730  0.00  0.00    +0.000 A 
ATOM      8  C   UNL     1     109.653 129.004 135.433  0.00  0.00    +0.000 A 
ENDROOT
BRANCH   8  10
ATOM      9  O   UNL     1     109.667 130.172 134.613  0.00  0.00    +0.000 OA
ATOM     10  C   UNL     1     109.716 129.823 135.357  0.00  0.00    +0.000 C 
BRANCH  10  11
ATOM     11  C   UNL     1     109.828 130.291 136.027  0.00  0.00    +0.000 C 
ATOM     12  C   UNL     1     109.724 131.108 135.981  0.00  0.00    +0.000 C 
BRANCH  12  15
ATOM     13  O   UNL     1     108.652 132.493 138.240  0.00  0.00    +0.000 OA
ATOM     14  O   UNL     1     110.170 132.986 138.658  0.00  0.00    +0.000 OA
ATOM     15  C   UNL     1     109.836 131.577 136.650  0.00  0.00    +0.000 A 
ATOM     16  C   UNL     1     109.188 131.800 137.110  0.00  0.00    +0.000 A 
ATOM     17  C   UNL     1     110.595 131.824 136.859  0.00  0.00    +0.000 A 
ATOM     18  C   UNL     1     109.300 132.270 137.779  0.00  0.00    +0.000 A 
ATOM     19  C   UNL     1     110.706 132.294 137.529  0.00  0.00    +0.000 A 
ATOM     20  C   UNL     1     110.059 132.516 137.989  0.00  0.00    +0.000 A 
ENDBRANCH  12  15
ENDBRANCH  10  11
ENDBRANCH   8  10
BRANCH   3  21
ATOM     21  O   UNL     1     109.463 126.546 135.661  0.00  0.00    +0.000 OA
BRANCH  21  30
ATOM     22  O   UNL     1     110.172 126.334 136.884  0.00  0.00    +0.000 OA
ATOM     23  O   UNL     1     111.409 124.461 135.840  0.00  0.00    +0.000 OA
ATOM     24  O   UNL     1     111.705 124.873 137.409  0.00  0.00    +0.000 OA
ATOM     25  O   UNL     1     110.288 125.298 134.965  0.00  0.00    +0.000 OA
ATOM     26  C   UNL     1     111.145 125.291 136.972  0.00  0.00    +0.000 C 
ATOM     27  C   UNL     1     110.997 125.085 136.188  0.00  0.00    +0.000 C 
ATOM     28  C   UNL     1     110.733 125.915 137.320  0.00  0.00    +0.000 C 
ATOM     29  C   UNL     1     110.436 125.504 135.750  0.00  0.00    +0.000 C 
ATOM     30  C   UNL     1     110.024 126.128 136.098  0.00  0.00    +0.000 C 
BRANCH  28  32
ATOM     31  O   UNL     1     110.251 126.269 138.618  0.00  0.00    +0.000 OA
ATOM     32  C   UNL     1     110.881 126.121 138.105  0.00  0.00    +0.000 C 
ENDBRANCH  28  32
ENDBRANCH  21  30
ENDBRANCH   3  21
TORSDOF 6
ENDMDL
MODEL 6
REMARK VINA RESULT:      -8.6      1.361      2.261
REMARK  Name = 42607552
REMARK  6 active torsions:
REMARK  status: ('A' for Active; 'I' for Inactive)
REMARK    1  A    between atoms: O_4  and  C_16
REMARK    2  A    between atoms: O_4  and  C_18
REMARK    3  A    between atoms: C_14  and  C_17
REMARK    4  A    between atoms: C_23  and  C_24
REMARK    5  A    between atoms: C_24  and  C_25
REMARK    6  A    between atoms: C_26  and  C_27
REMARK                            x       y       z     vdW  Elec       q    Type
REMARK                         _______ _______ _______ _____ _____    ______ ____
ROOT
ATOM      1  O   UNL     1     110.516 129.468 134.612  0.00  0.00    +0.000 OA
ATOM      2  O   UNL     1     108.416 127.398 136.094  0.00  0.00    +0.000 OA
ATOM      3  C   UNL     1     109.316 129.244 135.354  0.00  0.00    +0.000 A 
ATOM      4  C   UNL     1     109.991 128.951 134.982  0.00  0.00    +0.000 A 
ATOM      5  C   UNL     1     108.791 128.728 135.724  0.00  0.00    +0.000 A 
ATOM      6  C   UNL     1     108.941 127.916 135.723  0.00  0.00    +0.000 A 
ATOM      7  C   UNL     1     110.142 128.140 134.981  0.00  0.00    +0.000 A 
ATOM      8  C   UNL     1     109.617 127.622 135.352  0.00  0.00    +0.000 A 
ENDROOT
BRANCH   8  10
ATOM      9  O   UNL     1     109.305 126.307 134.890  0.00  0.00    +0.000 OA
ATOM     10  C   UNL     1     109.767 126.811 135.351  0.00  0.00    +0.000 C 
BRANCH  10  11
ATOM     11  C   UNL     1     110.381 126.505 135.810  0.00  0.00    +0.000 C 
ATOM     12  C   UNL     1     110.610 125.718 135.719  0.00  0.00    +0.000 C 
BRANCH  12  15
ATOM     13  O   UNL     1     111.491 124.175 137.958  0.00  0.00    +0.000 OA
ATOM     14  O   UNL     1     113.061 124.489 137.557  0.00  0.00    +0.000 OA
ATOM     15  C   UNL     1     111.223 125.411 136.178  0.00  0.00    +0.000 A 
ATOM     16  C   UNL     1     111.051 124.947 136.839  0.00  0.00    +0.000 A 
ATOM     17  C   UNL     1     112.008 125.568 135.978  0.00  0.00    +0.000 A 
ATOM     18  C   UNL     1     111.664 124.640 137.298  0.00  0.00    +0.000 A 
ATOM     19  C   UNL     1     112.620 125.260 136.437  0.00  0.00    +0.000 A 
ATOM     20  C   UNL     1     112.448 124.797 137.097  0.00  0.00    +0.000 A 
ENDBRANCH  12  15
ENDBRANCH  10  11
ENDBRANCH   8  10
BRANCH   3  21
ATOM     21  O   UNL     1     109.165 130.056 135.355  0.00  0.00    +0.000 OA
BRANCH  21  30
ATOM     22  O   UNL     1     109.490 130.359 136.713  0.00  0.00    +0.000 OA
ATOM     23  O   UNL     1     107.460 131.765 136.885  0.00  0.00    +0.000 OA
ATOM     24  O   UNL     1     108.462 131.600 138.185  0.00  0.00    +0.000 OA
ATOM     25  O   UNL     1     107.812 130.993 135.470  0.00  0.00    +0.000 OA
ATOM     26  C   UNL     1     108.637 131.214 137.478  0.00  0.00    +0.000 C 
ATOM     27  C   UNL     1     108.137 131.297 136.828  0.00  0.00    +0.000 C 
ATOM     28  C   UNL     1     109.314 130.746 137.420  0.00  0.00    +0.000 C 
ATOM     29  C   UNL     1     108.312 130.911 136.120  0.00  0.00    +0.000 C 
ATOM     30  C   UNL     1     108.989 130.442 136.062  0.00  0.00    +0.000 C 
BRANCH  28  32
ATOM     31  O   UNL     1     110.634 130.684 137.964  0.00  0.00    +0.000 OA
ATOM     32  C   UNL     1     109.815 130.663 138.070  0.00  0.00    +0.000 C 
ENDBRANCH  28  32
ENDBRANCH  21  30
ENDBRANCH   3  21
TORSDOF 6
ENDMDL
MODEL 7
REMARK VINA RESULT:      -8.5      6.997     10.077
REMARK  Name = 42607552
REMARK  6 active torsions:
REMARK  status: ('A' for Active; 'I' for Inactive)
REMARK    1  A    between atoms: O_4  and  C_16
REMARK    2  A    between atoms: O_4  and  C_18
REMARK    3  A    between atoms: C_14  and  C_17
REMARK    4  A    between atoms: C_23  and  C_24
REMARK    5  A    between atoms: C_24  and  C_25
REMARK    6  A    between atoms: C_26  and  C_27
REMARK                            x       y       z     vdW  Elec       q    Type
REMARK                         _______ _______ _______ _____ _____    ______ ____
ROOT
ATOM      1  O   UNL     1     104.105 127.944 140.625  0.00  0.00    +0.000 OA
ATOM      2  O   UNL     1     104.007 129.904 143.278  0.00  0.00    +0.000 OA
ATOM      3  C   UNL     1     104.478 128.215 141.977  0.00  0.00    +0.000 A 
ATOM      4  C   UNL     1     104.080 128.433 141.288  0.00  0.00    +0.000 A 
ATOM      5  C   UNL     1     104.453 128.705 142.640  0.00  0.00    +0.000 A 
ATOM      6  C   UNL     1     104.032 129.413 142.614  0.00  0.00    +0.000 A 
ATOM      7  C   UNL     1     103.659 129.142 141.262  0.00  0.00    +0.000 A 
ATOM      8  C   UNL     1     103.634 129.632 141.925  0.00  0.00    +0.000 A 
ENDROOT
BRANCH   8  10
ATOM      9  O   UNL     1     102.443 130.373 142.193  0.00  0.00    +0.000 OA
ATOM     10  C   UNL     1     103.213 130.341 141.899  0.00  0.00    +0.000 C 
BRANCH  10  11
ATOM     11  C   UNL     1     103.562 131.017 141.580  0.00  0.00    +0.000 C 
ATOM     12  C   UNL     1     103.089 131.636 141.308  0.00  0.00    +0.000 C 
BRANCH  12  15
ATOM     13  O   UNL     1     104.269 132.997 139.089  0.00  0.00    +0.000 OA
ATOM     14  O   UNL     1     104.481 134.339 140.026  0.00  0.00    +0.000 OA
ATOM     15  C   UNL     1     103.437 132.312 140.988  0.00  0.00    +0.000 A 
ATOM     16  C   UNL     1     103.679 132.316 140.198  0.00  0.00    +0.000 A 
ATOM     17  C   UNL     1     103.543 132.983 141.456  0.00  0.00    +0.000 A 
ATOM     18  C   UNL     1     104.027 132.992 139.879  0.00  0.00    +0.000 A 
ATOM     19  C   UNL     1     103.891 133.658 141.135  0.00  0.00    +0.000 A 
ATOM     20  C   UNL     1     104.133 133.663 140.347  0.00  0.00    +0.000 A 
ENDBRANCH  12  15
ENDBRANCH  10  11
ENDBRANCH   8  10
BRANCH   3  21
ATOM     21  O   UNL     1     104.899 127.507 142.003  0.00  0.00    +0.000 OA
BRANCH  21  30
ATOM     22  O   UNL     1     106.217 128.046 141.876  0.00  0.00    +0.000 OA
ATOM     23  O   UNL     1     107.039 126.434 143.565  0.00  0.00    +0.000 OA
ATOM     24  O   UNL     1     108.081 127.510 142.875  0.00  0.00    +0.000 OA
ATOM     25  O   UNL     1     105.448 126.432 143.129  0.00  0.00    +0.000 OA
ATOM     26  C   UNL     1     107.286 127.509 142.657  0.00  0.00    +0.000 C 
ATOM     27  C   UNL     1     106.765 126.971 143.002  0.00  0.00    +0.000 C 
ATOM     28  C   UNL     1     107.012 128.047 142.095  0.00  0.00    +0.000 C 
ATOM     29  C   UNL     1     105.969 126.970 142.784  0.00  0.00    +0.000 C 
ATOM     30  C   UNL     1     105.695 127.507 142.222  0.00  0.00    +0.000 C 
BRANCH  28  32
ATOM     31  O   UNL     1     107.474 128.757 140.944  0.00  0.00    +0.000 OA
ATOM     32  C   UNL     1     107.533 128.585 141.750  0.00  0.00    +0.000 C 
ENDBRANCH  28  32
ENDBRANCH  21  30
ENDBRANCH   3  21
TORSDOF 6
ENDMDL
MODEL 8
REMARK VINA RESULT:      -8.4      1.541      2.622
REMARK  Name = 42607552
REMARK  6 active torsions:
REMARK  status: ('A' for Active; 'I' for Inactive)
REMARK    1  A    between atoms: O_4  and  C_16
REMARK    2  A    between atoms: O_4  and  C_18
REMARK    3  A    between atoms: C_14  and  C_17
REMARK    4  A    between atoms: C_23  and  C_24
REMARK    5  A    between atoms: C_24  and  C_25
REMARK    6  A    between atoms: C_26  and  C_27
REMARK                            x       y       z     vdW  Elec       q    Type
REMARK                         _______ _______ _______ _____ _____    ______ ____
ROOT
ATOM      1  O   UNL     1     111.939 129.574 138.108  0.00  0.00    +0.000 OA
ATOM      2  O   UNL     1     112.661 128.811 134.980  0.00  0.00    +0.000 OA
ATOM      3  C   UNL     1     111.715 129.751 136.708  0.00  0.00    +0.000 A 
ATOM      4  C   UNL     1     112.119 129.383 137.327  0.00  0.00    +0.000 A 
ATOM      5  C   UNL     1     111.896 129.560 135.927  0.00  0.00    +0.000 A 
ATOM      6  C   UNL     1     112.480 129.002 135.763  0.00  0.00    +0.000 A 
ATOM      7  C   UNL     1     112.703 128.825 137.163  0.00  0.00    +0.000 A 
ATOM      8  C   UNL     1     112.884 128.634 136.380  0.00  0.00    +0.000 A 
ENDROOT
BRANCH   8  10
ATOM      9  O   UNL     1     114.164 128.305 135.838  0.00  0.00    +0.000 OA
ATOM     10  C   UNL     1     113.469 128.075 136.217  0.00  0.00    +0.000 C 
BRANCH  10  11
ATOM     11  C   UNL     1     113.357 127.286 136.432  0.00  0.00    +0.000 C 
ATOM     12  C   UNL     1     113.964 126.739 136.321  0.00  0.00    +0.000 C 
BRANCH  12  15
ATOM     13  O   UNL     1     114.898 124.376 137.630  0.00  0.00    +0.000 OA
ATOM     14  O   UNL     1     113.523 123.583 137.181  0.00  0.00    +0.000 OA
ATOM     15  C   UNL     1     113.853 125.950 136.536  0.00  0.00    +0.000 A 
ATOM     16  C   UNL     1     114.431 125.557 136.976  0.00  0.00    +0.000 A 
ATOM     17  C   UNL     1     113.165 125.553 136.311  0.00  0.00    +0.000 A 
ATOM     18  C   UNL     1     114.320 124.769 137.190  0.00  0.00    +0.000 A 
ATOM     19  C   UNL     1     113.055 124.764 136.527  0.00  0.00    +0.000 A 
ATOM     20  C   UNL     1     113.632 124.372 136.966  0.00  0.00    +0.000 A 
ENDBRANCH  12  15
ENDBRANCH  10  11
ENDBRANCH   8  10
BRANCH   3  21
ATOM     21  O   UNL     1     111.131 130.310 136.872  0.00  0.00    +0.000 OA
BRANCH  21  30
ATOM     22  O   UNL     1     109.999 129.497 136.554  0.00  0.00    +0.000 OA
ATOM     23  O   UNL     1     108.883 131.453 135.528  0.00  0.00    +0.000 OA
ATOM     24  O   UNL     1     108.124 129.989 135.552  0.00  0.00    +0.000 OA
ATOM     25  O   UNL     1     110.387 131.614 136.188  0.00  0.00    +0.000 OA
ATOM     26  C   UNL     1     108.876 130.070 135.882  0.00  0.00    +0.000 C 
ATOM     27  C   UNL     1     109.255 130.801 135.870  0.00  0.00    +0.000 C 
ATOM     28  C   UNL     1     109.248 129.418 136.224  0.00  0.00    +0.000 C 
ATOM     29  C   UNL     1     110.007 130.882 136.200  0.00  0.00    +0.000 C 
ATOM     30  C   UNL     1     110.379 130.230 136.542  0.00  0.00    +0.000 C 
BRANCH  28  32
ATOM     31  O   UNL     1     108.876 128.229 136.924  0.00  0.00    +0.000 OA
ATOM     32  C   UNL     1     108.869 128.685 136.236  0.00  0.00    +0.000 C 
ENDBRANCH  28  32
ENDBRANCH  21  30
ENDBRANCH   3  21
TORSDOF 6
ENDMDL
MODEL 9
REMARK VINA RESULT:      -8.4      3.501      5.510
REMARK  Name = 42607552
REMARK  6 active torsions:
REMARK  status: ('A' for Active; 'I' for Inactive)
REMARK    1  A    between atoms: O_4  and  C_16
REMARK    2  A    between atoms: O_4  and  C_18
REMARK    3  A    between atoms: C_14  and  C_17
REMARK    4  A    between atoms: C_23  and  C_24
REMARK    5  A    between atoms: C_24  and  C_25
REMARK    6  A    between atoms: C_26  and  C_27
REMARK                            x       y       z     vdW  Elec       q    Type
REMARK                         _______ _______ _______ _____ _____    ______ ____
ROOT
ATOM      1  O   UNL     1     111.013 125.734 139.748  0.00  0.00    +0.000 OA
ATOM      2  O   UNL     1     113.351 127.415 138.136  0.00  0.00    +0.000 OA
ATOM      3  C   UNL     1     111.565 126.222 138.524  0.00  0.00    +0.000 A 
ATOM      4  C   UNL     1     111.597 126.154 139.345  0.00  0.00    +0.000 A 
ATOM      5  C   UNL     1     112.148 126.641 138.120  0.00  0.00    +0.000 A 
ATOM      6  C   UNL     1     112.766 126.994 138.539  0.00  0.00    +0.000 A 
ATOM      7  C   UNL     1     112.215 126.506 139.764  0.00  0.00    +0.000 A 
ATOM      8  C   UNL     1     112.800 126.927 139.360  0.00  0.00    +0.000 A 
ENDROOT
BRANCH   8  10
ATOM      9  O   UNL     1     114.116 126.864 139.909  0.00  0.00    +0.000 OA
ATOM     10  C   UNL     1     113.417 127.280 139.779  0.00  0.00    +0.000 C 
BRANCH  10  11
ATOM     11  C   UNL     1     113.334 128.049 140.066  0.00  0.00    +0.000 C 
ATOM     12  C   UNL     1     113.867 128.340 140.624  0.00  0.00    +0.000 C 
BRANCH  12  15
ATOM     13  O   UNL     1     114.772 131.049 140.740  0.00  0.00    +0.000 OA
ATOM     14  O   UNL     1     113.540 131.416 141.774  0.00  0.00    +0.000 OA
ATOM     15  C   UNL     1     113.784 129.109 140.912  0.00  0.00    +0.000 A 
ATOM     16  C   UNL     1     114.319 129.694 140.682  0.00  0.00    +0.000 A 
ATOM     17  C   UNL     1     113.168 129.292 141.429  0.00  0.00    +0.000 A 
ATOM     18  C   UNL     1     114.237 130.463 140.970  0.00  0.00    +0.000 A 
ATOM     19  C   UNL     1     113.087 130.062 141.716  0.00  0.00    +0.000 A 
ATOM     20  C   UNL     1     113.621 130.646 141.487  0.00  0.00    +0.000 A 
ENDBRANCH  12  15
ENDBRANCH  10  11
ENDBRANCH   8  10
BRANCH   3  21
ATOM     21  O   UNL     1     110.947 125.869 138.105  0.00  0.00    +0.000 OA
BRANCH  21  30
ATOM     22  O   UNL     1     111.627 124.768 137.498  0.00  0.00    +0.000 OA
ATOM     23  O   UNL     1     110.561 125.306 135.330  0.00  0.00    +0.000 OA
ATOM     24  O   UNL     1     111.596 124.027 135.446  0.00  0.00    +0.000 OA
ATOM     25  O   UNL     1     110.237 126.228 136.660  0.00  0.00    +0.000 OA
ATOM     26  C   UNL     1     111.433 124.487 136.110  0.00  0.00    +0.000 C 
ATOM     27  C   UNL     1     110.917 125.127 136.053  0.00  0.00    +0.000 C 
ATOM     28  C   UNL     1     111.789 124.308 136.833  0.00  0.00    +0.000 C 
ATOM     29  C   UNL     1     110.754 125.588 136.717  0.00  0.00    +0.000 C 
ATOM     30  C   UNL     1     111.109 125.409 137.440  0.00  0.00    +0.000 C 
BRANCH  28  32
ATOM     31  O   UNL     1     112.205 123.110 137.491  0.00  0.00    +0.000 OA
ATOM     32  C   UNL     1     112.306 123.668 136.892  0.00  0.00    +0.000 C 
ENDBRANCH  28  32
ENDBRANCH  21  30
ENDBRANCH   3  21
TORSDOF 6
ENDMDL
MODEL 10
REMARK VINA RESULT:      -8.4      2.103      3.282
REMARK  Name = 42607552
REMARK  6 active torsions:
REMARK  status: ('A' for Active; 'I' for Inactive)
REMARK    1  A    between atoms: O_4  and  C_16
REMARK    2  A    between atoms: O_4  and  C_18
REMARK    3  A    between atoms: C_14  and  C_17
REMARK    4  A    between atoms: C_23  and  C_24
REMARK    5  A    between atoms: C_24  and  C_25
REMARK    6  A    between atoms: C_26  and  C_27
REMARK                            x       y       z     vdW  Elec       q    Type
REMARK                         _______ _______ _______ _____ _____    ______ ____
ROOT
ATOM      1  O   UNL     1     110.861 129.860 135.190  0.00  0.00    +0.000 OA
ATOM      2  O   UNL     1     113.111 129.302 137.539  0.00  0.00    +0.000 OA
ATOM      3  C   UNL     1     111.540 130.275 136.377  0.00  0.00    +0.000 A 
ATOM      4  C   UNL     1     111.423 129.721 135.777  0.00  0.00    +0.000 A 
ATOM      5  C   UNL     1     112.103 130.136 136.963  0.00  0.00    +0.000 A 
ATOM      6  C   UNL     1     112.548 129.442 136.951  0.00  0.00    +0.000 A 
ATOM      7  C   UNL     1     111.869 129.027 135.764  0.00  0.00    +0.000 A 
ATOM      8  C   UNL     1     112.432 128.887 136.352  0.00  0.00    +0.000 A 
ENDROOT
BRANCH   8  10
ATOM      9  O   UNL     1     113.660 128.210 136.081  0.00  0.00    +0.000 OA
ATOM     10  C   UNL     1     112.877 128.193 136.340  0.00  0.00    +0.000 C 
BRANCH  10  11
ATOM     11  C   UNL     1     112.539 127.481 136.586  0.00  0.00    +0.000 C 
ATOM     12  C   UNL     1     112.915 126.767 136.419  0.00  0.00    +0.000 C 
BRANCH  12  15
ATOM     13  O   UNL     1     111.172 124.555 135.930  0.00  0.00    +0.000 OA
ATOM     14  O   UNL     1     111.565 123.920 137.401  0.00  0.00    +0.000 OA
ATOM     15  C   UNL     1     112.578 126.055 136.665  0.00  0.00    +0.000 A 
ATOM     16  C   UNL     1     112.044 125.661 136.174  0.00  0.00    +0.000 A 
ATOM     17  C   UNL     1     112.775 125.737 137.401  0.00  0.00    +0.000 A 
ATOM     18  C   UNL     1     111.707 124.949 136.420  0.00  0.00    +0.000 A 
ATOM     19  C   UNL     1     112.437 125.025 137.646  0.00  0.00    +0.000 A 
ATOM     20  C   UNL     1     111.903 124.632 137.156  0.00  0.00    +0.000 A 
ENDBRANCH  12  15
ENDBRANCH  10  11
ENDBRANCH   8  10
BRANCH   3  21
ATOM     21  O   UNL     1     111.095 130.969 136.389  0.00  0.00    +0.000 OA
BRANCH  21  30
ATOM     22  O   UNL     1     110.187 130.626 137.438  0.00  0.00    +0.000 OA
ATOM     23  O   UNL     1     110.394 132.912 138.365  0.00  0.00    +0.000 OA
ATOM     24  O   UNL     1     109.418 131.807 139.104  0.00  0.00    +0.000 OA
ATOM     25  O   UNL     1     111.233 132.493 137.007  0.00  0.00    +0.000 OA
ATOM     26  C   UNL     1     109.837 131.598 138.426  0.00  0.00    +0.000 C 
ATOM     27  C   UNL     1     110.325 132.150 138.056  0.00  0.00    +0.000 C 
ATOM     28  C   UNL     1     109.768 130.836 138.117  0.00  0.00    +0.000 C 
ATOM     29  C   UNL     1     110.745 131.941 137.377  0.00  0.00    +0.000 C 
ATOM     30  C   UNL     1     110.676 131.179 137.068  0.00  0.00    +0.000 C 
BRANCH  28  32
ATOM     31  O   UNL     1     108.733 129.854 138.041  0.00  0.00    +0.000 OA
ATOM     32  C   UNL     1     109.280 130.283 138.486  0.00  0.00    +0.000 C 
ENDBRANCH  28  32
ENDBRANCH  21  30
ENDBRANCH   3  21
TORSDOF 6
ENDMDL
