MODEL 1
REMARK VINA RESULT:      -9.3      0.000      0.000
REMARK  Name = 42608093
REMARK  4 active torsions:
REMARK  status: ('A' for Active; 'I' for Inactive)
REMARK    1  A    between atoms: O_2  and  C_15
REMARK    2  A    between atoms: O_2  and  C_17
REMARK    3  A    between atoms: C_14  and  C_16
REMARK    4  A    between atoms: C_18  and  C_26
REMARK                            x       y       z     vdW  Elec       q    Type
REMARK                         _______ _______ _______ _____ _____    ______ ____
ROOT
ATOM      1  O   UNL     1     111.013 125.967 136.790  0.00  0.00    +0.000 OA
ATOM      2  O   UNL     1     108.391 127.867 135.990  0.00  0.00    +0.000 OA
ATOM      3  O   UNL     1     108.855 126.645 134.983  0.00  0.00    +0.000 OA
ATOM      4  O   UNL     1     109.729 125.546 134.648  0.00  0.00    +0.000 OA
ATOM      5  C   UNL     1     109.456 127.535 136.884  0.00  0.00    +0.000 A 
ATOM      6  C   UNL     1     111.259 125.330 136.270  0.00  0.00    +0.000 C 
ATOM      7  C   UNL     1     110.336 126.452 136.575  0.00  0.00    +0.000 A 
ATOM      8  C   UNL     1     110.826 125.184 135.542  0.00  0.00    +0.000 C 
ATOM      9  C   UNL     1     109.919 126.312 135.877  0.00  0.00    +0.000 A 
ATOM     10  C   UNL     1     110.104 127.063 137.079  0.00  0.00    +0.000 A 
ATOM     11  C   UNL     1     109.040 127.395 136.185  0.00  0.00    +0.000 A 
ATOM     12  C   UNL     1     110.151 125.679 135.345  0.00  0.00    +0.000 C 
ATOM     13  C   UNL     1     109.272 126.784 135.682  0.00  0.00    +0.000 A 
ENDROOT
BRANCH   6  14
ATOM     14  C   UNL     1     111.908 124.859 136.467  0.00  0.00    +0.000 A 
ATOM     15  C   UNL     1     111.790 124.101 136.771  0.00  0.00    +0.000 A 
ATOM     16  C   UNL     1     112.673 125.147 136.361  0.00  0.00    +0.000 A 
ATOM     17  C   UNL     1     112.439 123.631 136.969  0.00  0.00    +0.000 A 
ATOM     18  C   UNL     1     113.322 124.678 136.558  0.00  0.00    +0.000 A 
ATOM     19  C   UNL     1     113.205 123.920 136.862  0.00  0.00    +0.000 A 
ENDBRANCH   6  14
BRANCH   5  20
ATOM     20  O   UNL     1     109.224 128.146 137.387  0.00  0.00    +0.000 OA
BRANCH  20  29
ATOM     21  O   UNL     1     110.243 129.095 137.067  0.00  0.00    +0.000 OA
ATOM     22  O   UNL     1     110.479 129.650 139.468  0.00  0.00    +0.000 OA
ATOM     23  O   UNL     1     111.419 130.414 138.348  0.00  0.00    +0.000 OA
ATOM     24  O   UNL     1     109.381 128.516 138.987  0.00  0.00    +0.000 OA
ATOM     25  C   UNL     1     110.401 129.465 138.667  0.00  0.00    +0.000 C 
ATOM     26  C   UNL     1     110.870 129.847 138.107  0.00  0.00    +0.000 C 
ATOM     27  C   UNL     1     109.851 128.898 138.427  0.00  0.00    +0.000 C 
ATOM     28  C   UNL     1     110.792 129.662 137.307  0.00  0.00    +0.000 C 
ATOM     29  C   UNL     1     109.772 128.713 137.627  0.00  0.00    +0.000 C 
BRANCH  28  31
ATOM     30  O   UNL     1     110.924 130.333 136.052  0.00  0.00    +0.000 OA
ATOM     31  C   UNL     1     111.261 130.044 136.748  0.00  0.00    +0.000 C 
ENDBRANCH  28  31
ENDBRANCH  20  29
ENDBRANCH   5  20
TORSDOF 4
ENDMDL
MODEL 2
REMARK VINA RESULT:      -9.3      1.125      2.019
REMARK  Name = 42608093
REMARK  4 active torsions:
REMARK  status: ('A' for Active; 'I' for Inactive)
REMARK    1  A    between atoms: O_2  and  C_15
REMARK    2  A    between atoms: O_2  and  C_17
REMARK    3  A    between atoms: C_14  and  C_16
REMARK    4  A    between atoms: C_18  and  C_26
REMARK                            x       y       z     vdW  Elec       q    Type
REMARK                         _______ _______ _______ _____ _____    ______ ____
ROOT
ATOM      1  O   UNL     1     112.458 126.411 136.351  0.00  0.00    +0.000 OA
ATOM      2  O   UNL     1     109.522 127.190 134.974  0.00  0.00    +0.000 OA
ATOM      3  O   UNL     1     109.912 125.608 135.230  0.00  0.00    +0.000 OA
ATOM      4  O   UNL     1     110.824 124.590 135.696  0.00  0.00    +0.000 OA
ATOM      5  C   UNL     1     110.778 127.589 135.527  0.00  0.00    +0.000 A 
ATOM      6  C   UNL     1     112.667 125.589 136.486  0.00  0.00    +0.000 C 
ATOM      7  C   UNL     1     111.699 126.602 135.995  0.00  0.00    +0.000 A 
ATOM      8  C   UNL     1     112.115 124.968 136.265  0.00  0.00    +0.000 C 
ATOM      9  C   UNL     1     111.168 126.007 135.783  0.00  0.00    +0.000 A 
ATOM     10  C   UNL     1     111.504 127.393 135.867  0.00  0.00    +0.000 A 
ATOM     11  C   UNL     1     110.248 126.994 135.315  0.00  0.00    +0.000 A 
ATOM     12  C   UNL     1     111.360 125.179 135.911  0.00  0.00    +0.000 C 
ATOM     13  C   UNL     1     110.443 126.203 135.443  0.00  0.00    +0.000 A 
ENDROOT
BRANCH   6  14
ATOM     14  C   UNL     1     113.393 125.396 136.827  0.00  0.00    +0.000 A 
ATOM     15  C   UNL     1     113.515 125.517 137.634  0.00  0.00    +0.000 A 
ATOM     16  C   UNL     1     113.996 125.081 136.361  0.00  0.00    +0.000 A 
ATOM     17  C   UNL     1     114.242 125.324 137.974  0.00  0.00    +0.000 A 
ATOM     18  C   UNL     1     114.723 124.888 136.701  0.00  0.00    +0.000 A 
ATOM     19  C   UNL     1     114.845 125.009 137.507  0.00  0.00    +0.000 A 
ENDBRANCH   6  14
BRANCH   5  20
ATOM     20  O   UNL     1     110.582 128.381 135.399  0.00  0.00    +0.000 OA
BRANCH  20  29
ATOM     21  O   UNL     1     110.256 128.766 136.736  0.00  0.00    +0.000 OA
ATOM     22  O   UNL     1     111.534 130.865 136.442  0.00  0.00    +0.000 OA
ATOM     23  O   UNL     1     110.782 130.551 137.876  0.00  0.00    +0.000 OA
ATOM     24  O   UNL     1     111.434 129.780 135.203  0.00  0.00    +0.000 OA
ATOM     25  C   UNL     1     111.108 130.166 136.540  0.00  0.00    +0.000 C 
ATOM     26  C   UNL     1     110.732 130.008 137.257  0.00  0.00    +0.000 C 
ATOM     27  C   UNL     1     111.058 129.622 135.920  0.00  0.00    +0.000 C 
ATOM     28  C   UNL     1     110.306 129.308 137.355  0.00  0.00    +0.000 C 
ATOM     29  C   UNL     1     110.632 128.923 136.018  0.00  0.00    +0.000 C 
BRANCH  28  31
ATOM     30  O   UNL     1     109.165 128.842 138.078  0.00  0.00    +0.000 OA
ATOM     31  C   UNL     1     109.930 129.151 138.071  0.00  0.00    +0.000 C 
ENDBRANCH  28  31
ENDBRANCH  20  29
ENDBRANCH   5  20
TORSDOF 4
ENDMDL
MODEL 3
REMARK VINA RESULT:      -9.2      9.467     11.205
REMARK  Name = 42608093
REMARK  4 active torsions:
REMARK  status: ('A' for Active; 'I' for Inactive)
REMARK    1  A    between atoms: O_2  and  C_15
REMARK    2  A    between atoms: O_2  and  C_17
REMARK    3  A    between atoms: C_14  and  C_16
REMARK    4  A    between atoms: C_18  and  C_26
REMARK                            x       y       z     vdW  Elec       q    Type
REMARK                         _______ _______ _______ _____ _____    ______ ____
ROOT
ATOM      1  O   UNL     1     104.031 124.385 145.881  0.00  0.00    +0.000 OA
ATOM      2  O   UNL     1     107.173 125.456 146.208  0.00  0.00    +0.000 OA
ATOM      3  O   UNL     1     106.311 125.023 147.547  0.00  0.00    +0.000 OA
ATOM      4  O   UNL     1     105.103 124.538 148.170  0.00  0.00    +0.000 OA
ATOM      5  C   UNL     1     106.049 125.141 145.383  0.00  0.00    +0.000 A 
ATOM      6  C   UNL     1     103.578 124.158 146.574  0.00  0.00    +0.000 C 
ATOM      7  C   UNL     1     104.840 124.660 145.975  0.00  0.00    +0.000 A 
ATOM      8  C   UNL     1     103.939 124.209 147.353  0.00  0.00    +0.000 C 
ATOM      9  C   UNL     1     105.187 124.709 146.722  0.00  0.00    +0.000 A 
ATOM     10  C   UNL     1     105.271 124.876 145.306  0.00  0.00    +0.000 A 
ATOM     11  C   UNL     1     106.395 125.190 146.130  0.00  0.00    +0.000 A 
ATOM     12  C   UNL     1     104.749 124.486 147.427  0.00  0.00    +0.000 C 
ATOM     13  C   UNL     1     105.964 124.974 146.800  0.00  0.00    +0.000 A 
ENDROOT
BRANCH   6  14
ATOM     14  C   UNL     1     102.801 123.893 146.494  0.00  0.00    +0.000 A 
ATOM     15  C   UNL     1     102.173 124.384 146.708  0.00  0.00    +0.000 A 
ATOM     16  C   UNL     1     102.651 123.137 146.199  0.00  0.00    +0.000 A 
ATOM     17  C   UNL     1     101.396 124.119 146.627  0.00  0.00    +0.000 A 
ATOM     18  C   UNL     1     101.875 122.872 146.118  0.00  0.00    +0.000 A 
ATOM     19  C   UNL     1     101.247 123.362 146.332  0.00  0.00    +0.000 A 
ENDBRANCH   6  14
BRANCH   5  20
ATOM     20  O   UNL     1     106.480 125.358 144.714  0.00  0.00    +0.000 OA
BRANCH  20  29
ATOM     21  O   UNL     1     105.896 126.637 144.459  0.00  0.00    +0.000 OA
ATOM     22  O   UNL     1     105.787 126.107 142.044  0.00  0.00    +0.000 OA
ATOM     23  O   UNL     1     105.240 127.562 142.595  0.00  0.00    +0.000 OA
ATOM     24  O   UNL     1     106.407 125.005 143.103  0.00  0.00    +0.000 OA
ATOM     25  C   UNL     1     105.824 126.284 142.849  0.00  0.00    +0.000 C 
ATOM     26  C   UNL     1     105.550 127.012 143.125  0.00  0.00    +0.000 C 
ATOM     27  C   UNL     1     106.134 125.732 143.379  0.00  0.00    +0.000 C 
ATOM     28  C   UNL     1     105.587 127.188 143.930  0.00  0.00    +0.000 C 
ATOM     29  C   UNL     1     106.170 125.909 144.185  0.00  0.00    +0.000 C 
BRANCH  28  31
ATOM     30  O   UNL     1     105.745 128.332 144.772  0.00  0.00    +0.000 OA
ATOM     31  C   UNL     1     105.313 127.916 144.205  0.00  0.00    +0.000 C 
ENDBRANCH  28  31
ENDBRANCH  20  29
ENDBRANCH   5  20
TORSDOF 4
ENDMDL
MODEL 4
REMARK VINA RESULT:      -9.0      2.080      4.283
REMARK  Name = 42608093
REMARK  4 active torsions:
REMARK  status: ('A' for Active; 'I' for Inactive)
REMARK    1  A    between atoms: O_2  and  C_15
REMARK    2  A    between atoms: O_2  and  C_17
REMARK    3  A    between atoms: C_14  and  C_16
REMARK    4  A    between atoms: C_18  and  C_26
REMARK                            x       y       z     vdW  Elec       q    Type
REMARK                         _______ _______ _______ _____ _____    ______ ____
ROOT
ATOM      1  O   UNL     1     112.463 128.182 135.537  0.00  0.00    +0.000 OA
ATOM      2  O   UNL     1     109.472 126.823 134.963  0.00  0.00    +0.000 OA
ATOM      3  O   UNL     1     109.720 128.423 134.642  0.00  0.00    +0.000 OA
ATOM      4  O   UNL     1     110.571 129.589 134.612  0.00  0.00    +0.000 OA
ATOM      5  C   UNL     1     110.825 126.702 135.405  0.00  0.00    +0.000 A 
ATOM      6  C   UNL     1     112.598 129.014 135.372  0.00  0.00    +0.000 C 
ATOM      7  C   UNL     1     111.689 127.841 135.386  0.00  0.00    +0.000 A 
ATOM      8  C   UNL     1     111.958 129.494 135.058  0.00  0.00    +0.000 C 
ATOM      9  C   UNL     1     111.074 128.301 135.084  0.00  0.00    +0.000 A 
ATOM     10  C   UNL     1     111.565 127.041 135.546  0.00  0.00    +0.000 A 
ATOM     11  C   UNL     1     110.211 127.163 135.104  0.00  0.00    +0.000 A 
ATOM     12  C   UNL     1     111.191 129.135 134.913  0.00  0.00    +0.000 C 
ATOM     13  C   UNL     1     110.336 127.963 134.944  0.00  0.00    +0.000 A 
ENDROOT
BRANCH   6  14
ATOM     14  C   UNL     1     113.338 129.351 135.514  0.00  0.00    +0.000 A 
ATOM     15  C   UNL     1     113.501 129.695 136.245  0.00  0.00    +0.000 A 
ATOM     16  C   UNL     1     113.915 129.343 134.924  0.00  0.00    +0.000 A 
ATOM     17  C   UNL     1     114.241 130.032 136.387  0.00  0.00    +0.000 A 
ATOM     18  C   UNL     1     114.655 129.679 135.065  0.00  0.00    +0.000 A 
ATOM     19  C   UNL     1     114.818 130.023 135.796  0.00  0.00    +0.000 A 
ENDBRANCH   6  14
BRANCH   5  20
ATOM     20  O   UNL     1     110.701 125.902 135.566  0.00  0.00    +0.000 OA
BRANCH  20  29
ATOM     21  O   UNL     1     110.545 125.992 136.983  0.00  0.00    +0.000 OA
ATOM     22  O   UNL     1     111.902 123.941 137.263  0.00  0.00    +0.000 OA
ATOM     23  O   UNL     1     111.293 124.714 138.586  0.00  0.00    +0.000 OA
ATOM     24  O   UNL     1     111.606 124.535 135.752  0.00  0.00    +0.000 OA
ATOM     25  C   UNL     1     111.449 124.625 137.170  0.00  0.00    +0.000 C 
ATOM     26  C   UNL     1     111.145 125.012 137.831  0.00  0.00    +0.000 C 
ATOM     27  C   UNL     1     111.301 124.922 136.414  0.00  0.00    +0.000 C 
ATOM     28  C   UNL     1     110.692 125.695 137.738  0.00  0.00    +0.000 C 
ATOM     29  C   UNL     1     110.849 125.606 136.321  0.00  0.00    +0.000 C 
BRANCH  28  31
ATOM     30  O   UNL     1     109.597 126.315 138.415  0.00  0.00    +0.000 OA
ATOM     31  C   UNL     1     110.388 126.082 138.400  0.00  0.00    +0.000 C 
ENDBRANCH  28  31
ENDBRANCH  20  29
ENDBRANCH   5  20
TORSDOF 4
ENDMDL
MODEL 5
REMARK VINA RESULT:      -9.0      3.047      3.918
REMARK  Name = 42608093
REMARK  4 active torsions:
REMARK  status: ('A' for Active; 'I' for Inactive)
REMARK    1  A    between atoms: O_2  and  C_15
REMARK    2  A    between atoms: O_2  and  C_17
REMARK    3  A    between atoms: C_14  and  C_16
REMARK    4  A    between atoms: C_18  and  C_26
REMARK                            x       y       z     vdW  Elec       q    Type
REMARK                         _______ _______ _______ _____ _____    ______ ____
ROOT
ATOM      1  O   UNL     1     113.624 126.556 138.509  0.00  0.00    +0.000 OA
ATOM      2  O   UNL     1     111.518 127.763 140.796  0.00  0.00    +0.000 OA
ATOM      3  O   UNL     1     111.059 126.492 139.850  0.00  0.00    +0.000 OA
ATOM      4  O   UNL     1     111.325 125.534 138.803  0.00  0.00    +0.000 OA
ATOM      5  C   UNL     1     112.785 127.797 140.136  0.00  0.00    +0.000 A 
ATOM      6  C   UNL     1     113.391 125.894 138.014  0.00  0.00    +0.000 C 
ATOM      7  C   UNL     1     113.074 126.860 139.096  0.00  0.00    +0.000 A 
ATOM      8  C   UNL     1     112.611 125.545 138.111  0.00  0.00    +0.000 C 
ATOM      9  C   UNL     1     112.326 126.526 139.190  0.00  0.00    +0.000 A 
ATOM     10  C   UNL     1     113.304 127.496 139.569  0.00  0.00    +0.000 A 
ATOM     11  C   UNL     1     112.037 127.462 140.229  0.00  0.00    +0.000 A 
ATOM     12  C   UNL     1     112.076 125.864 138.703  0.00  0.00    +0.000 C 
ATOM     13  C   UNL     1     111.807 126.826 139.756  0.00  0.00    +0.000 A 
ENDROOT
BRANCH   6  14
ATOM     14  C   UNL     1     113.911 125.596 137.448  0.00  0.00    +0.000 A 
ATOM     15  C   UNL     1     114.390 124.949 137.629  0.00  0.00    +0.000 A 
ATOM     16  C   UNL     1     113.953 125.944 136.701  0.00  0.00    +0.000 A 
ATOM     17  C   UNL     1     114.911 124.650 137.063  0.00  0.00    +0.000 A 
ATOM     18  C   UNL     1     114.474 125.646 136.135  0.00  0.00    +0.000 A 
ATOM     19  C   UNL     1     114.952 124.999 136.316  0.00  0.00    +0.000 A 
ENDBRANCH   6  14
BRANCH   5  20
ATOM     20  O   UNL     1     113.014 128.433 140.610  0.00  0.00    +0.000 OA
BRANCH  20  29
ATOM     21  O   UNL     1     112.964 129.497 139.657  0.00  0.00    +0.000 OA
ATOM     22  O   UNL     1     115.160 130.313 140.453  0.00  0.00    +0.000 OA
ATOM     23  O   UNL     1     114.378 131.104 139.236  0.00  0.00    +0.000 OA
ATOM     24  O   UNL     1     114.479 128.977 141.140  0.00  0.00    +0.000 OA
ATOM     25  C   UNL     1     114.428 130.041 140.188  0.00  0.00    +0.000 C 
ATOM     26  C   UNL     1     114.037 130.436 139.579  0.00  0.00    +0.000 C 
ATOM     27  C   UNL     1     114.087 129.372 140.532  0.00  0.00    +0.000 C 
ATOM     28  C   UNL     1     113.304 130.164 139.314  0.00  0.00    +0.000 C 
ATOM     29  C   UNL     1     113.355 129.100 140.266  0.00  0.00    +0.000 C 
BRANCH  28  31
ATOM     30  O   UNL     1     112.132 130.805 138.806  0.00  0.00    +0.000 OA
ATOM     31  C   UNL     1     112.914 130.560 138.705  0.00  0.00    +0.000 C 
ENDBRANCH  28  31
ENDBRANCH  20  29
ENDBRANCH   5  20
TORSDOF 4
ENDMDL
MODEL 6
REMARK VINA RESULT:      -9.0      9.075     11.232
REMARK  Name = 42608093
REMARK  4 active torsions:
REMARK  status: ('A' for Active; 'I' for Inactive)
REMARK    1  A    between atoms: O_2  and  C_15
REMARK    2  A    between atoms: O_2  and  C_17
REMARK    3  A    between atoms: C_14  and  C_16
REMARK    4  A    between atoms: C_18  and  C_26
REMARK                            x       y       z     vdW  Elec       q    Type
REMARK                         _______ _______ _______ _____ _____    ______ ____
ROOT
ATOM      1  O   UNL     1     105.307 126.580 144.310  0.00  0.00    +0.000 OA
ATOM      2  O   UNL     1     106.665 124.793 146.778  0.00  0.00    +0.000 OA
ATOM      3  O   UNL     1     107.315 126.254 146.369  0.00  0.00    +0.000 OA
ATOM      4  O   UNL     1     107.330 127.450 145.561  0.00  0.00    +0.000 OA
ATOM      5  C   UNL     1     105.672 124.952 145.762  0.00  0.00    +0.000 A 
ATOM      6  C   UNL     1     105.641 127.340 144.093  0.00  0.00    +0.000 C 
ATOM      7  C   UNL     1     105.663 126.127 144.947  0.00  0.00    +0.000 A 
ATOM      8  C   UNL     1     106.328 127.639 144.516  0.00  0.00    +0.000 C 
ATOM      9  C   UNL     1     106.323 126.412 145.354  0.00  0.00    +0.000 A 
ATOM     10  C   UNL     1     105.338 125.396 145.152  0.00  0.00    +0.000 A 
ATOM     11  C   UNL     1     106.331 125.238 146.167  0.00  0.00    +0.000 A 
ATOM     12  C   UNL     1     106.670 127.171 145.150  0.00  0.00    +0.000 C 
ATOM     13  C   UNL     1     106.656 125.968 145.963  0.00  0.00    +0.000 A 
ENDROOT
BRANCH   6  14
ATOM     14  C   UNL     1     105.305 127.783 143.483  0.00  0.00    +0.000 A 
ATOM     15  C   UNL     1     104.899 128.480 143.654  0.00  0.00    +0.000 A 
ATOM     16  C   UNL     1     105.376 127.528 142.702  0.00  0.00    +0.000 A 
ATOM     17  C   UNL     1     104.563 128.922 143.044  0.00  0.00    +0.000 A 
ATOM     18  C   UNL     1     105.041 127.969 142.091  0.00  0.00    +0.000 A 
ATOM     19  C   UNL     1     104.635 128.666 142.262  0.00  0.00    +0.000 A 
ENDBRANCH   6  14
BRANCH   5  20
ATOM     20  O   UNL     1     105.347 124.222 145.966  0.00  0.00    +0.000 OA
BRANCH  20  29
ATOM     21  O   UNL     1     104.211 124.655 146.718  0.00  0.00    +0.000 OA
ATOM     22  O   UNL     1     102.797 123.007 145.532  0.00  0.00    +0.000 OA
ATOM     23  O   UNL     1     102.134 123.989 146.679  0.00  0.00    +0.000 OA
ATOM     24  O   UNL     1     104.403 123.123 145.175  0.00  0.00    +0.000 OA
ATOM     25  C   UNL     1     103.268 123.556 145.927  0.00  0.00    +0.000 C 
ATOM     26  C   UNL     1     102.937 124.047 146.501  0.00  0.00    +0.000 C 
ATOM     27  C   UNL     1     104.072 123.614 145.749  0.00  0.00    +0.000 C 
ATOM     28  C   UNL     1     103.409 124.597 146.897  0.00  0.00    +0.000 C 
ATOM     29  C   UNL     1     104.544 124.164 146.145  0.00  0.00    +0.000 C 
BRANCH  28  31
ATOM     30  O   UNL     1     103.469 125.210 148.186  0.00  0.00    +0.000 OA
ATOM     31  C   UNL     1     103.077 125.087 147.470  0.00  0.00    +0.000 C 
ENDBRANCH  28  31
ENDBRANCH  20  29
ENDBRANCH   5  20
TORSDOF 4
ENDMDL
MODEL 7
REMARK VINA RESULT:      -8.9      2.837      3.602
REMARK  Name = 42608093
REMARK  4 active torsions:
REMARK  status: ('A' for Active; 'I' for Inactive)
REMARK    1  A    between atoms: O_2  and  C_15
REMARK    2  A    between atoms: O_2  and  C_17
REMARK    3  A    between atoms: C_14  and  C_16
REMARK    4  A    between atoms: C_18  and  C_26
REMARK                            x       y       z     vdW  Elec       q    Type
REMARK                         _______ _______ _______ _____ _____    ______ ____
ROOT
ATOM      1  O   UNL     1     111.549 129.830 135.732  0.00  0.00    +0.000 OA
ATOM      2  O   UNL     1     108.250 130.320 135.712  0.00  0.00    +0.000 OA
ATOM      3  O   UNL     1     108.884 128.980 134.987  0.00  0.00    +0.000 OA
ATOM      4  O   UNL     1     110.011 128.159 134.612  0.00  0.00    +0.000 OA
ATOM      5  C   UNL     1     109.565 130.742 136.081  0.00  0.00    +0.000 A 
ATOM      6  C   UNL     1     111.885 129.134 135.356  0.00  0.00    +0.000 C 
ATOM      7  C   UNL     1     110.698 129.948 135.722  0.00  0.00    +0.000 A 
ATOM      8  C   UNL     1     111.365 128.565 134.975  0.00  0.00    +0.000 C 
ATOM      9  C   UNL     1     110.198 129.402 135.356  0.00  0.00    +0.000 A 
ATOM     10  C   UNL     1     110.381 130.618 136.084  0.00  0.00    +0.000 A 
ATOM     11  C   UNL     1     109.067 130.196 135.715  0.00  0.00    +0.000 A 
ATOM     12  C   UNL     1     110.516 128.700 134.976  0.00  0.00    +0.000 C 
ATOM     13  C   UNL     1     109.383 129.526 135.353  0.00  0.00    +0.000 A 
ENDROOT
BRANCH   6  14
ATOM     14  C   UNL     1     112.701 129.012 135.361  0.00  0.00    +0.000 A 
ATOM     15  C   UNL     1     113.041 128.520 135.929  0.00  0.00    +0.000 A 
ATOM     16  C   UNL     1     113.176 129.383 134.798  0.00  0.00    +0.000 A 
ATOM     17  C   UNL     1     113.857 128.398 135.934  0.00  0.00    +0.000 A 
ATOM     18  C   UNL     1     113.992 129.262 134.803  0.00  0.00    +0.000 A 
ATOM     19  C   UNL     1     114.332 128.770 135.370  0.00  0.00    +0.000 A 
ENDBRANCH   6  14
BRANCH   5  20
ATOM     20  O   UNL     1     109.248 131.412 136.443  0.00  0.00    +0.000 OA
BRANCH  20  29
ATOM     21  O   UNL     1     109.298 131.008 137.813  0.00  0.00    +0.000 OA
ATOM     22  O   UNL     1     110.224 133.219 138.430  0.00  0.00    +0.000 OA
ATOM     23  O   UNL     1     109.966 132.079 139.594  0.00  0.00    +0.000 OA
ATOM     24  O   UNL     1     109.865 132.886 136.855  0.00  0.00    +0.000 OA
ATOM     25  C   UNL     1     109.915 132.482 138.225  0.00  0.00    +0.000 C 
ATOM     26  C   UNL     1     109.786 131.912 138.806  0.00  0.00    +0.000 C 
ATOM     27  C   UNL     1     109.736 132.315 137.436  0.00  0.00    +0.000 C 
ATOM     28  C   UNL     1     109.477 131.175 138.600  0.00  0.00    +0.000 C 
ATOM     29  C   UNL     1     109.427 131.578 137.230  0.00  0.00    +0.000 C 
BRANCH  28  31
ATOM     30  O   UNL     1     108.653 130.161 139.179  0.00  0.00    +0.000 OA
ATOM     31  C   UNL     1     109.348 130.605 139.182  0.00  0.00    +0.000 C 
ENDBRANCH  28  31
ENDBRANCH  20  29
ENDBRANCH   5  20
TORSDOF 4
ENDMDL
MODEL 8
REMARK VINA RESULT:      -8.9      1.941      3.174
REMARK  Name = 42608093
REMARK  4 active torsions:
REMARK  status: ('A' for Active; 'I' for Inactive)
REMARK    1  A    between atoms: O_2  and  C_15
REMARK    2  A    between atoms: O_2  and  C_17
REMARK    3  A    between atoms: C_14  and  C_16
REMARK    4  A    between atoms: C_18  and  C_26
REMARK                            x       y       z     vdW  Elec       q    Type
REMARK                         _______ _______ _______ _____ _____    ______ ____
ROOT
ATOM      1  O   UNL     1     113.051 127.186 136.850  0.00  0.00    +0.000 OA
ATOM      2  O   UNL     1     112.802 130.424 136.094  0.00  0.00    +0.000 OA
ATOM      3  O   UNL     1     114.063 129.540 135.503  0.00  0.00    +0.000 OA
ATOM      4  O   UNL     1     114.785 128.296 135.376  0.00  0.00    +0.000 OA
ATOM      5  C   UNL     1     112.300 129.264 136.760  0.00  0.00    +0.000 A 
ATOM      6  C   UNL     1     113.706 126.720 136.545  0.00  0.00    +0.000 C 
ATOM      7  C   UNL     1     112.995 128.020 136.650  0.00  0.00    +0.000 A 
ATOM      8  C   UNL     1     114.296 127.094 136.045  0.00  0.00    +0.000 C 
ATOM      9  C   UNL     1     113.561 128.379 136.169  0.00  0.00    +0.000 A 
ATOM     10  C   UNL     1     112.364 128.462 136.945  0.00  0.00    +0.000 A 
ATOM     11  C   UNL     1     112.866 129.622 136.279  0.00  0.00    +0.000 A 
ATOM     12  C   UNL     1     114.223 127.930 135.855  0.00  0.00    +0.000 C 
ATOM     13  C   UNL     1     113.497 129.180 135.984  0.00  0.00    +0.000 A 
ENDROOT
BRANCH   6  14
ATOM     14  C   UNL     1     113.768 125.919 136.732  0.00  0.00    +0.000 A 
ATOM     15  C   UNL     1     114.329 125.666 137.281  0.00  0.00    +0.000 A 
ATOM     16  C   UNL     1     113.269 125.371 136.370  0.00  0.00    +0.000 A 
ATOM     17  C   UNL     1     114.391 124.864 137.468  0.00  0.00    +0.000 A 
ATOM     18  C   UNL     1     113.330 124.570 136.556  0.00  0.00    +0.000 A 
ATOM     19  C   UNL     1     113.891 124.317 137.105  0.00  0.00    +0.000 A 
ENDBRANCH   6  14
BRANCH   5  20
ATOM     20  O   UNL     1     111.669 129.706 137.055  0.00  0.00    +0.000 OA
BRANCH  20  29
ATOM     21  O   UNL     1     110.650 129.292 136.142  0.00  0.00    +0.000 OA
ATOM     22  O   UNL     1     109.052 129.085 138.021  0.00  0.00    +0.000 OA
ATOM     23  O   UNL     1     108.567 128.740 136.482  0.00  0.00    +0.000 OA
ATOM     24  O   UNL     1     110.603 129.567 138.307  0.00  0.00    +0.000 OA
ATOM     25  C   UNL     1     109.585 129.154 137.394  0.00  0.00    +0.000 C 
ATOM     26  C   UNL     1     109.342 128.982 136.625  0.00  0.00    +0.000 C 
ATOM     27  C   UNL     1     110.361 129.395 137.538  0.00  0.00    +0.000 C 
ATOM     28  C   UNL     1     109.875 129.051 135.999  0.00  0.00    +0.000 C 
ATOM     29  C   UNL     1     110.894 129.465 136.912  0.00  0.00    +0.000 C 
BRANCH  28  31
ATOM     30  O   UNL     1     109.822 129.392 134.612  0.00  0.00    +0.000 OA
ATOM     31  C   UNL     1     109.632 128.879 135.230  0.00  0.00    +0.000 C 
ENDBRANCH  28  31
ENDBRANCH  20  29
ENDBRANCH   5  20
TORSDOF 4
ENDMDL
MODEL 9
REMARK VINA RESULT:      -8.9      2.138      3.265
REMARK  Name = 42608093
REMARK  4 active torsions:
REMARK  status: ('A' for Active; 'I' for Inactive)
REMARK    1  A    between atoms: O_2  and  C_15
REMARK    2  A    between atoms: O_2  and  C_17
REMARK    3  A    between atoms: C_14  and  C_16
REMARK    4  A    between atoms: C_18  and  C_26
REMARK                            x       y       z     vdW  Elec       q    Type
REMARK                         _______ _______ _______ _____ _____    ______ ____
ROOT
ATOM      1  O   UNL     1     113.494 127.364 137.049  0.00  0.00    +0.000 OA
ATOM      2  O   UNL     1     111.532 129.999 136.477  0.00  0.00    +0.000 OA
ATOM      3  O   UNL     1     111.137 128.530 135.838  0.00  0.00    +0.000 OA
ATOM      4  O   UNL     1     111.403 127.125 135.641  0.00  0.00    +0.000 OA
ATOM      5  C   UNL     1     112.696 129.426 137.075  0.00  0.00    +0.000 A 
ATOM      6  C   UNL     1     113.294 126.597 136.719  0.00  0.00    +0.000 C 
ATOM      7  C   UNL     1     112.982 128.037 136.896  0.00  0.00    +0.000 A 
ATOM      8  C   UNL     1     112.585 126.512 136.241  0.00  0.00    +0.000 C 
ATOM      9  C   UNL     1     112.301 127.957 136.437  0.00  0.00    +0.000 A 
ATOM     10  C   UNL     1     113.180 128.772 137.215  0.00  0.00    +0.000 A 
ATOM     11  C   UNL     1     112.016 129.345 136.616  0.00  0.00    +0.000 A 
ATOM     12  C   UNL     1     112.085 127.197 136.099  0.00  0.00    +0.000 C 
ATOM     13  C   UNL     1     111.818 128.610 136.297  0.00  0.00    +0.000 A 
ENDROOT
BRANCH   6  14
ATOM     14  C   UNL     1     113.779 125.945 136.860  0.00  0.00    +0.000 A 
ATOM     15  C   UNL     1     114.422 125.794 136.366  0.00  0.00    +0.000 A 
ATOM     16  C   UNL     1     113.621 125.443 137.496  0.00  0.00    +0.000 A 
ATOM     17  C   UNL     1     114.907 125.142 136.508  0.00  0.00    +0.000 A 
ATOM     18  C   UNL     1     114.105 124.791 137.638  0.00  0.00    +0.000 A 
ATOM     19  C   UNL     1     114.748 124.640 137.144  0.00  0.00    +0.000 A 
ENDBRANCH   6  14
BRANCH   5  20
ATOM     20  O   UNL     1     112.893 130.161 137.395  0.00  0.00    +0.000 OA
BRANCH  20  29
ATOM     21  O   UNL     1     112.478 129.971 138.749  0.00  0.00    +0.000 OA
ATOM     22  O   UNL     1     114.597 130.977 139.539  0.00  0.00    +0.000 OA
ATOM     23  O   UNL     1     113.476 130.452 140.629  0.00  0.00    +0.000 OA
ATOM     24  O   UNL     1     114.306 130.832 137.922  0.00  0.00    +0.000 OA
ATOM     25  C   UNL     1     113.891 130.642 139.276  0.00  0.00    +0.000 C 
ATOM     26  C   UNL     1     113.330 130.379 139.820  0.00  0.00    +0.000 C 
ATOM     27  C   UNL     1     113.745 130.569 138.466  0.00  0.00    +0.000 C 
ATOM     28  C   UNL     1     112.624 130.043 139.557  0.00  0.00    +0.000 C 
ATOM     29  C   UNL     1     113.039 130.234 138.203  0.00  0.00    +0.000 C 
BRANCH  28  31
ATOM     30  O   UNL     1     111.263 129.941 139.982  0.00  0.00    +0.000 OA
ATOM     31  C   UNL     1     112.064 129.781 140.102  0.00  0.00    +0.000 C 
ENDBRANCH  28  31
ENDBRANCH  20  29
ENDBRANCH   5  20
TORSDOF 4
ENDMDL
MODEL 10
REMARK VINA RESULT:      -8.8      3.642      5.177
REMARK  Name = 42608093
REMARK  4 active torsions:
REMARK  status: ('A' for Active; 'I' for Inactive)
REMARK    1  A    between atoms: O_2  and  C_15
REMARK    2  A    between atoms: O_2  and  C_17
REMARK    3  A    between atoms: C_14  and  C_16
REMARK    4  A    between atoms: C_18  and  C_26
REMARK                            x       y       z     vdW  Elec       q    Type
REMARK                         _______ _______ _______ _____ _____    ______ ____
ROOT
ATOM      1  O   UNL     1     112.939 130.850 136.413  0.00  0.00    +0.000 OA
ATOM      2  O   UNL     1     110.810 131.495 138.898  0.00  0.00    +0.000 OA
ATOM      3  O   UNL     1     112.222 130.701 139.214  0.00  0.00    +0.000 OA
ATOM      4  O   UNL     1     113.475 130.130 138.781  0.00  0.00    +0.000 OA
ATOM      5  C   UNL     1     111.162 131.569 137.515  0.00  0.00    +0.000 A 
ATOM      6  C   UNL     1     113.675 130.437 136.571  0.00  0.00    +0.000 C 
ATOM      7  C   UNL     1     112.397 131.012 137.060  0.00  0.00    +0.000 A 
ATOM      8  C   UNL     1     113.861 130.192 137.374  0.00  0.00    +0.000 C 
ATOM      9  C   UNL     1     112.574 130.776 137.831  0.00  0.00    +0.000 A 
ATOM     10  C   UNL     1     111.691 131.408 136.902  0.00  0.00    +0.000 A 
ATOM     11  C   UNL     1     111.340 131.333 138.285  0.00  0.00    +0.000 A 
ATOM     12  C   UNL     1     113.305 130.362 138.007  0.00  0.00    +0.000 C 
ATOM     13  C   UNL     1     112.046 130.937 138.443  0.00  0.00    +0.000 A 
ENDROOT
BRANCH   6  14
ATOM     14  C   UNL     1     114.202 130.278 135.957  0.00  0.00    +0.000 A 
ATOM     15  C   UNL     1     114.811 130.808 135.786  0.00  0.00    +0.000 A 
ATOM     16  C   UNL     1     114.121 129.587 135.512  0.00  0.00    +0.000 A 
ATOM     17  C   UNL     1     115.337 130.649 135.172  0.00  0.00    +0.000 A 
ATOM     18  C   UNL     1     114.647 129.427 134.898  0.00  0.00    +0.000 A 
ATOM     19  C   UNL     1     115.255 129.958 134.727  0.00  0.00    +0.000 A 
ENDBRANCH   6  14
BRANCH   5  20
ATOM     20  O   UNL     1     110.456 131.966 137.357  0.00  0.00    +0.000 OA
BRANCH  20  29
ATOM     21  O   UNL     1     109.715 130.892 136.775  0.00  0.00    +0.000 OA
ATOM     22  O   UNL     1     108.878 132.422 135.018  0.00  0.00    +0.000 OA
ATOM     23  O   UNL     1     108.416 130.838 135.022  0.00  0.00    +0.000 OA
ATOM     24  O   UNL     1     109.897 132.986 136.186  0.00  0.00    +0.000 OA
ATOM     25  C   UNL     1     109.157 131.912 135.604  0.00  0.00    +0.000 C 
ATOM     26  C   UNL     1     108.926 131.120 135.606  0.00  0.00    +0.000 C 
ATOM     27  C   UNL     1     109.667 132.194 136.188  0.00  0.00    +0.000 C 
ATOM     28  C   UNL     1     109.205 130.610 136.191  0.00  0.00    +0.000 C 
ATOM     29  C   UNL     1     109.946 131.684 136.774  0.00  0.00    +0.000 C 
BRANCH  28  31
ATOM     30  O   UNL     1     108.754 129.453 136.899  0.00  0.00    +0.000 OA
ATOM     31  C   UNL     1     108.974 129.818 136.193  0.00  0.00    +0.000 C 
ENDBRANCH  28  31
ENDBRANCH  20  29
ENDBRANCH   5  20
TORSDOF 4
ENDMDL
