MODEL 1
REMARK VINA RESULT:      -8.9      0.000      0.000
REMARK  Name = 44259707
REMARK  2 active torsions:
REMARK  status: ('A' for Active; 'I' for Inactive)
REMARK    1  A    between atoms: O_2  and  C_13
REMARK    2  A    between atoms: C_11  and  C_16
REMARK                            x       y       z     vdW  Elec       q    Type
REMARK                         _______ _______ _______ _____ _____    ______ ____
ROOT
ATOM      1  O   UNL     1     105.136 124.364 147.639  0.00  0.00    +0.000 OA
ATOM      2  O   UNL     1     107.575 125.496 146.583  0.00  0.00    +0.000 OA
ATOM      3  O   UNL     1     107.526 124.433 149.302  0.00  0.00    +0.000 OA
ATOM      4  O   UNL     1     106.373 125.446 145.788  0.00  0.00    +0.000 OA
ATOM      5  C   UNL     1     106.343 124.924 147.118  0.00  0.00    +0.000 A 
ATOM      6  C   UNL     1     105.930 124.563 147.735  0.00  0.00    +0.000 A 
ATOM      7  C   UNL     1     104.753 124.525 146.926  0.00  0.00    +0.000 A 
ATOM      8  C   UNL     1     107.171 125.137 147.205  0.00  0.00    +0.000 A 
ATOM      9  C   UNL     1     105.165 124.886 146.309  0.00  0.00    +0.000 A 
ATOM     10  C   UNL     1     105.961 125.085 146.405  0.00  0.00    +0.000 A 
ATOM     11  C   UNL     1     107.575 124.971 147.945  0.00  0.00    +0.000 A 
ATOM     12  C   UNL     1     106.318 124.390 148.482  0.00  0.00    +0.000 A 
ATOM     13  C   UNL     1     107.146 124.595 148.588  0.00  0.00    +0.000 A 
ATOM     14  C   UNL     1     108.370 125.171 148.038  0.00  0.00    +0.000 C 
ENDROOT
BRANCH   7  18
ATOM     15  O   UNL     1     102.750 122.751 145.921  0.00  0.00    +0.000 OA
ATOM     16  O   UNL     1     101.987 125.103 147.354  0.00  0.00    +0.000 OA
ATOM     17  O   UNL     1     101.574 123.727 146.541  0.00  0.00    +0.000 OA
ATOM     18  C   UNL     1     103.959 124.326 146.830  0.00  0.00    +0.000 A 
ATOM     19  C   UNL     1     103.370 124.814 147.140  0.00  0.00    +0.000 A 
ATOM     20  C   UNL     1     103.752 123.638 146.423  0.00  0.00    +0.000 A 
ATOM     21  C   UNL     1     102.957 123.439 146.327  0.00  0.00    +0.000 A 
ATOM     22  C   UNL     1     102.576 124.615 147.044  0.00  0.00    +0.000 A 
ATOM     23  C   UNL     1     102.369 123.927 146.638  0.00  0.00    +0.000 A 
ENDBRANCH   7  18
BRANCH   9  24
ATOM     24  O   UNL     1     104.783 125.047 145.596  0.00  0.00    +0.000 OA
ATOM     25  C   UNL     1     105.161 125.499 145.018  0.00  0.00    +0.000 C 
ENDBRANCH   9  24
TORSDOF 2
ENDMDL
MODEL 2
REMARK VINA RESULT:      -8.9      0.856      4.406
REMARK  Name = 44259707
REMARK  2 active torsions:
REMARK  status: ('A' for Active; 'I' for Inactive)
REMARK    1  A    between atoms: O_2  and  C_13
REMARK    2  A    between atoms: C_11  and  C_16
REMARK                            x       y       z     vdW  Elec       q    Type
REMARK                         _______ _______ _______ _____ _____    ______ ____
ROOT
ATOM      1  O   UNL     1     104.746 124.214 146.831  0.00  0.00    +0.000 OA
ATOM      2  O   UNL     1     102.038 125.014 147.441  0.00  0.00    +0.000 OA
ATOM      3  O   UNL     1     102.517 122.739 145.675  0.00  0.00    +0.000 OA
ATOM      4  O   UNL     1     103.166 125.722 147.996  0.00  0.00    +0.000 OA
ATOM      5  C   UNL     1     103.407 124.609 147.132  0.00  0.00    +0.000 A 
ATOM      6  C   UNL     1     103.933 124.107 146.743  0.00  0.00    +0.000 A 
ATOM      7  C   UNL     1     105.033 124.825 147.306  0.00  0.00    +0.000 A 
ATOM      8  C   UNL     1     102.556 124.508 147.049  0.00  0.00    +0.000 A 
ATOM      9  C   UNL     1     104.506 125.327 147.694  0.00  0.00    +0.000 A 
ATOM     10  C   UNL     1     103.692 125.219 147.607  0.00  0.00    +0.000 A 
ATOM     11  C   UNL     1     102.252 123.874 146.555  0.00  0.00    +0.000 A 
ATOM     12  C   UNL     1     103.647 123.467 146.245  0.00  0.00    +0.000 A 
ATOM     13  C   UNL     1     102.801 123.350 146.151  0.00  0.00    +0.000 A 
ATOM     14  C   UNL     1     101.438 123.769 146.470  0.00  0.00    +0.000 C 
ENDROOT
BRANCH   7  18
ATOM     15  O   UNL     1     107.439 124.410 148.792  0.00  0.00    +0.000 OA
ATOM     16  O   UNL     1     107.507 125.886 146.345  0.00  0.00    +0.000 OA
ATOM     17  O   UNL     1     108.286 125.256 147.656  0.00  0.00    +0.000 OA
ATOM     18  C   UNL     1     105.846 124.932 147.394  0.00  0.00    +0.000 A 
ATOM     19  C   UNL     1     106.270 125.355 146.826  0.00  0.00    +0.000 A 
ATOM     20  C   UNL     1     106.235 124.617 148.049  0.00  0.00    +0.000 A 
ATOM     21  C   UNL     1     107.049 124.725 148.137  0.00  0.00    +0.000 A 
ATOM     22  C   UNL     1     107.083 125.463 146.913  0.00  0.00    +0.000 A 
ATOM     23  C   UNL     1     107.472 125.148 147.569  0.00  0.00    +0.000 A 
ENDBRANCH   7  18
BRANCH   9  24
ATOM     24  O   UNL     1     104.792 125.937 148.170  0.00  0.00    +0.000 OA
ATOM     25  C   UNL     1     104.312 126.585 148.345  0.00  0.00    +0.000 C 
ENDBRANCH   9  24
TORSDOF 2
ENDMDL
MODEL 3
REMARK VINA RESULT:      -8.5      1.385      3.029
REMARK  Name = 44259707
REMARK  2 active torsions:
REMARK  status: ('A' for Active; 'I' for Inactive)
REMARK    1  A    between atoms: O_2  and  C_13
REMARK    2  A    between atoms: C_11  and  C_16
REMARK                            x       y       z     vdW  Elec       q    Type
REMARK                         _______ _______ _______ _____ _____    ______ ____
ROOT
ATOM      1  O   UNL     1     106.849 125.286 146.399  0.00  0.00    +0.000 OA
ATOM      2  O   UNL     1     105.677 124.435 148.899  0.00  0.00    +0.000 OA
ATOM      3  O   UNL     1     108.570 124.775 148.692  0.00  0.00    +0.000 OA
ATOM      4  O   UNL     1     104.855 124.697 147.743  0.00  0.00    +0.000 OA
ATOM      5  C   UNL     1     106.271 124.865 147.635  0.00  0.00    +0.000 A 
ATOM      6  C   UNL     1     106.935 125.061 147.188  0.00  0.00    +0.000 A 
ATOM      7  C   UNL     1     106.098 125.314 146.057  0.00  0.00    +0.000 A 
ATOM      8  C   UNL     1     106.347 124.629 148.459  0.00  0.00    +0.000 A 
ATOM      9  C   UNL     1     105.434 125.118 146.505  0.00  0.00    +0.000 A 
ATOM     10  C   UNL     1     105.520 124.893 147.295  0.00  0.00    +0.000 A 
ATOM     11  C   UNL     1     107.126 124.598 148.820  0.00  0.00    +0.000 A 
ATOM     12  C   UNL     1     107.722 125.035 147.532  0.00  0.00    +0.000 A 
ATOM     13  C   UNL     1     107.818 124.802 148.353  0.00  0.00    +0.000 A 
ATOM     14  C   UNL     1     107.209 124.372 149.609  0.00  0.00    +0.000 C 
ENDROOT
BRANCH   7  18
ATOM     15  O   UNL     1     105.993 124.626 143.285  0.00  0.00    +0.000 OA
ATOM     16  O   UNL     1     105.686 127.350 144.094  0.00  0.00    +0.000 OA
ATOM     17  O   UNL     1     105.753 126.212 142.900  0.00  0.00    +0.000 OA
ATOM     18  C   UNL     1     106.012 125.539 145.269  0.00  0.00    +0.000 A 
ATOM     19  C   UNL     1     105.892 126.332 145.075  0.00  0.00    +0.000 A 
ATOM     20  C   UNL     1     106.046 124.970 144.672  0.00  0.00    +0.000 A 
ATOM     21  C   UNL     1     105.959 125.195 143.882  0.00  0.00    +0.000 A 
ATOM     22  C   UNL     1     105.806 126.557 144.287  0.00  0.00    +0.000 A 
ATOM     23  C   UNL     1     105.839 125.988 143.690  0.00  0.00    +0.000 A 
ENDBRANCH   7  18
BRANCH   9  24
ATOM     24  O   UNL     1     104.683 125.146 146.164  0.00  0.00    +0.000 OA
ATOM     25  C   UNL     1     104.055 124.743 146.516  0.00  0.00    +0.000 C 
ENDBRANCH   9  24
TORSDOF 2
ENDMDL
MODEL 4
REMARK VINA RESULT:      -8.5     12.957     14.180
REMARK  Name = 44259707
REMARK  2 active torsions:
REMARK  status: ('A' for Active; 'I' for Inactive)
REMARK    1  A    between atoms: O_2  and  C_13
REMARK    2  A    between atoms: C_11  and  C_16
REMARK                            x       y       z     vdW  Elec       q    Type
REMARK                         _______ _______ _______ _____ _____    ______ ____
ROOT
ATOM      1  O   UNL     1     113.884 127.079 136.624  0.00  0.00    +0.000 OA
ATOM      2  O   UNL     1     111.860 125.038 136.332  0.00  0.00    +0.000 OA
ATOM      3  O   UNL     1     114.506 124.327 137.343  0.00  0.00    +0.000 OA
ATOM      4  O   UNL     1     111.587 126.412 135.986  0.00  0.00    +0.000 OA
ATOM      5  C   UNL     1     112.884 126.069 136.480  0.00  0.00    +0.000 A 
ATOM      6  C   UNL     1     113.649 126.292 136.693  0.00  0.00    +0.000 A 
ATOM      7  C   UNL     1     113.353 127.645 136.343  0.00  0.00    +0.000 A 
ATOM      8  C   UNL     1     112.627 125.251 136.547  0.00  0.00    +0.000 A 
ATOM      9  C   UNL     1     112.588 127.423 136.130  0.00  0.00    +0.000 A 
ATOM     10  C   UNL     1     112.353 126.634 136.199  0.00  0.00    +0.000 A 
ATOM     11  C   UNL     1     113.175 124.658 136.840  0.00  0.00    +0.000 A 
ATOM     12  C   UNL     1     114.211 125.712 136.987  0.00  0.00    +0.000 A 
ATOM     13  C   UNL     1     113.973 124.890 137.061  0.00  0.00    +0.000 A 
ATOM     14  C   UNL     1     112.938 123.871 136.907  0.00  0.00    +0.000 C 
ENDROOT
BRANCH   7  18
ATOM     15  O   UNL     1     113.529 130.279 137.438  0.00  0.00    +0.000 OA
ATOM     16  O   UNL     1     114.584 129.739 134.837  0.00  0.00    +0.000 OA
ATOM     17  O   UNL     1     114.291 130.797 136.069  0.00  0.00    +0.000 OA
ATOM     18  C   UNL     1     113.588 128.433 136.274  0.00  0.00    +0.000 A 
ATOM     19  C   UNL     1     113.968 128.692 135.590  0.00  0.00    +0.000 A 
ATOM     20  C   UNL     1     113.441 128.962 136.890  0.00  0.00    +0.000 A 
ATOM     21  C   UNL     1     113.676 129.750 136.822  0.00  0.00    +0.000 A 
ATOM     22  C   UNL     1     114.203 129.480 135.521  0.00  0.00    +0.000 A 
ATOM     23  C   UNL     1     114.056 130.009 136.137  0.00  0.00    +0.000 A 
ENDBRANCH   7  18
BRANCH   9  24
ATOM     24  O   UNL     1     112.057 127.988 135.849  0.00  0.00    +0.000 OA
ATOM     25  C   UNL     1     111.410 127.755 135.393  0.00  0.00    +0.000 C 
ENDBRANCH   9  24
TORSDOF 2
ENDMDL
MODEL 5
REMARK VINA RESULT:      -8.4      1.269      4.325
REMARK  Name = 44259707
REMARK  2 active torsions:
REMARK  status: ('A' for Active; 'I' for Inactive)
REMARK    1  A    between atoms: O_2  and  C_13
REMARK    2  A    between atoms: C_11  and  C_16
REMARK                            x       y       z     vdW  Elec       q    Type
REMARK                         _______ _______ _______ _____ _____    ______ ____
ROOT
ATOM      1  O   UNL     1     103.565 124.226 147.419  0.00  0.00    +0.000 OA
ATOM      2  O   UNL     1     102.590 122.991 144.997  0.00  0.00    +0.000 OA
ATOM      3  O   UNL     1     100.826 123.244 147.310  0.00  0.00    +0.000 OA
ATOM      4  O   UNL     1     103.940 123.489 145.087  0.00  0.00    +0.000 OA
ATOM      5  C   UNL     1     103.082 123.615 146.222  0.00  0.00    +0.000 A 
ATOM      6  C   UNL     1     102.956 123.861 147.000  0.00  0.00    +0.000 A 
ATOM      7  C   UNL     1     104.299 124.346 147.063  0.00  0.00    +0.000 A 
ATOM      8  C   UNL     1     102.455 123.233 145.773  0.00  0.00    +0.000 A 
ATOM      9  C   UNL     1     104.424 124.100 146.285  0.00  0.00    +0.000 A 
ATOM     10  C   UNL     1     103.815 123.734 145.864  0.00  0.00    +0.000 A 
ATOM     11  C   UNL     1     101.689 123.106 146.140  0.00  0.00    +0.000 A 
ATOM     12  C   UNL     1     102.196 123.742 147.383  0.00  0.00    +0.000 A 
ATOM     13  C   UNL     1     101.558 123.362 146.950  0.00  0.00    +0.000 A 
ATOM     14  C   UNL     1     101.082 122.740 145.717  0.00  0.00    +0.000 C 
ENDROOT
BRANCH   7  18
ATOM     15  O   UNL     1     105.628 126.723 147.929  0.00  0.00    +0.000 OA
ATOM     16  O   UNL     1     106.623 124.162 148.717  0.00  0.00    +0.000 OA
ATOM     17  O   UNL     1     106.734 125.808 148.743  0.00  0.00    +0.000 OA
ATOM     18  C   UNL     1     104.907 124.711 147.482  0.00  0.00    +0.000 A 
ATOM     19  C   UNL     1     105.461 124.254 147.890  0.00  0.00    +0.000 A 
ATOM     20  C   UNL     1     104.963 125.534 147.495  0.00  0.00    +0.000 A 
ATOM     21  C   UNL     1     105.573 125.900 147.916  0.00  0.00    +0.000 A 
ATOM     22  C   UNL     1     106.069 124.619 148.309  0.00  0.00    +0.000 A 
ATOM     23  C   UNL     1     106.125 125.442 148.322  0.00  0.00    +0.000 A 
ENDBRANCH   7  18
BRANCH   9  24
ATOM     24  O   UNL     1     105.158 124.219 145.927  0.00  0.00    +0.000 OA
ATOM     25  C   UNL     1     105.210 124.294 145.107  0.00  0.00    +0.000 C 
ENDBRANCH   9  24
TORSDOF 2
ENDMDL
MODEL 6
REMARK VINA RESULT:      -8.3      6.612      8.253
REMARK  Name = 44259707
REMARK  2 active torsions:
REMARK  status: ('A' for Active; 'I' for Inactive)
REMARK    1  A    between atoms: O_2  and  C_13
REMARK    2  A    between atoms: C_11  and  C_16
REMARK                            x       y       z     vdW  Elec       q    Type
REMARK                         _______ _______ _______ _____ _____    ______ ____
ROOT
ATOM      1  O   UNL     1     103.542 130.195 142.281  0.00  0.00    +0.000 OA
ATOM      2  O   UNL     1     104.277 127.735 140.958  0.00  0.00    +0.000 OA
ATOM      3  O   UNL     1     105.429 128.385 143.561  0.00  0.00    +0.000 OA
ATOM      4  O   UNL     1     103.345 128.655 140.354  0.00  0.00    +0.000 OA
ATOM      5  C   UNL     1     103.906 128.979 141.628  0.00  0.00    +0.000 A 
ATOM      6  C   UNL     1     103.971 129.492 142.270  0.00  0.00    +0.000 A 
ATOM      7  C   UNL     1     103.046 130.387 141.650  0.00  0.00    +0.000 A 
ATOM      8  C   UNL     1     104.349 128.241 141.604  0.00  0.00    +0.000 A 
ATOM      9  C   UNL     1     102.980 129.873 141.007  0.00  0.00    +0.000 A 
ATOM     10  C   UNL     1     103.411 129.168 140.996  0.00  0.00    +0.000 A 
ATOM     11  C   UNL     1     104.866 128.038 142.259  0.00  0.00    +0.000 A 
ATOM     12  C   UNL     1     104.484 129.305 142.934  0.00  0.00    +0.000 A 
ATOM     13  C   UNL     1     104.935 128.573 142.929  0.00  0.00    +0.000 A 
ATOM     14  C   UNL     1     105.295 127.333 142.246  0.00  0.00    +0.000 C 
ENDROOT
BRANCH   7  18
ATOM     15  O   UNL     1     102.802 133.148 140.955  0.00  0.00    +0.000 OA
ATOM     16  O   UNL     1     100.711 131.850 142.407  0.00  0.00    +0.000 OA
ATOM     17  O   UNL     1     101.326 133.203 141.692  0.00  0.00    +0.000 OA
ATOM     18  C   UNL     1     102.616 131.090 141.660  0.00  0.00    +0.000 A 
ATOM     19  C   UNL     1     101.878 131.118 142.028  0.00  0.00    +0.000 A 
ATOM     20  C   UNL     1     102.924 131.767 141.303  0.00  0.00    +0.000 A 
ATOM     21  C   UNL     1     102.494 132.471 141.313  0.00  0.00    +0.000 A 
ATOM     22  C   UNL     1     101.449 131.822 142.039  0.00  0.00    +0.000 A 
ATOM     23  C   UNL     1     101.756 132.498 141.681  0.00  0.00    +0.000 A 
ENDBRANCH   7  18
BRANCH   9  24
ATOM     24  O   UNL     1     102.485 130.063 140.376  0.00  0.00    +0.000 OA
ATOM     25  C   UNL     1     102.243 129.476 139.849  0.00  0.00    +0.000 C 
ENDBRANCH   9  24
TORSDOF 2
ENDMDL
MODEL 7
REMARK VINA RESULT:      -8.3     10.039     12.187
REMARK  Name = 44259707
REMARK  2 active torsions:
REMARK  status: ('A' for Active; 'I' for Inactive)
REMARK    1  A    between atoms: O_2  and  C_13
REMARK    2  A    between atoms: C_11  and  C_16
REMARK                            x       y       z     vdW  Elec       q    Type
REMARK                         _______ _______ _______ _____ _____    ______ ____
ROOT
ATOM      1  O   UNL     1     113.488 126.210 138.365  0.00  0.00    +0.000 OA
ATOM      2  O   UNL     1     111.237 124.548 137.646  0.00  0.00    +0.000 OA
ATOM      3  O   UNL     1     113.715 124.381 136.110  0.00  0.00    +0.000 OA
ATOM      4  O   UNL     1     111.160 125.465 138.756  0.00  0.00    +0.000 OA
ATOM      5  C   UNL     1     112.375 125.388 138.008  0.00  0.00    +0.000 A 
ATOM      6  C   UNL     1     113.151 125.636 137.878  0.00  0.00    +0.000 A 
ATOM      7  C   UNL     1     113.049 126.537 138.983  0.00  0.00    +0.000 A 
ATOM      8  C   UNL     1     112.013 124.790 137.508  0.00  0.00    +0.000 A 
ATOM      9  C   UNL     1     112.273 126.288 139.113  0.00  0.00    +0.000 A 
ATOM     10  C   UNL     1     111.936 125.714 138.626  0.00  0.00    +0.000 A 
ATOM     11  C   UNL     1     112.465 124.447 136.863  0.00  0.00    +0.000 A 
ATOM     12  C   UNL     1     113.619 125.304 137.238  0.00  0.00    +0.000 A 
ATOM     13  C   UNL     1     113.274 124.705 136.727  0.00  0.00    +0.000 A 
ATOM     14  C   UNL     1     112.126 123.872 136.378  0.00  0.00    +0.000 C 
ENDROOT
BRANCH   7  18
ATOM     15  O   UNL     1     114.632 127.234 141.258  0.00  0.00    +0.000 OA
ATOM     16  O   UNL     1     113.485 129.286 139.632  0.00  0.00    +0.000 OA
ATOM     17  O   UNL     1     114.395 128.834 140.932  0.00  0.00    +0.000 OA
ATOM     18  C   UNL     1     113.385 127.111 139.469  0.00  0.00    +0.000 A 
ATOM     19  C   UNL     1     113.267 127.911 139.307  0.00  0.00    +0.000 A 
ATOM     20  C   UNL     1     113.840 126.885 140.120  0.00  0.00    +0.000 A 
ATOM     21  C   UNL     1     114.177 127.460 140.607  0.00  0.00    +0.000 A 
ATOM     22  C   UNL     1     113.603 128.485 139.794  0.00  0.00    +0.000 A 
ATOM     23  C   UNL     1     114.058 128.260 140.444  0.00  0.00    +0.000 A 
ENDBRANCH   7  18
BRANCH   9  24
ATOM     24  O   UNL     1     111.833 126.614 139.730  0.00  0.00    +0.000 OA
ATOM     25  C   UNL     1     111.023 126.466 139.784  0.00  0.00    +0.000 C 
ENDBRANCH   9  24
TORSDOF 2
ENDMDL
MODEL 8
REMARK VINA RESULT:      -8.2     11.886     13.745
REMARK  Name = 44259707
REMARK  2 active torsions:
REMARK  status: ('A' for Active; 'I' for Inactive)
REMARK    1  A    between atoms: O_2  and  C_13
REMARK    2  A    between atoms: C_11  and  C_16
REMARK                            x       y       z     vdW  Elec       q    Type
REMARK                         _______ _______ _______ _____ _____    ______ ____
ROOT
ATOM      1  O   UNL     1     113.662 127.284 136.167  0.00  0.00    +0.000 OA
ATOM      2  O   UNL     1     113.278 129.826 137.485  0.00  0.00    +0.000 OA
ATOM      3  O   UNL     1     114.633 129.720 134.901  0.00  0.00    +0.000 OA
ATOM      4  O   UNL     1     112.810 128.600 138.083  0.00  0.00    +0.000 OA
ATOM      5  C   UNL     1     113.473 128.542 136.818  0.00  0.00    +0.000 A 
ATOM      6  C   UNL     1     113.757 128.103 136.180  0.00  0.00    +0.000 A 
ATOM      7  C   UNL     1     113.284 126.903 136.794  0.00  0.00    +0.000 A 
ATOM      8  C   UNL     1     113.565 129.397 136.843  0.00  0.00    +0.000 A 
ATOM      9  C   UNL     1     113.000 127.341 137.432  0.00  0.00    +0.000 A 
ATOM     10  C   UNL     1     113.094 128.161 137.445  0.00  0.00    +0.000 A 
ATOM     11  C   UNL     1     113.958 129.799 136.194  0.00  0.00    +0.000 A 
ATOM     12  C   UNL     1     114.153 128.489 135.521  0.00  0.00    +0.000 A 
ATOM     13  C   UNL     1     114.254 129.342 135.528  0.00  0.00    +0.000 A 
ATOM     14  C   UNL     1     114.051 130.618 136.209  0.00  0.00    +0.000 C 
ENDROOT
BRANCH   7  18
ATOM     15  O   UNL     1     114.285 124.287 137.363  0.00  0.00    +0.000 OA
ATOM     16  O   UNL     1     111.716 124.601 136.152  0.00  0.00    +0.000 OA
ATOM     17  O   UNL     1     112.906 123.625 136.745  0.00  0.00    +0.000 OA
ATOM     18  C   UNL     1     113.189 126.084 136.781  0.00  0.00    +0.000 A 
ATOM     19  C   UNL     1     112.500 125.752 136.473  0.00  0.00    +0.000 A 
ATOM     20  C   UNL     1     113.785 125.596 137.078  0.00  0.00    +0.000 A 
ATOM     21  C   UNL     1     113.690 124.775 137.066  0.00  0.00    +0.000 A 
ATOM     22  C   UNL     1     112.405 124.933 136.460  0.00  0.00    +0.000 A 
ATOM     23  C   UNL     1     113.001 124.445 136.757  0.00  0.00    +0.000 A 
ENDBRANCH   7  18
BRANCH   9  24
ATOM     24  O   UNL     1     112.621 126.961 138.059  0.00  0.00    +0.000 OA
ATOM     25  C   UNL     1     112.598 127.315 138.803  0.00  0.00    +0.000 C 
ENDBRANCH   9  24
TORSDOF 2
ENDMDL
