MODEL 1
REMARK VINA RESULT:      -8.1      0.000      0.000
REMARK  Name = 131836442
REMARK  4 active torsions:
REMARK  status: ('A' for Active; 'I' for Inactive)
REMARK    1  A    between atoms: O_2  and  C_10
REMARK    2  A    between atoms: O_5  and  C_19
REMARK    3  A    between atoms: O_7  and  C_23
REMARK    4  A    between atoms: C_9  and  C_12
REMARK                            x       y       z     vdW  Elec       q    Type
REMARK                         _______ _______ _______ _____ _____    ______ ____
ROOT
ATOM      1  O   UNL     1     104.683 124.071 146.739  0.00  0.00    +0.000 OA
ATOM      2  O   UNL     1     102.971 125.483 147.836  0.00  0.00    +0.000 OA
ATOM      3  O   UNL     1     101.920 124.845 147.081  0.00  0.00    +0.000 OA
ATOM      4  O   UNL     1     102.615 122.739 145.181  0.00  0.00    +0.000 OA
ATOM      5  C   UNL     1     104.909 124.630 147.302  0.00  0.00    +0.000 C 
ATOM      6  C   UNL     1     104.338 125.101 147.668  0.00  0.00    +0.000 C 
ATOM      7  C   UNL     1     103.541 125.012 147.470  0.00  0.00    +0.000 C 
ATOM      8  C   UNL     1     103.317 124.453 146.907  0.00  0.00    +0.000 A 
ATOM      9  C   UNL     1     103.887 123.982 146.542  0.00  0.00    +0.000 A 
ATOM     10  C   UNL     1     102.483 124.370 146.710  0.00  0.00    +0.000 A 
ATOM     11  C   UNL     1     103.665 123.396 145.954  0.00  0.00    +0.000 A 
ATOM     12  C   UNL     1     102.242 123.790 146.125  0.00  0.00    +0.000 A 
ATOM     13  C   UNL     1     102.837 123.299 145.744  0.00  0.00    +0.000 A 
ENDROOT
BRANCH   5  15
ATOM     14  O   UNL     1     107.531 125.562 146.651  0.00  0.00    +0.000 OA
ATOM     15  C   UNL     1     105.704 124.719 147.500  0.00  0.00    +0.000 A 
ATOM     16  C   UNL     1     106.219 125.096 146.977  0.00  0.00    +0.000 A 
ATOM     17  C   UNL     1     105.986 124.431 148.220  0.00  0.00    +0.000 A 
ATOM     18  C   UNL     1     107.016 125.185 147.174  0.00  0.00    +0.000 A 
ATOM     19  C   UNL     1     106.782 124.520 148.417  0.00  0.00    +0.000 A 
ATOM     20  C   UNL     1     107.296 124.897 147.894  0.00  0.00    +0.000 A 
BRANCH  20  21
ATOM     21  O   UNL     1     108.093 124.986 148.092  0.00  0.00    +0.000 OA
ATOM     22  C   UNL     1     108.387 124.645 148.783  0.00  0.00    +0.000 C 
ENDBRANCH  20  21
ENDBRANCH   5  15
BRANCH   6  23
ATOM     23  O   UNL     1     104.563 125.660 148.231  0.00  0.00    +0.000 OA
ATOM     24  C   UNL     1     104.104 126.336 148.348  0.00  0.00    +0.000 C 
ENDBRANCH   6  23
BRANCH  12  25
ATOM     25  O   UNL     1     101.446 123.703 145.930  0.00  0.00    +0.000 OA
ATOM     26  C   UNL     1     101.008 123.080 146.248  0.00  0.00    +0.000 C 
ENDBRANCH  12  25
TORSDOF 4
ENDMDL
MODEL 2
REMARK VINA RESULT:      -7.8      7.767      8.800
REMARK  Name = 131836442
REMARK  4 active torsions:
REMARK  status: ('A' for Active; 'I' for Inactive)
REMARK    1  A    between atoms: O_2  and  C_10
REMARK    2  A    between atoms: O_5  and  C_19
REMARK    3  A    between atoms: O_7  and  C_23
REMARK    4  A    between atoms: C_9  and  C_12
REMARK                            x       y       z     vdW  Elec       q    Type
REMARK                         _______ _______ _______ _____ _____    ______ ____
ROOT
ATOM      1  O   UNL     1     103.566 130.146 142.277  0.00  0.00    +0.000 OA
ATOM      2  O   UNL     1     103.380 128.620 140.337  0.00  0.00    +0.000 OA
ATOM      3  O   UNL     1     104.277 127.676 140.958  0.00  0.00    +0.000 OA
ATOM      4  O   UNL     1     105.382 128.287 143.591  0.00  0.00    +0.000 OA
ATOM      5  C   UNL     1     103.089 130.351 141.636  0.00  0.00    +0.000 C 
ATOM      6  C   UNL     1     103.027 129.843 140.989  0.00  0.00    +0.000 C 
ATOM      7  C   UNL     1     103.442 129.129 140.984  0.00  0.00    +0.000 C 
ATOM      8  C   UNL     1     103.918 128.924 141.626  0.00  0.00    +0.000 A 
ATOM      9  C   UNL     1     103.980 129.433 142.273  0.00  0.00    +0.000 A 
ATOM     10  C   UNL     1     104.345 128.178 141.608  0.00  0.00    +0.000 A 
ATOM     11  C   UNL     1     104.473 129.230 142.947  0.00  0.00    +0.000 A 
ATOM     12  C   UNL     1     104.842 127.959 142.274  0.00  0.00    +0.000 A 
ATOM     13  C   UNL     1     104.907 128.489 142.948  0.00  0.00    +0.000 A 
ENDROOT
BRANCH   5  15
ATOM     14  O   UNL     1     102.949 133.136 141.009  0.00  0.00    +0.000 OA
ATOM     15  C   UNL     1     102.675 131.064 141.640  0.00  0.00    +0.000 A 
ATOM     16  C   UNL     1     103.020 131.743 141.322  0.00  0.00    +0.000 A 
ATOM     17  C   UNL     1     101.917 131.099 141.963  0.00  0.00    +0.000 A 
ATOM     18  C   UNL     1     102.605 132.457 141.327  0.00  0.00    +0.000 A 
ATOM     19  C   UNL     1     101.503 131.812 141.968  0.00  0.00    +0.000 A 
ATOM     20  C   UNL     1     101.847 132.491 141.650  0.00  0.00    +0.000 A 
BRANCH  20  21
ATOM     21  O   UNL     1     101.433 133.205 141.654  0.00  0.00    +0.000 OA
ATOM     22  C   UNL     1     100.710 133.260 142.049  0.00  0.00    +0.000 C 
ENDBRANCH  20  21
ENDBRANCH   5  15
BRANCH   6  23
ATOM     23  O   UNL     1     102.552 130.047 140.347  0.00  0.00    +0.000 OA
ATOM     24  C   UNL     1     102.263 129.461 139.844  0.00  0.00    +0.000 C 
ENDBRANCH   6  23
BRANCH  12  25
ATOM     25  O   UNL     1     105.255 127.245 142.266  0.00  0.00    +0.000 OA
ATOM     26  C   UNL     1     106.069 127.241 142.132  0.00  0.00    +0.000 C 
ENDBRANCH  12  25
TORSDOF 4
ENDMDL
MODEL 3
REMARK VINA RESULT:      -7.7     12.841     14.121
REMARK  Name = 131836442
REMARK  4 active torsions:
REMARK  status: ('A' for Active; 'I' for Inactive)
REMARK    1  A    between atoms: O_2  and  C_10
REMARK    2  A    between atoms: O_5  and  C_19
REMARK    3  A    between atoms: O_7  and  C_23
REMARK    4  A    between atoms: C_9  and  C_12
REMARK                            x       y       z     vdW  Elec       q    Type
REMARK                         _______ _______ _______ _____ _____    ______ ____
ROOT
ATOM      1  O   UNL     1     113.457 126.783 136.624  0.00  0.00    +0.000 OA
ATOM      2  O   UNL     1     111.169 126.396 135.762  0.00  0.00    +0.000 OA
ATOM      3  O   UNL     1     111.291 124.978 135.996  0.00  0.00    +0.000 OA
ATOM      4  O   UNL     1     113.774 123.931 137.122  0.00  0.00    +0.000 OA
ATOM      5  C   UNL     1     113.003 127.419 136.360  0.00  0.00    +0.000 C 
ATOM      6  C   UNL     1     112.240 127.290 136.073  0.00  0.00    +0.000 C 
ATOM      7  C   UNL     1     111.932 126.525 136.049  0.00  0.00    +0.000 C 
ATOM      8  C   UNL     1     112.387 125.889 136.314  0.00  0.00    +0.000 A 
ATOM      9  C   UNL     1     113.149 126.018 136.601  0.00  0.00    +0.000 A 
ATOM     10  C   UNL     1     112.054 125.097 136.284  0.00  0.00    +0.000 A 
ATOM     11  C   UNL     1     113.633 125.364 136.879  0.00  0.00    +0.000 A 
ATOM     12  C   UNL     1     112.522 124.431 136.558  0.00  0.00    +0.000 A 
ATOM     13  C   UNL     1     113.317 124.565 136.857  0.00  0.00    +0.000 A 
ENDROOT
BRANCH   5  15
ATOM     14  O   UNL     1     114.584 129.487 135.180  0.00  0.00    +0.000 OA
ATOM     15  C   UNL     1     113.311 128.184 136.383  0.00  0.00    +0.000 A 
ATOM     16  C   UNL     1     113.793 128.453 135.770  0.00  0.00    +0.000 A 
ATOM     17  C   UNL     1     113.136 128.681 137.019  0.00  0.00    +0.000 A 
ATOM     18  C   UNL     1     114.101 129.218 135.793  0.00  0.00    +0.000 A 
ATOM     19  C   UNL     1     113.444 129.445 137.042  0.00  0.00    +0.000 A 
ATOM     20  C   UNL     1     113.926 129.714 136.429  0.00  0.00    +0.000 A 
BRANCH  20  21
ATOM     21  O   UNL     1     114.235 130.480 136.452  0.00  0.00    +0.000 OA
ATOM     22  C   UNL     1     113.961 131.017 137.014  0.00  0.00    +0.000 C 
ENDBRANCH  20  21
ENDBRANCH   5  15
BRANCH   6  23
ATOM     23  O   UNL     1     111.785 127.926 135.809  0.00  0.00    +0.000 OA
ATOM     24  C   UNL     1     111.175 127.800 135.268  0.00  0.00    +0.000 C 
ENDBRANCH   6  23
BRANCH  12  25
ATOM     25  O   UNL     1     112.212 123.667 136.533  0.00  0.00    +0.000 OA
ATOM     26  C   UNL     1     111.922 123.317 137.222  0.00  0.00    +0.000 C 
ENDBRANCH  12  25
TORSDOF 4
ENDMDL
MODEL 4
REMARK VINA RESULT:      -7.7     11.775     13.147
REMARK  Name = 131836442
REMARK  4 active torsions:
REMARK  status: ('A' for Active; 'I' for Inactive)
REMARK    1  A    between atoms: O_2  and  C_10
REMARK    2  A    between atoms: O_5  and  C_19
REMARK    3  A    between atoms: O_7  and  C_23
REMARK    4  A    between atoms: C_9  and  C_12
REMARK                            x       y       z     vdW  Elec       q    Type
REMARK                         _______ _______ _______ _____ _____    ______ ____
ROOT
ATOM      1  O   UNL     1     109.986 126.953 136.273  0.00  0.00    +0.000 OA
ATOM      2  O   UNL     1     111.673 128.564 135.446  0.00  0.00    +0.000 OA
ATOM      3  O   UNL     1     110.646 129.534 135.156  0.00  0.00    +0.000 OA
ATOM      4  O   UNL     1     107.859 128.862 135.712  0.00  0.00    +0.000 OA
ATOM      5  C   UNL     1     110.785 126.749 136.275  0.00  0.00    +0.000 C 
ATOM      6  C   UNL     1     111.348 127.286 135.999  0.00  0.00    +0.000 C 
ATOM      7  C   UNL     1     111.110 128.027 135.722  0.00  0.00    +0.000 C 
ATOM      8  C   UNL     1     110.311 128.229 135.721  0.00  0.00    +0.000 A 
ATOM      9  C   UNL     1     109.748 127.692 135.996  0.00  0.00    +0.000 A 
ATOM     10  C   UNL     1     110.077 129.004 135.429  0.00  0.00    +0.000 A 
ATOM     11  C   UNL     1     108.912 127.892 136.000  0.00  0.00    +0.000 A 
ATOM     12  C   UNL     1     109.246 129.221 135.425  0.00  0.00    +0.000 A 
ATOM     13  C   UNL     1     108.659 128.661 135.713  0.00  0.00    +0.000 A 
ENDROOT
BRANCH   5  15
ATOM     14  O   UNL     1     111.392 125.000 138.452  0.00  0.00    +0.000 OA
ATOM     15  C   UNL     1     111.022 126.010 136.552  0.00  0.00    +0.000 A 
ATOM     16  C   UNL     1     111.088 125.875 137.363  0.00  0.00    +0.000 A 
ATOM     17  C   UNL     1     111.194 125.404 136.018  0.00  0.00    +0.000 A 
ATOM     18  C   UNL     1     111.326 125.135 137.640  0.00  0.00    +0.000 A 
ATOM     19  C   UNL     1     111.431 124.665 136.295  0.00  0.00    +0.000 A 
ATOM     20  C   UNL     1     111.497 124.530 137.106  0.00  0.00    +0.000 A 
BRANCH  20  21
ATOM     21  O   UNL     1     111.735 123.790 137.384  0.00  0.00    +0.000 OA
ATOM     22  C   UNL     1     112.167 123.286 136.894  0.00  0.00    +0.000 C 
ENDBRANCH  20  21
ENDBRANCH   5  15
BRANCH   6  23
ATOM     23  O   UNL     1     112.147 127.084 136.000  0.00  0.00    +0.000 OA
ATOM     24  C   UNL     1     112.722 127.671 136.073  0.00  0.00    +0.000 C 
ENDBRANCH   6  23
BRANCH  12  25
ATOM     25  O   UNL     1     109.011 129.962 135.148  0.00  0.00    +0.000 OA
ATOM     26  C   UNL     1     108.813 130.559 135.681  0.00  0.00    +0.000 C 
ENDBRANCH  12  25
TORSDOF 4
ENDMDL
MODEL 5
REMARK VINA RESULT:      -7.6      1.610      2.279
REMARK  Name = 131836442
REMARK  4 active torsions:
REMARK  status: ('A' for Active; 'I' for Inactive)
REMARK    1  A    between atoms: O_2  and  C_10
REMARK    2  A    between atoms: O_5  and  C_19
REMARK    3  A    between atoms: O_7  and  C_23
REMARK    4  A    between atoms: C_9  and  C_12
REMARK                            x       y       z     vdW  Elec       q    Type
REMARK                         _______ _______ _______ _____ _____    ______ ____
ROOT
ATOM      1  O   UNL     1     103.441 124.633 146.374  0.00  0.00    +0.000 OA
ATOM      2  O   UNL     1     103.768 124.609 148.827  0.00  0.00    +0.000 OA
ATOM      3  O   UNL     1     102.440 124.083 149.027  0.00  0.00    +0.000 OA
ATOM      4  O   UNL     1     100.750 123.571 146.702  0.00  0.00    +0.000 OA
ATOM      5  C   UNL     1     104.156 124.890 146.697  0.00  0.00    +0.000 C 
ATOM      6  C   UNL     1     104.265 124.882 147.514  0.00  0.00    +0.000 C 
ATOM      7  C   UNL     1     103.659 124.617 148.009  0.00  0.00    +0.000 C 
ATOM      8  C   UNL     1     102.945 124.360 147.685  0.00  0.00    +0.000 A 
ATOM      9  C   UNL     1     102.836 124.368 146.867  0.00  0.00    +0.000 A 
ATOM     10  C   UNL     1     102.322 124.087 148.211  0.00  0.00    +0.000 A 
ATOM     11  C   UNL     1     102.097 124.103 146.518  0.00  0.00    +0.000 A 
ATOM     12  C   UNL     1     101.576 123.819 147.880  0.00  0.00    +0.000 A 
ATOM     13  C   UNL     1     101.463 123.827 147.028  0.00  0.00    +0.000 A 
ENDROOT
BRANCH   5  15
ATOM     14  O   UNL     1     106.374 124.331 144.983  0.00  0.00    +0.000 OA
ATOM     15  C   UNL     1     104.761 125.154 146.203  0.00  0.00    +0.000 A 
ATOM     16  C   UNL     1     105.265 124.610 145.841  0.00  0.00    +0.000 A 
ATOM     17  C   UNL     1     104.863 125.962 146.071  0.00  0.00    +0.000 A 
ATOM     18  C   UNL     1     105.871 124.875 145.346  0.00  0.00    +0.000 A 
ATOM     19  C   UNL     1     105.468 126.227 145.577  0.00  0.00    +0.000 A 
ATOM     20  C   UNL     1     105.972 125.683 145.215  0.00  0.00    +0.000 A 
BRANCH  20  21
ATOM     21  O   UNL     1     106.578 125.948 144.720  0.00  0.00    +0.000 OA
ATOM     22  C   UNL     1     106.542 126.704 144.393  0.00  0.00    +0.000 C 
ENDBRANCH  20  21
ENDBRANCH   5  15
BRANCH   6  23
ATOM     23  O   UNL     1     104.979 125.138 147.839  0.00  0.00    +0.000 OA
ATOM     24  C   UNL     1     105.215 124.869 148.582  0.00  0.00    +0.000 C 
ENDBRANCH   6  23
BRANCH  12  25
ATOM     25  O   UNL     1     100.973 123.555 148.377  0.00  0.00    +0.000 OA
ATOM     26  C   UNL     1     100.850 122.746 148.483  0.00  0.00    +0.000 C 
ENDBRANCH  12  25
TORSDOF 4
ENDMDL
MODEL 6
REMARK VINA RESULT:      -7.6      1.901      4.586
REMARK  Name = 131836442
REMARK  4 active torsions:
REMARK  status: ('A' for Active; 'I' for Inactive)
REMARK    1  A    between atoms: O_2  and  C_10
REMARK    2  A    between atoms: O_5  and  C_19
REMARK    3  A    between atoms: O_7  and  C_23
REMARK    4  A    between atoms: C_9  and  C_12
REMARK                            x       y       z     vdW  Elec       q    Type
REMARK                         _______ _______ _______ _____ _____    ______ ____
ROOT
ATOM      1  O   UNL     1     103.949 125.165 146.697  0.00  0.00    +0.000 OA
ATOM      2  O   UNL     1     105.074 123.573 145.173  0.00  0.00    +0.000 OA
ATOM      3  O   UNL     1     106.096 124.543 144.867  0.00  0.00    +0.000 OA
ATOM      4  O   UNL     1     105.979 127.175 146.127  0.00  0.00    +0.000 OA
ATOM      5  C   UNL     1     103.636 124.410 146.586  0.00  0.00    +0.000 C 
ATOM      6  C   UNL     1     104.011 123.879 146.078  0.00  0.00    +0.000 C 
ATOM      7  C   UNL     1     104.699 124.104 145.681  0.00  0.00    +0.000 C 
ATOM      8  C   UNL     1     105.011 124.859 145.792  0.00  0.00    +0.000 A 
ATOM      9  C   UNL     1     104.636 125.390 146.300  0.00  0.00    +0.000 A 
ATOM     10  C   UNL     1     105.729 125.080 145.373  0.00  0.00    +0.000 A 
ATOM     11  C   UNL     1     104.953 126.179 146.425  0.00  0.00    +0.000 A 
ATOM     12  C   UNL     1     106.059 125.865 145.485  0.00  0.00    +0.000 A 
ATOM     13  C   UNL     1     105.668 126.419 146.014  0.00  0.00    +0.000 A 
ENDROOT
BRANCH   5  15
ATOM     14  O   UNL     1     100.787 124.198 146.674  0.00  0.00    +0.000 OA
ATOM     15  C   UNL     1     102.949 124.186 146.982  0.00  0.00    +0.000 A 
ATOM     16  C   UNL     1     102.212 124.304 146.630  0.00  0.00    +0.000 A 
ATOM     17  C   UNL     1     102.997 123.843 147.731  0.00  0.00    +0.000 A 
ATOM     18  C   UNL     1     101.524 124.080 147.027  0.00  0.00    +0.000 A 
ATOM     19  C   UNL     1     102.310 123.619 148.128  0.00  0.00    +0.000 A 
ATOM     20  C   UNL     1     101.573 123.737 147.775  0.00  0.00    +0.000 A 
BRANCH  20  21
ATOM     21  O   UNL     1     100.885 123.513 148.172  0.00  0.00    +0.000 OA
ATOM     22  C   UNL     1     100.911 123.342 148.979  0.00  0.00    +0.000 C 
ENDBRANCH  20  21
ENDBRANCH   5  15
BRANCH   6  23
ATOM     23  O   UNL     1     103.699 123.124 145.966  0.00  0.00    +0.000 OA
ATOM     24  C   UNL     1     103.789 122.743 145.240  0.00  0.00    +0.000 C 
ENDBRANCH   6  23
BRANCH  12  25
ATOM     25  O   UNL     1     106.747 126.087 145.087  0.00  0.00    +0.000 OA
ATOM     26  C   UNL     1     106.701 126.577 144.425  0.00  0.00    +0.000 C 
ENDBRANCH  12  25
TORSDOF 4
ENDMDL
MODEL 7
REMARK VINA RESULT:      -7.6      1.382      2.343
REMARK  Name = 131836442
REMARK  4 active torsions:
REMARK  status: ('A' for Active; 'I' for Inactive)
REMARK    1  A    between atoms: O_2  and  C_10
REMARK    2  A    between atoms: O_5  and  C_19
REMARK    3  A    between atoms: O_7  and  C_23
REMARK    4  A    between atoms: C_9  and  C_12
REMARK                            x       y       z     vdW  Elec       q    Type
REMARK                         _______ _______ _______ _____ _____    ______ ____
ROOT
ATOM      1  O   UNL     1     104.520 124.994 146.939  0.00  0.00    +0.000 OA
ATOM      2  O   UNL     1     104.486 123.485 144.978  0.00  0.00    +0.000 OA
ATOM      3  O   UNL     1     103.277 122.856 145.448  0.00  0.00    +0.000 OA
ATOM      4  O   UNL     1     102.078 123.770 147.949  0.00  0.00    +0.000 OA
ATOM      5  C   UNL     1     105.114 125.046 146.369  0.00  0.00    +0.000 C 
ATOM      6  C   UNL     1     105.103 124.543 145.715  0.00  0.00    +0.000 C 
ATOM      7  C   UNL     1     104.498 123.988 145.632  0.00  0.00    +0.000 C 
ATOM      8  C   UNL     1     103.904 123.937 146.203  0.00  0.00    +0.000 A 
ATOM      9  C   UNL     1     103.916 124.440 146.857  0.00  0.00    +0.000 A 
ATOM     10  C   UNL     1     103.279 123.354 146.104  0.00  0.00    +0.000 A 
ATOM     11  C   UNL     1     103.303 124.395 147.458  0.00  0.00    +0.000 A 
ATOM     12  C   UNL     1     102.659 123.295 146.695  0.00  0.00    +0.000 A 
ATOM     13  C   UNL     1     102.671 123.820 147.377  0.00  0.00    +0.000 A 
ENDROOT
BRANCH   5  15
ATOM     14  O   UNL     1     107.734 125.734 147.282  0.00  0.00    +0.000 OA
ATOM     15  C   UNL     1     105.719 125.601 146.452  0.00  0.00    +0.000 A 
ATOM     16  C   UNL     1     106.423 125.390 146.825  0.00  0.00    +0.000 A 
ATOM     17  C   UNL     1     105.620 126.367 146.162  0.00  0.00    +0.000 A 
ATOM     18  C   UNL     1     107.029 125.945 146.909  0.00  0.00    +0.000 A 
ATOM     19  C   UNL     1     106.224 126.921 146.245  0.00  0.00    +0.000 A 
ATOM     20  C   UNL     1     106.929 126.710 146.618  0.00  0.00    +0.000 A 
BRANCH  20  21
ATOM     21  O   UNL     1     107.534 127.265 146.701  0.00  0.00    +0.000 OA
ATOM     22  C   UNL     1     107.437 128.028 146.404  0.00  0.00    +0.000 C 
ENDBRANCH  20  21
ENDBRANCH   5  15
BRANCH   6  23
ATOM     23  O   UNL     1     105.696 124.595 145.144  0.00  0.00    +0.000 OA
ATOM     24  C   UNL     1     105.544 124.359 144.368  0.00  0.00    +0.000 C 
ENDBRANCH   6  23
BRANCH  12  25
ATOM     25  O   UNL     1     102.055 122.739 146.610  0.00  0.00    +0.000 OA
ATOM     26  C   UNL     1     101.305 122.980 146.363  0.00  0.00    +0.000 C 
ENDBRANCH  12  25
TORSDOF 4
ENDMDL
MODEL 8
REMARK VINA RESULT:      -7.6     12.593     14.625
REMARK  Name = 131836442
REMARK  4 active torsions:
REMARK  status: ('A' for Active; 'I' for Inactive)
REMARK    1  A    between atoms: O_2  and  C_10
REMARK    2  A    between atoms: O_5  and  C_19
REMARK    3  A    between atoms: O_7  and  C_23
REMARK    4  A    between atoms: C_9  and  C_12
REMARK                            x       y       z     vdW  Elec       q    Type
REMARK                         _______ _______ _______ _____ _____    ______ ____
ROOT
ATOM      1  O   UNL     1     113.817 127.379 136.063  0.00  0.00    +0.000 OA
ATOM      2  O   UNL     1     112.917 128.827 137.857  0.00  0.00    +0.000 OA
ATOM      3  O   UNL     1     113.367 130.010 137.167  0.00  0.00    +0.000 OA
ATOM      4  O   UNL     1     114.754 129.724 134.613  0.00  0.00    +0.000 OA
ATOM      5  C   UNL     1     113.438 127.041 136.714  0.00  0.00    +0.000 C 
ATOM      6  C   UNL     1     113.139 127.524 137.312  0.00  0.00    +0.000 C 
ATOM      7  C   UNL     1     113.217 128.344 137.259  0.00  0.00    +0.000 C 
ATOM      8  C   UNL     1     113.595 128.680 136.608  0.00  0.00    +0.000 A 
ATOM      9  C   UNL     1     113.895 128.198 136.010  0.00  0.00    +0.000 A 
ATOM     10  C   UNL     1     113.670 129.536 136.565  0.00  0.00    +0.000 A 
ATOM     11  C   UNL     1     114.291 128.537 135.326  0.00  0.00    +0.000 A 
ATOM     12  C   UNL     1     114.063 129.893 135.889  0.00  0.00    +0.000 A 
ATOM     13  C   UNL     1     114.376 129.389 135.266  0.00  0.00    +0.000 A 
ENDROOT
BRANCH   5  15
ATOM     14  O   UNL     1     114.525 124.491 137.411  0.00  0.00    +0.000 OA
ATOM     15  C   UNL     1     113.360 126.222 136.767  0.00  0.00    +0.000 A 
ATOM     16  C   UNL     1     113.982 125.767 137.063  0.00  0.00    +0.000 A 
ATOM     17  C   UNL     1     112.661 125.857 136.526  0.00  0.00    +0.000 A 
ATOM     18  C   UNL     1     113.903 124.947 137.116  0.00  0.00    +0.000 A 
ATOM     19  C   UNL     1     112.582 125.038 136.579  0.00  0.00    +0.000 A 
ATOM     20  C   UNL     1     113.204 124.583 136.874  0.00  0.00    +0.000 A 
BRANCH  20  21
ATOM     21  O   UNL     1     113.126 123.763 136.928  0.00  0.00    +0.000 OA
ATOM     22  C   UNL     1     112.378 123.416 136.881  0.00  0.00    +0.000 C 
ENDBRANCH  20  21
ENDBRANCH   5  15
BRANCH   6  23
ATOM     23  O   UNL     1     112.760 127.188 137.964  0.00  0.00    +0.000 OA
ATOM     24  C   UNL     1     112.720 127.601 138.676  0.00  0.00    +0.000 C 
ENDBRANCH   6  23
BRANCH  12  25
ATOM     25  O   UNL     1     114.140 130.712 135.838  0.00  0.00    +0.000 OA
ATOM     26  C   UNL     1     114.875 131.066 135.963  0.00  0.00    +0.000 C 
ENDBRANCH  12  25
TORSDOF 4
ENDMDL
MODEL 9
REMARK VINA RESULT:      -7.5      2.239      4.437
REMARK  Name = 131836442
REMARK  4 active torsions:
REMARK  status: ('A' for Active; 'I' for Inactive)
REMARK    1  A    between atoms: O_2  and  C_10
REMARK    2  A    between atoms: O_5  and  C_19
REMARK    3  A    between atoms: O_7  and  C_23
REMARK    4  A    between atoms: C_9  and  C_12
REMARK                            x       y       z     vdW  Elec       q    Type
REMARK                         _______ _______ _______ _____ _____    ______ ____
ROOT
ATOM      1  O   UNL     1     106.796 125.348 146.167  0.00  0.00    +0.000 OA
ATOM      2  O   UNL     1     104.775 124.773 147.474  0.00  0.00    +0.000 OA
ATOM      3  O   UNL     1     105.570 124.539 148.655  0.00  0.00    +0.000 OA
ATOM      4  O   UNL     1     108.465 124.894 148.510  0.00  0.00    +0.000 OA
ATOM      5  C   UNL     1     106.054 125.365 145.807  0.00  0.00    +0.000 C 
ATOM      6  C   UNL     1     105.380 125.173 146.243  0.00  0.00    +0.000 C 
ATOM      7  C   UNL     1     105.448 124.965 147.039  0.00  0.00    +0.000 C 
ATOM      8  C   UNL     1     106.191 124.948 147.398  0.00  0.00    +0.000 A 
ATOM      9  C   UNL     1     106.865 125.140 146.962  0.00  0.00    +0.000 A 
ATOM     10  C   UNL     1     106.249 124.729 148.227  0.00  0.00    +0.000 A 
ATOM     11  C   UNL     1     107.644 125.126 147.325  0.00  0.00    +0.000 A 
ATOM     12  C   UNL     1     107.019 124.710 148.607  0.00  0.00    +0.000 A 
ATOM     13  C   UNL     1     107.721 124.910 148.153  0.00  0.00    +0.000 A 
ENDROOT
BRANCH   5  15
ATOM     14  O   UNL     1     106.051 124.626 143.046  0.00  0.00    +0.000 OA
ATOM     15  C   UNL     1     105.985 125.573 145.012  0.00  0.00    +0.000 A 
ATOM     16  C   UNL     1     106.052 124.995 144.427  0.00  0.00    +0.000 A 
ATOM     17  C   UNL     1     105.849 126.359 144.801  0.00  0.00    +0.000 A 
ATOM     18  C   UNL     1     105.984 125.204 143.631  0.00  0.00    +0.000 A 
ATOM     19  C   UNL     1     105.780 126.568 144.007  0.00  0.00    +0.000 A 
ATOM     20  C   UNL     1     105.847 125.990 143.422  0.00  0.00    +0.000 A 
BRANCH  20  21
ATOM     21  O   UNL     1     105.779 126.198 142.626  0.00  0.00    +0.000 OA
ATOM     22  C   UNL     1     105.717 126.992 142.412  0.00  0.00    +0.000 C 
ENDBRANCH  20  21
ENDBRANCH   5  15
BRANCH   6  23
ATOM     23  O   UNL     1     104.637 125.190 145.884  0.00  0.00    +0.000 OA
ATOM     24  C   UNL     1     104.001 124.797 146.233  0.00  0.00    +0.000 C 
ENDBRANCH   6  23
BRANCH  12  25
ATOM     25  O   UNL     1     107.085 124.501 149.403  0.00  0.00    +0.000 OA
ATOM     26  C   UNL     1     107.396 123.766 149.612  0.00  0.00    +0.000 C 
ENDBRANCH  12  25
TORSDOF 4
ENDMDL
MODEL 10
REMARK VINA RESULT:      -7.4      2.674      3.523
REMARK  Name = 131836442
REMARK  4 active torsions:
REMARK  status: ('A' for Active; 'I' for Inactive)
REMARK    1  A    between atoms: O_2  and  C_10
REMARK    2  A    between atoms: O_5  and  C_19
REMARK    3  A    between atoms: O_7  and  C_23
REMARK    4  A    between atoms: C_9  and  C_12
REMARK                            x       y       z     vdW  Elec       q    Type
REMARK                         _______ _______ _______ _____ _____    ______ ____
ROOT
ATOM      1  O   UNL     1     106.194 124.928 145.742  0.00  0.00    +0.000 OA
ATOM      2  O   UNL     1     106.493 127.312 145.149  0.00  0.00    +0.000 OA
ATOM      3  O   UNL     1     106.085 127.054 143.789  0.00  0.00    +0.000 OA
ATOM      4  O   UNL     1     105.363 124.333 143.015  0.00  0.00    +0.000 OA
ATOM      5  C   UNL     1     106.447 125.466 146.314  0.00  0.00    +0.000 C 
ATOM      6  C   UNL     1     106.547 126.261 146.116  0.00  0.00    +0.000 C 
ATOM      7  C   UNL     1     106.393 126.517 145.346  0.00  0.00    +0.000 C 
ATOM      8  C   UNL     1     106.140 125.978 144.775  0.00  0.00    +0.000 A 
ATOM      9  C   UNL     1     106.040 125.183 144.973  0.00  0.00    +0.000 A 
ATOM     10  C   UNL     1     105.983 126.258 143.977  0.00  0.00    +0.000 A 
ATOM     11  C   UNL     1     105.777 124.613 144.387  0.00  0.00    +0.000 A 
ATOM     12  C   UNL     1     105.719 125.702 143.378  0.00  0.00    +0.000 A 
ATOM     13  C   UNL     1     105.616 124.873 143.584  0.00  0.00    +0.000 A 
ENDROOT
BRANCH   5  15
ATOM     14  O   UNL     1     105.504 124.659 148.888  0.00  0.00    +0.000 OA
ATOM     15  C   UNL     1     106.600 125.210 147.082  0.00  0.00    +0.000 A 
ATOM     16  C   UNL     1     105.976 125.063 147.600  0.00  0.00    +0.000 A 
ATOM     17  C   UNL     1     107.379 125.101 147.334  0.00  0.00    +0.000 A 
ATOM     18  C   UNL     1     106.129 124.806 148.370  0.00  0.00    +0.000 A 
ATOM     19  C   UNL     1     107.532 124.846 148.102  0.00  0.00    +0.000 A 
ATOM     20  C   UNL     1     106.907 124.698 148.620  0.00  0.00    +0.000 A 
BRANCH  20  21
ATOM     21  O   UNL     1     107.061 124.442 149.390  0.00  0.00    +0.000 OA
ATOM     22  C   UNL     1     107.830 124.242 149.612  0.00  0.00    +0.000 C 
ENDBRANCH  20  21
ENDBRANCH   5  15
BRANCH   6  23
ATOM     23  O   UNL     1     106.800 126.800 146.687  0.00  0.00    +0.000 OA
ATOM     24  C   UNL     1     106.684 127.608 146.571  0.00  0.00    +0.000 C 
ENDBRANCH   6  23
BRANCH  12  25
ATOM     25  O   UNL     1     105.567 125.961 142.610  0.00  0.00    +0.000 OA
ATOM     26  C   UNL     1     106.086 125.768 141.998  0.00  0.00    +0.000 C 
ENDBRANCH  12  25
TORSDOF 4
ENDMDL
