MODEL 1
REMARK VINA RESULT:     -11.3      0.000      0.000
REMARK  Name = 74978013
REMARK  8 active torsions:
REMARK  status: ('A' for Active; 'I' for Inactive)
REMARK    1  A    between atoms: O_1  and  C_20
REMARK    2  A    between atoms: O_1  and  C_25
REMARK    3  A    between atoms: O_3  and  C_22
REMARK    4  A    between atoms: O_3  and  C_33
REMARK    5  A    between atoms: O_13  and  C_35
REMARK    6  A    between atoms: O_13  and  C_38
REMARK    7  A    between atoms: C_27  and  C_33
REMARK    8  A    between atoms: C_39  and  C_42
REMARK                            x       y       z     vdW  Elec       q    Type
REMARK                         _______ _______ _______ _____ _____    ______ ____
ROOT
ATOM      1  O   UNL     1     112.484 127.238 138.455  0.00  0.00    +0.000 OA
ATOM      2  O   UNL     1     112.390 128.540 140.204  0.00  0.00    +0.000 OA
ATOM      3  O   UNL     1     111.883 127.110 140.852  0.00  0.00    +0.000 OA
ATOM      4  O   UNL     1     111.776 125.765 139.902  0.00  0.00    +0.000 OA
ATOM      5  C   UNL     1     112.537 127.910 138.930  0.00  0.00    +0.000 C 
ATOM      6  C   UNL     1     112.337 127.868 139.729  0.00  0.00    +0.000 C 
ATOM      7  C   UNL     1     112.083 127.152 140.053  0.00  0.00    +0.000 C 
ATOM      8  C   UNL     1     112.030 126.480 139.578  0.00  0.00    +0.000 C 
ATOM      9  C   UNL     1     112.230 126.523 138.778  0.00  0.00    +0.000 C 
ENDROOT
BRANCH   9  10
ATOM     10  O   UNL     1     112.177 125.851 138.303  0.00  0.00    +0.000 OA
BRANCH  10  15
ATOM     11  O   UNL     1     111.787 125.733 136.159  0.00  0.00    +0.000 OA
ATOM     12  O   UNL     1     110.591 126.304 138.249  0.00  0.00    +0.000 OA
ATOM     13  O   UNL     1     109.380 126.576 137.515  0.00  0.00    +0.000 OA
ATOM     14  O   UNL     1     109.377 126.265 134.612  0.00  0.00    +0.000 OA
ATOM     15  C   UNL     1     111.783 125.887 137.579  0.00  0.00    +0.000 A 
ATOM     16  C   UNL     1     112.182 125.697 136.882  0.00  0.00    +0.000 A 
ATOM     17  C   UNL     1     110.990 126.114 137.552  0.00  0.00    +0.000 A 
ATOM     18  C   UNL     1     110.596 126.150 136.829  0.00  0.00    +0.000 A 
ATOM     19  C   UNL     1     110.994 125.960 136.132  0.00  0.00    +0.000 A 
ATOM     20  C   UNL     1     109.770 126.388 136.813  0.00  0.00    +0.000 A 
ATOM     21  C   UNL     1     110.594 125.994 135.371  0.00  0.00    +0.000 A 
ATOM     22  C   UNL     1     109.354 126.428 136.063  0.00  0.00    +0.000 A 
ATOM     23  C   UNL     1     109.769 126.229 135.337  0.00  0.00    +0.000 A 
BRANCH  16  25
ATOM     24  O   UNL     1     115.353 124.791 136.991  0.00  0.00    +0.000 OA
ATOM     25  C   UNL     1     112.974 125.470 136.910  0.00  0.00    +0.000 A 
ATOM     26  C   UNL     1     113.181 124.728 137.203  0.00  0.00    +0.000 A 
ATOM     27  C   UNL     1     113.560 125.986 136.643  0.00  0.00    +0.000 A 
ATOM     28  C   UNL     1     113.974 124.501 137.230  0.00  0.00    +0.000 A 
ATOM     29  C   UNL     1     114.353 125.760 136.670  0.00  0.00    +0.000 A 
ATOM     30  C   UNL     1     114.559 125.017 136.964  0.00  0.00    +0.000 A 
ENDBRANCH  16  25
ENDBRANCH  10  15
ENDBRANCH   9  10
BRANCH   5  31
ATOM     31  C   UNL     1     112.791 128.626 138.606  0.00  0.00    +0.000 C 
BRANCH  31  32
ATOM     32  O   UNL     1     112.339 128.999 138.026  0.00  0.00    +0.000 OA
BRANCH  32  38
ATOM     33  O   UNL     1     113.405 129.679 137.360  0.00  0.00    +0.000 OA
ATOM     34  O   UNL     1     111.956 131.664 137.065  0.00  0.00    +0.000 OA
ATOM     35  O   UNL     1     113.506 131.681 136.498  0.00  0.00    +0.000 OA
ATOM     36  C   UNL     1     112.147 130.331 137.545  0.00  0.00    +0.000 C 
ATOM     37  C   UNL     1     112.439 131.002 137.163  0.00  0.00    +0.000 C 
ATOM     38  C   UNL     1     112.630 129.669 137.644  0.00  0.00    +0.000 C 
ATOM     39  C   UNL     1     113.214 131.010 136.880  0.00  0.00    +0.000 C 
ATOM     40  C   UNL     1     113.697 130.349 136.978  0.00  0.00    +0.000 C 
ATOM     41  C   UNL     1     114.472 130.358 136.694  0.00  0.00    +0.000 C 
BRANCH  36  42
ATOM     42  O   UNL     1     111.373 130.323 137.829  0.00  0.00    +0.000 OA
BRANCH  42  47
ATOM     43  O   UNL     1     110.894 130.033 136.515  0.00  0.00    +0.000 OA
ATOM     44  O   UNL     1     109.822 130.338 138.391  0.00  0.00    +0.000 OA
ATOM     45  O   UNL     1     108.567 130.057 137.357  0.00  0.00    +0.000 OA
ATOM     46  O   UNL     1     108.863 129.759 135.761  0.00  0.00    +0.000 OA
ATOM     47  C   UNL     1     110.745 130.182 137.312  0.00  0.00    +0.000 C 
ATOM     48  C   UNL     1     109.970 130.190 137.594  0.00  0.00    +0.000 C 
ATOM     49  C   UNL     1     109.342 130.049 137.077  0.00  0.00    +0.000 C 
ATOM     50  C   UNL     1     109.491 129.900 136.278  0.00  0.00    +0.000 C 
ATOM     51  C   UNL     1     110.266 129.892 135.998  0.00  0.00    +0.000 C 
ATOM     52  C   UNL     1     110.414 129.743 135.199  0.00  0.00    +0.000 C 
ENDBRANCH  42  47
ENDBRANCH  36  42
ENDBRANCH  32  38
ENDBRANCH  31  32
ENDBRANCH   5  31
TORSDOF 8
ENDMDL
MODEL 2
REMARK VINA RESULT:     -11.3      1.098      2.843
REMARK  Name = 74978013
REMARK  8 active torsions:
REMARK  status: ('A' for Active; 'I' for Inactive)
REMARK    1  A    between atoms: O_1  and  C_20
REMARK    2  A    between atoms: O_1  and  C_25
REMARK    3  A    between atoms: O_3  and  C_22
REMARK    4  A    between atoms: O_3  and  C_33
REMARK    5  A    between atoms: O_13  and  C_35
REMARK    6  A    between atoms: O_13  and  C_38
REMARK    7  A    between atoms: C_27  and  C_33
REMARK    8  A    between atoms: C_39  and  C_42
REMARK                            x       y       z     vdW  Elec       q    Type
REMARK                         _______ _______ _______ _____ _____    ______ ____
ROOT
ATOM      1  O   UNL     1     111.874 126.593 136.328  0.00  0.00    +0.000 OA
ATOM      2  O   UNL     1     110.406 127.124 134.802  0.00  0.00    +0.000 OA
ATOM      3  O   UNL     1     110.109 125.510 134.972  0.00  0.00    +0.000 OA
ATOM      4  O   UNL     1     110.988 124.618 136.047  0.00  0.00    +0.000 OA
ATOM      5  C   UNL     1     111.434 127.039 135.791  0.00  0.00    +0.000 C 
ATOM      6  C   UNL     1     110.846 126.678 135.339  0.00  0.00    +0.000 C 
ATOM      7  C   UNL     1     110.697 125.871 135.424  0.00  0.00    +0.000 C 
ATOM      8  C   UNL     1     111.137 125.425 135.962  0.00  0.00    +0.000 C 
ATOM      9  C   UNL     1     111.725 125.786 136.413  0.00  0.00    +0.000 C 
ENDROOT
BRANCH   9  10
ATOM     10  O   UNL     1     112.165 125.340 136.950  0.00  0.00    +0.000 OA
BRANCH  10  15
ATOM     11  O   UNL     1     113.364 126.085 138.615  0.00  0.00    +0.000 OA
ATOM     12  O   UNL     1     110.983 125.767 138.020  0.00  0.00    +0.000 OA
ATOM     13  O   UNL     1     110.564 126.301 139.293  0.00  0.00    +0.000 OA
ATOM     14  O   UNL     1     112.593 127.173 141.204  0.00  0.00    +0.000 OA
ATOM     15  C   UNL     1     112.368 125.660 137.683  0.00  0.00    +0.000 A 
ATOM     16  C   UNL     1     113.162 125.766 137.882  0.00  0.00    +0.000 A 
ATOM     17  C   UNL     1     111.777 125.873 138.218  0.00  0.00    +0.000 A 
ATOM     18  C   UNL     1     111.980 126.192 138.951  0.00  0.00    +0.000 A 
ATOM     19  C   UNL     1     112.774 126.298 139.150  0.00  0.00    +0.000 A 
ATOM     20  C   UNL     1     111.355 126.411 139.500  0.00  0.00    +0.000 A 
ATOM     21  C   UNL     1     112.998 126.630 139.910  0.00  0.00    +0.000 A 
ATOM     22  C   UNL     1     111.560 126.744 140.265  0.00  0.00    +0.000 A 
ATOM     23  C   UNL     1     112.387 126.854 140.471  0.00  0.00    +0.000 A 
BRANCH  16  25
ATOM     24  O   UNL     1     115.525 124.911 135.742  0.00  0.00    +0.000 OA
ATOM     25  C   UNL     1     113.752 125.552 137.347  0.00  0.00    +0.000 A 
ATOM     26  C   UNL     1     114.156 126.134 136.924  0.00  0.00    +0.000 A 
ATOM     27  C   UNL     1     113.939 124.757 137.235  0.00  0.00    +0.000 A 
ATOM     28  C   UNL     1     114.747 125.921 136.390  0.00  0.00    +0.000 A 
ATOM     29  C   UNL     1     114.530 124.543 136.700  0.00  0.00    +0.000 A 
ATOM     30  C   UNL     1     114.934 125.125 136.277  0.00  0.00    +0.000 A 
ENDBRANCH  16  25
ENDBRANCH  10  15
ENDBRANCH   9  10
BRANCH   5  31
ATOM     31  C   UNL     1     111.583 127.846 135.706  0.00  0.00    +0.000 C 
BRANCH  31  32
ATOM     32  O   UNL     1     111.441 128.361 136.335  0.00  0.00    +0.000 OA
BRANCH  32  38
ATOM     33  O   UNL     1     112.538 129.175 135.917  0.00  0.00    +0.000 OA
ATOM     34  O   UNL     1     112.077 130.749 137.770  0.00  0.00    +0.000 OA
ATOM     35  O   UNL     1     113.328 131.039 136.734  0.00  0.00    +0.000 OA
ATOM     36  C   UNL     1     111.759 129.554 137.052  0.00  0.00    +0.000 C 
ATOM     37  C   UNL     1     112.231 130.224 137.152  0.00  0.00    +0.000 C 
ATOM     38  C   UNL     1     111.912 129.030 136.434  0.00  0.00    +0.000 C 
ATOM     39  C   UNL     1     112.856 130.369 136.634  0.00  0.00    +0.000 C 
ATOM     40  C   UNL     1     113.010 129.844 136.016  0.00  0.00    +0.000 C 
ATOM     41  C   UNL     1     113.636 129.989 135.499  0.00  0.00    +0.000 C 
BRANCH  36  42
ATOM     42  O   UNL     1     111.133 129.410 137.571  0.00  0.00    +0.000 OA
BRANCH  42  47
ATOM     43  O   UNL     1     110.237 130.149 136.740  0.00  0.00    +0.000 OA
ATOM     44  O   UNL     1     110.037 129.465 138.802  0.00  0.00    +0.000 OA
ATOM     45  O   UNL     1     108.592 130.231 138.587  0.00  0.00    +0.000 OA
ATOM     46  O   UNL     1     108.243 130.944 137.140  0.00  0.00    +0.000 OA
ATOM     47  C   UNL     1     110.411 129.793 137.463  0.00  0.00    +0.000 C 
ATOM     48  C   UNL     1     109.863 129.820 138.079  0.00  0.00    +0.000 C 
ATOM     49  C   UNL     1     109.140 130.204 137.972  0.00  0.00    +0.000 C 
ATOM     50  C   UNL     1     108.966 130.560 137.248  0.00  0.00    +0.000 C 
ATOM     51  C   UNL     1     109.514 130.533 136.632  0.00  0.00    +0.000 C 
ATOM     52  C   UNL     1     109.340 130.889 135.908  0.00  0.00    +0.000 C 
ENDBRANCH  42  47
ENDBRANCH  36  42
ENDBRANCH  32  38
ENDBRANCH  31  32
ENDBRANCH   5  31
TORSDOF 8
ENDMDL
MODEL 3
REMARK VINA RESULT:     -11.3      1.554      3.204
REMARK  Name = 74978013
REMARK  8 active torsions:
REMARK  status: ('A' for Active; 'I' for Inactive)
REMARK    1  A    between atoms: O_1  and  C_20
REMARK    2  A    between atoms: O_1  and  C_25
REMARK    3  A    between atoms: O_3  and  C_22
REMARK    4  A    between atoms: O_3  and  C_33
REMARK    5  A    between atoms: O_13  and  C_35
REMARK    6  A    between atoms: O_13  and  C_38
REMARK    7  A    between atoms: C_27  and  C_33
REMARK    8  A    between atoms: C_39  and  C_42
REMARK                            x       y       z     vdW  Elec       q    Type
REMARK                         _______ _______ _______ _____ _____    ______ ____
ROOT
ATOM      1  O   UNL     1     111.045 126.708 138.415  0.00  0.00    +0.000 OA
ATOM      2  O   UNL     1     108.865 126.755 138.307  0.00  0.00    +0.000 OA
ATOM      3  O   UNL     1     109.090 125.855 139.672  0.00  0.00    +0.000 OA
ATOM      4  O   UNL     1     110.619 125.524 140.199  0.00  0.00    +0.000 OA
ATOM      5  C   UNL     1     110.280 126.873 138.152  0.00  0.00    +0.000 C 
ATOM      6  C   UNL     1     109.629 126.589 138.570  0.00  0.00    +0.000 C 
ATOM      7  C   UNL     1     109.742 126.139 139.254  0.00  0.00    +0.000 C 
ATOM      8  C   UNL     1     110.506 125.974 139.517  0.00  0.00    +0.000 C 
ATOM      9  C   UNL     1     111.157 126.258 139.097  0.00  0.00    +0.000 C 
ENDROOT
BRANCH   9  10
ATOM     10  O   UNL     1     111.921 126.093 139.360  0.00  0.00    +0.000 OA
BRANCH  10  15
ATOM     11  O   UNL     1     113.819 126.358 138.314  0.00  0.00    +0.000 OA
ATOM     12  O   UNL     1     111.792 124.942 138.184  0.00  0.00    +0.000 OA
ATOM     13  O   UNL     1     112.321 124.242 137.040  0.00  0.00    +0.000 OA
ATOM     14  O   UNL     1     114.949 124.986 136.007  0.00  0.00    +0.000 OA
ATOM     15  C   UNL     1     112.532 125.990 138.816  0.00  0.00    +0.000 A 
ATOM     16  C   UNL     1     113.208 126.462 138.859  0.00  0.00    +0.000 A 
ATOM     17  C   UNL     1     112.468 125.414 138.228  0.00  0.00    +0.000 A 
ATOM     18  C   UNL     1     113.079 125.311 137.683  0.00  0.00    +0.000 A 
ATOM     19  C   UNL     1     113.754 125.783 137.727  0.00  0.00    +0.000 A 
ATOM     20  C   UNL     1     113.000 124.709 137.075  0.00  0.00    +0.000 A 
ATOM     21  C   UNL     1     114.398 125.685 137.165  0.00  0.00    +0.000 A 
ATOM     22  C   UNL     1     113.633 124.597 136.505  0.00  0.00    +0.000 A 
ATOM     23  C   UNL     1     114.336 125.088 136.551  0.00  0.00    +0.000 A 
BRANCH  16  25
ATOM     24  O   UNL     1     113.465 128.762 141.212  0.00  0.00    +0.000 OA
ATOM     25  C   UNL     1     113.272 127.036 139.447  0.00  0.00    +0.000 A 
ATOM     26  C   UNL     1     113.180 127.834 139.257  0.00  0.00    +0.000 A 
ATOM     27  C   UNL     1     113.429 126.814 140.226  0.00  0.00    +0.000 A 
ATOM     28  C   UNL     1     113.244 128.409 139.845  0.00  0.00    +0.000 A 
ATOM     29  C   UNL     1     113.494 127.389 140.815  0.00  0.00    +0.000 A 
ATOM     30  C   UNL     1     113.401 128.186 140.623  0.00  0.00    +0.000 A 
ENDBRANCH  16  25
ENDBRANCH  10  15
ENDBRANCH   9  10
BRANCH   5  31
ATOM     31  C   UNL     1     110.167 127.323 137.469  0.00  0.00    +0.000 C 
BRANCH  31  32
ATOM     32  O   UNL     1     110.357 128.126 137.468  0.00  0.00    +0.000 OA
BRANCH  32  38
ATOM     33  O   UNL     1     111.153 128.149 136.281  0.00  0.00    +0.000 OA
ATOM     34  O   UNL     1     110.115 130.298 135.626  0.00  0.00    +0.000 OA
ATOM     35  O   UNL     1     111.257 129.604 134.658  0.00  0.00    +0.000 OA
ATOM     36  C   UNL     1     110.236 129.212 136.547  0.00  0.00    +0.000 C 
ATOM     37  C   UNL     1     110.461 129.582 135.844  0.00  0.00    +0.000 C 
ATOM     38  C   UNL     1     110.582 128.495 136.766  0.00  0.00    +0.000 C 
ATOM     39  C   UNL     1     111.032 129.234 135.361  0.00  0.00    +0.000 C 
ATOM     40  C   UNL     1     111.378 128.518 135.579  0.00  0.00    +0.000 C 
ATOM     41  C   UNL     1     111.949 128.172 135.094  0.00  0.00    +0.000 C 
BRANCH  36  42
ATOM     42  O   UNL     1     109.665 129.559 137.031  0.00  0.00    +0.000 OA
BRANCH  42  47
ATOM     43  O   UNL     1     110.677 130.330 137.680  0.00  0.00    +0.000 OA
ATOM     44  O   UNL     1     108.505 130.358 137.890  0.00  0.00    +0.000 OA
ATOM     45  O   UNL     1     108.938 131.529 138.970  0.00  0.00    +0.000 OA
ATOM     46  O   UNL     1     110.530 131.900 139.190  0.00  0.00    +0.000 OA
ATOM     47  C   UNL     1     109.881 130.144 137.571  0.00  0.00    +0.000 C 
ATOM     48  C   UNL     1     109.301 130.544 138.000  0.00  0.00    +0.000 C 
ATOM     49  C   UNL     1     109.517 131.129 138.540  0.00  0.00    +0.000 C 
ATOM     50  C   UNL     1     110.314 131.315 138.650  0.00  0.00    +0.000 C 
ATOM     51  C   UNL     1     110.893 130.915 138.220  0.00  0.00    +0.000 C 
ATOM     52  C   UNL     1     111.690 131.101 138.330  0.00  0.00    +0.000 C 
ENDBRANCH  42  47
ENDBRANCH  36  42
ENDBRANCH  32  38
ENDBRANCH  31  32
ENDBRANCH   5  31
TORSDOF 8
ENDMDL
MODEL 4
REMARK VINA RESULT:     -11.3      1.285      4.710
REMARK  Name = 74978013
REMARK  8 active torsions:
REMARK  status: ('A' for Active; 'I' for Inactive)
REMARK    1  A    between atoms: O_1  and  C_20
REMARK    2  A    between atoms: O_1  and  C_25
REMARK    3  A    between atoms: O_3  and  C_22
REMARK    4  A    between atoms: O_3  and  C_33
REMARK    5  A    between atoms: O_13  and  C_35
REMARK    6  A    between atoms: O_13  and  C_38
REMARK    7  A    between atoms: C_27  and  C_33
REMARK    8  A    between atoms: C_39  and  C_42
REMARK                            x       y       z     vdW  Elec       q    Type
REMARK                         _______ _______ _______ _____ _____    ______ ____
ROOT
ATOM      1  O   UNL     1     113.300 128.941 136.973  0.00  0.00    +0.000 OA
ATOM      2  O   UNL     1     114.314 128.706 135.054  0.00  0.00    +0.000 OA
ATOM      3  O   UNL     1     114.788 130.230 135.474  0.00  0.00    +0.000 OA
ATOM      4  O   UNL     1     114.270 130.894 136.893  0.00  0.00    +0.000 OA
ATOM      5  C   UNL     1     113.559 128.609 136.263  0.00  0.00    +0.000 C 
ATOM      6  C   UNL     1     114.055 129.038 135.763  0.00  0.00    +0.000 C 
ATOM      7  C   UNL     1     114.292 129.801 135.974  0.00  0.00    +0.000 C 
ATOM      8  C   UNL     1     114.033 130.133 136.683  0.00  0.00    +0.000 C 
ATOM      9  C   UNL     1     113.537 129.702 137.182  0.00  0.00    +0.000 C 
ENDROOT
BRANCH   9  10
ATOM     10  O   UNL     1     113.277 130.034 137.892  0.00  0.00    +0.000 OA
BRANCH  10  15
ATOM     11  O   UNL     1     111.491 129.601 139.068  0.00  0.00    +0.000 OA
ATOM     12  O   UNL     1     112.093 130.527 136.854  0.00  0.00    +0.000 OA
ATOM     13  O   UNL     1     110.703 130.724 136.526  0.00  0.00    +0.000 OA
ATOM     14  O   UNL     1     108.664 129.970 138.476  0.00  0.00    +0.000 OA
ATOM     15  C   UNL     1     112.485 129.972 138.112  0.00  0.00    +0.000 A 
ATOM     16  C   UNL     1     112.284 129.663 138.850  0.00  0.00    +0.000 A 
ATOM     17  C   UNL     1     111.893 130.219 137.592  0.00  0.00    +0.000 A 
ATOM     18  C   UNL     1     111.100 130.156 137.812  0.00  0.00    +0.000 A 
ATOM     19  C   UNL     1     110.899 129.848 138.550  0.00  0.00    +0.000 A 
ATOM     20  C   UNL     1     110.492 130.417 137.263  0.00  0.00    +0.000 A 
ATOM     21  C   UNL     1     110.076 129.778 138.790  0.00  0.00    +0.000 A 
ATOM     22  C   UNL     1     109.665 130.355 137.485  0.00  0.00    +0.000 A 
ATOM     23  C   UNL     1     109.456 130.033 138.254  0.00  0.00    +0.000 A 
BRANCH  16  25
ATOM     24  O   UNL     1     114.652 128.676 140.925  0.00  0.00    +0.000 OA
ATOM     25  C   UNL     1     112.875 129.416 139.368  0.00  0.00    +0.000 A 
ATOM     26  C   UNL     1     113.004 128.611 139.495  0.00  0.00    +0.000 A 
ATOM     27  C   UNL     1     113.339 129.975 139.760  0.00  0.00    +0.000 A 
ATOM     28  C   UNL     1     113.596 128.364 140.014  0.00  0.00    +0.000 A 
ATOM     29  C   UNL     1     113.932 129.728 140.280  0.00  0.00    +0.000 A 
ATOM     30  C   UNL     1     114.060 128.923 140.406  0.00  0.00    +0.000 A 
ENDBRANCH  16  25
ENDBRANCH  10  15
ENDBRANCH   9  10
BRANCH   5  31
ATOM     31  C   UNL     1     113.322 127.846 136.053  0.00  0.00    +0.000 C 
BRANCH  31  32
ATOM     32  O   UNL     1     112.891 127.387 136.586  0.00  0.00    +0.000 OA
BRANCH  32  38
ATOM     33  O   UNL     1     113.654 126.185 136.709  0.00  0.00    +0.000 OA
ATOM     34  O   UNL     1     111.648 124.852 136.140  0.00  0.00    +0.000 OA
ATOM     35  O   UNL     1     113.080 124.095 136.454  0.00  0.00    +0.000 OA
ATOM     36  C   UNL     1     112.270 126.120 136.363  0.00  0.00    +0.000 C 
ATOM     37  C   UNL     1     112.317 125.296 136.330  0.00  0.00    +0.000 C 
ATOM     38  C   UNL     1     112.938 126.564 136.553  0.00  0.00    +0.000 C 
ATOM     39  C   UNL     1     113.033 124.918 136.487  0.00  0.00    +0.000 C 
ATOM     40  C   UNL     1     113.702 125.363 136.676  0.00  0.00    +0.000 C 
ATOM     41  C   UNL     1     114.418 124.983 136.833  0.00  0.00    +0.000 C 
BRANCH  36  42
ATOM     42  O   UNL     1     111.553 126.498 136.206  0.00  0.00    +0.000 OA
BRANCH  42  47
ATOM     43  O   UNL     1     111.118 126.298 137.552  0.00  0.00    +0.000 OA
ATOM     44  O   UNL     1     110.005 126.847 135.757  0.00  0.00    +0.000 OA
ATOM     45  O   UNL     1     108.794 126.821 136.878  0.00  0.00    +0.000 OA
ATOM     46  O   UNL     1     109.133 126.447 138.449  0.00  0.00    +0.000 OA
ATOM     47  C   UNL     1     110.948 126.485 136.767  0.00  0.00    +0.000 C 
ATOM     48  C   UNL     1     110.174 126.660 136.542  0.00  0.00    +0.000 C 
ATOM     49  C   UNL     1     109.569 126.647 137.102  0.00  0.00    +0.000 C 
ATOM     50  C   UNL     1     109.738 126.459 137.888  0.00  0.00    +0.000 C 
ATOM     51  C   UNL     1     110.513 126.285 138.113  0.00  0.00    +0.000 C 
ATOM     52  C   UNL     1     110.682 126.098 138.899  0.00  0.00    +0.000 C 
ENDBRANCH  42  47
ENDBRANCH  36  42
ENDBRANCH  32  38
ENDBRANCH  31  32
ENDBRANCH   5  31
TORSDOF 8
ENDMDL
MODEL 5
REMARK VINA RESULT:     -11.2      1.465      3.163
REMARK  Name = 74978013
REMARK  8 active torsions:
REMARK  status: ('A' for Active; 'I' for Inactive)
REMARK    1  A    between atoms: O_1  and  C_20
REMARK    2  A    between atoms: O_1  and  C_25
REMARK    3  A    between atoms: O_3  and  C_22
REMARK    4  A    between atoms: O_3  and  C_33
REMARK    5  A    between atoms: O_13  and  C_35
REMARK    6  A    between atoms: O_13  and  C_38
REMARK    7  A    between atoms: C_27  and  C_33
REMARK    8  A    between atoms: C_39  and  C_42
REMARK                            x       y       z     vdW  Elec       q    Type
REMARK                         _______ _______ _______ _____ _____    ______ ____
ROOT
ATOM      1  O   UNL     1     111.014 127.051 138.072  0.00  0.00    +0.000 OA
ATOM      2  O   UNL     1     109.362 127.271 139.482  0.00  0.00    +0.000 OA
ATOM      3  O   UNL     1     110.466 126.476 140.416  0.00  0.00    +0.000 OA
ATOM      4  O   UNL     1     111.935 126.065 139.787  0.00  0.00    +0.000 OA
ATOM      5  C   UNL     1     110.279 127.257 138.386  0.00  0.00    +0.000 C 
ATOM      6  C   UNL     1     110.096 127.065 139.168  0.00  0.00    +0.000 C 
ATOM      7  C   UNL     1     110.649 126.668 139.635  0.00  0.00    +0.000 C 
ATOM      8  C   UNL     1     111.383 126.462 139.321  0.00  0.00    +0.000 C 
ATOM      9  C   UNL     1     111.565 126.654 138.539  0.00  0.00    +0.000 C 
ENDROOT
BRANCH   9  10
ATOM     10  O   UNL     1     112.300 126.448 138.225  0.00  0.00    +0.000 OA
BRANCH  10  15
ATOM     11  O   UNL     1     113.110 127.041 136.286  0.00  0.00    +0.000 OA
ATOM     12  O   UNL     1     112.702 128.021 138.522  0.00  0.00    +0.000 OA
ATOM     13  O   UNL     1     113.241 129.289 138.096  0.00  0.00    +0.000 OA
ATOM     14  O   UNL     1     114.210 129.572 135.356  0.00  0.00    +0.000 OA
ATOM     15  C   UNL     1     112.637 126.907 137.628  0.00  0.00    +0.000 A 
ATOM     16  C   UNL     1     112.773 126.581 136.882  0.00  0.00    +0.000 A 
ATOM     17  C   UNL     1     112.838 127.694 137.777  0.00  0.00    +0.000 A 
ATOM     18  C   UNL     1     113.175 128.153 137.180  0.00  0.00    +0.000 A 
ATOM     19  C   UNL     1     113.311 127.827 136.435  0.00  0.00    +0.000 A 
ATOM     20  C   UNL     1     113.381 128.971 137.348  0.00  0.00    +0.000 A 
ATOM     21  C   UNL     1     113.662 128.295 135.805  0.00  0.00    +0.000 A 
ATOM     22  C   UNL     1     113.732 129.454 136.730  0.00  0.00    +0.000 A 
ATOM     23  C   UNL     1     113.873 129.114 135.954  0.00  0.00    +0.000 A 
BRANCH  16  25
ATOM     24  O   UNL     1     111.967 123.437 136.287  0.00  0.00    +0.000 OA
ATOM     25  C   UNL     1     112.571 125.795 136.734  0.00  0.00    +0.000 A 
ATOM     26  C   UNL     1     113.033 125.185 137.042  0.00  0.00    +0.000 A 
ATOM     27  C   UNL     1     111.908 125.619 136.276  0.00  0.00    +0.000 A 
ATOM     28  C   UNL     1     112.832 124.399 136.894  0.00  0.00    +0.000 A 
ATOM     29  C   UNL     1     111.706 124.832 136.127  0.00  0.00    +0.000 A 
ATOM     30  C   UNL     1     112.169 124.223 136.436  0.00  0.00    +0.000 A 
ENDBRANCH  16  25
ENDBRANCH  10  15
ENDBRANCH   9  10
BRANCH   5  31
ATOM     31  C   UNL     1     109.727 127.655 137.919  0.00  0.00    +0.000 C 
BRANCH  31  32
ATOM     32  O   UNL     1     109.782 128.472 137.820  0.00  0.00    +0.000 OA
BRANCH  32  38
ATOM     33  O   UNL     1     109.751 128.500 136.392  0.00  0.00    +0.000 OA
ATOM     34  O   UNL     1     108.304 130.507 136.464  0.00  0.00    +0.000 OA
ATOM     35  O   UNL     1     108.755 129.867 135.011  0.00  0.00    +0.000 OA
ATOM     36  C   UNL     1     109.043 129.489 137.142  0.00  0.00    +0.000 C 
ATOM     37  C   UNL     1     108.786 129.838 136.440  0.00  0.00    +0.000 C 
ATOM     38  C   UNL     1     109.526 128.820 137.118  0.00  0.00    +0.000 C 
ATOM     39  C   UNL     1     109.012 129.517 135.714  0.00  0.00    +0.000 C 
ATOM     40  C   UNL     1     109.494 128.849 135.690  0.00  0.00    +0.000 C 
ATOM     41  C   UNL     1     109.720 128.529 134.963  0.00  0.00    +0.000 C 
BRANCH  36  42
ATOM     42  O   UNL     1     108.817 129.809 137.868  0.00  0.00    +0.000 OA
BRANCH  42  47
ATOM     43  O   UNL     1     109.899 130.740 137.796  0.00  0.00    +0.000 OA
ATOM     44  O   UNL     1     108.409 130.399 139.354  0.00  0.00    +0.000 OA
ATOM     45  O   UNL     1     109.286 131.625 140.025  0.00  0.00    +0.000 OA
ATOM     46  O   UNL     1     110.572 132.261 139.210  0.00  0.00    +0.000 OA
ATOM     47  C   UNL     1     109.256 130.422 138.203  0.00  0.00    +0.000 C 
ATOM     48  C   UNL     1     109.051 130.717 138.947  0.00  0.00    +0.000 C 
ATOM     49  C   UNL     1     109.490 131.330 139.282  0.00  0.00    +0.000 C 
ATOM     50  C   UNL     1     110.134 131.648 138.874  0.00  0.00    +0.000 C 
ATOM     51  C   UNL     1     110.337 131.353 138.131  0.00  0.00    +0.000 C 
ATOM     52  C   UNL     1     110.981 131.671 137.724  0.00  0.00    +0.000 C 
ENDBRANCH  42  47
ENDBRANCH  36  42
ENDBRANCH  32  38
ENDBRANCH  31  32
ENDBRANCH   5  31
TORSDOF 8
ENDMDL
MODEL 6
REMARK VINA RESULT:     -11.1      1.450      4.144
REMARK  Name = 74978013
REMARK  8 active torsions:
REMARK  status: ('A' for Active; 'I' for Inactive)
REMARK    1  A    between atoms: O_1  and  C_20
REMARK    2  A    between atoms: O_1  and  C_25
REMARK    3  A    between atoms: O_3  and  C_22
REMARK    4  A    between atoms: O_3  and  C_33
REMARK    5  A    between atoms: O_13  and  C_35
REMARK    6  A    between atoms: O_13  and  C_38
REMARK    7  A    between atoms: C_27  and  C_33
REMARK    8  A    between atoms: C_39  and  C_42
REMARK                            x       y       z     vdW  Elec       q    Type
REMARK                         _______ _______ _______ _____ _____    ______ ____
ROOT
ATOM      1  O   UNL     1     111.806 129.459 137.534  0.00  0.00    +0.000 OA
ATOM      2  O   UNL     1     111.434 130.668 139.313  0.00  0.00    +0.000 OA
ATOM      3  O   UNL     1     111.214 131.789 138.122  0.00  0.00    +0.000 OA
ATOM      4  O   UNL     1     111.389 131.356 136.539  0.00  0.00    +0.000 OA
ATOM      5  C   UNL     1     111.719 129.675 138.325  0.00  0.00    +0.000 C 
ATOM      6  C   UNL     1     111.521 130.452 138.522  0.00  0.00    +0.000 C 
ATOM      7  C   UNL     1     111.411 131.012 137.926  0.00  0.00    +0.000 C 
ATOM      8  C   UNL     1     111.499 130.796 137.134  0.00  0.00    +0.000 C 
ATOM      9  C   UNL     1     111.696 130.019 136.939  0.00  0.00    +0.000 C 
ENDROOT
BRANCH   9  10
ATOM     10  O   UNL     1     111.783 129.802 136.148  0.00  0.00    +0.000 OA
BRANCH  10  15
ATOM     11  O   UNL     1     111.730 127.822 135.231  0.00  0.00    +0.000 OA
ATOM     12  O   UNL     1     110.211 129.377 136.414  0.00  0.00    +0.000 OA
ATOM     13  O   UNL     1     109.119 128.443 136.298  0.00  0.00    +0.000 OA
ATOM     14  O   UNL     1     109.571 125.887 134.960  0.00  0.00    +0.000 OA
ATOM     15  C   UNL     1     111.504 129.072 135.886  0.00  0.00    +0.000 A 
ATOM     16  C   UNL     1     112.011 128.553 135.492  0.00  0.00    +0.000 A 
ATOM     17  C   UNL     1     110.718 128.859 136.020  0.00  0.00    +0.000 A 
ATOM     18  C   UNL     1     110.439 128.128 135.758  0.00  0.00    +0.000 A 
ATOM     19  C   UNL     1     110.945 127.610 135.364  0.00  0.00    +0.000 A 
ATOM     20  C   UNL     1     109.618 127.918 135.903  0.00  0.00    +0.000 A 
ATOM     21  C   UNL     1     110.665 126.846 135.086  0.00  0.00    +0.000 A 
ATOM     22  C   UNL     1     109.321 127.158 135.633  0.00  0.00    +0.000 A 
ATOM     23  C   UNL     1     109.848 126.619 135.222  0.00  0.00    +0.000 A 
BRANCH  16  25
ATOM     24  O   UNL     1     115.155 129.404 134.960  0.00  0.00    +0.000 OA
ATOM     25  C   UNL     1     112.796 128.766 135.359  0.00  0.00    +0.000 A 
ATOM     26  C   UNL     1     112.985 129.292 134.752  0.00  0.00    +0.000 A 
ATOM     27  C   UNL     1     113.394 128.452 135.833  0.00  0.00    +0.000 A 
ATOM     28  C   UNL     1     113.770 129.505 134.619  0.00  0.00    +0.000 A 
ATOM     29  C   UNL     1     114.181 128.665 135.700  0.00  0.00    +0.000 A 
ATOM     30  C   UNL     1     114.368 129.191 135.093  0.00  0.00    +0.000 A 
ENDBRANCH  16  25
ENDBRANCH  10  15
ENDBRANCH   9  10
BRANCH   5  31
ATOM     31  C   UNL     1     111.829 129.114 138.921  0.00  0.00    +0.000 C 
BRANCH  31  32
ATOM     32  O   UNL     1     112.276 128.437 138.773  0.00  0.00    +0.000 OA
BRANCH  32  38
ATOM     33  O   UNL     1     113.279 128.437 139.792  0.00  0.00    +0.000 OA
ATOM     34  O   UNL     1     112.602 126.151 140.457  0.00  0.00    +0.000 OA
ATOM     35  O   UNL     1     113.830 126.913 141.253  0.00  0.00    +0.000 OA
ATOM     36  C   UNL     1     112.439 127.295 139.615  0.00  0.00    +0.000 C 
ATOM     37  C   UNL     1     112.828 126.913 140.235  0.00  0.00    +0.000 C 
ATOM     38  C   UNL     1     112.665 128.057 139.393  0.00  0.00    +0.000 C 
ATOM     39  C   UNL     1     113.442 127.295 140.633  0.00  0.00    +0.000 C 
ATOM     40  C   UNL     1     113.667 128.056 140.411  0.00  0.00    +0.000 C 
ATOM     41  C   UNL     1     114.281 128.437 140.810  0.00  0.00    +0.000 C 
BRANCH  36  42
ATOM     42  O   UNL     1     111.825 126.913 139.217  0.00  0.00    +0.000 OA
BRANCH  42  47
ATOM     43  O   UNL     1     112.740 126.248 138.344  0.00  0.00    +0.000 OA
ATOM     44  O   UNL     1     110.664 125.802 138.847  0.00  0.00    +0.000 OA
ATOM     45  O   UNL     1     110.998 124.580 137.789  0.00  0.00    +0.000 OA
ATOM     46  O   UNL     1     112.493 124.471 137.101  0.00  0.00    +0.000 OA
ATOM     47  C   UNL     1     111.992 126.303 138.688  0.00  0.00    +0.000 C 
ATOM     48  C   UNL     1     111.411 125.747 138.503  0.00  0.00    +0.000 C 
ATOM     49  C   UNL     1     111.578 125.136 137.975  0.00  0.00    +0.000 C 
ATOM     50  C   UNL     1     112.326 125.081 137.630  0.00  0.00    +0.000 C 
ATOM     51  C   UNL     1     112.907 125.637 137.816  0.00  0.00    +0.000 C 
ATOM     52  C   UNL     1     113.655 125.582 137.471  0.00  0.00    +0.000 C 
ENDBRANCH  42  47
ENDBRANCH  36  42
ENDBRANCH  32  38
ENDBRANCH  31  32
ENDBRANCH   5  31
TORSDOF 8
ENDMDL
MODEL 7
REMARK VINA RESULT:     -11.1      1.112      4.173
REMARK  Name = 74978013
REMARK  8 active torsions:
REMARK  status: ('A' for Active; 'I' for Inactive)
REMARK    1  A    between atoms: O_1  and  C_20
REMARK    2  A    between atoms: O_1  and  C_25
REMARK    3  A    between atoms: O_3  and  C_22
REMARK    4  A    between atoms: O_3  and  C_33
REMARK    5  A    between atoms: O_13  and  C_35
REMARK    6  A    between atoms: O_13  and  C_38
REMARK    7  A    between atoms: C_27  and  C_33
REMARK    8  A    between atoms: C_39  and  C_42
REMARK                            x       y       z     vdW  Elec       q    Type
REMARK                         _______ _______ _______ _____ _____    ______ ____
ROOT
ATOM      1  O   UNL     1     113.023 128.380 138.387  0.00  0.00    +0.000 OA
ATOM      2  O   UNL     1     113.537 127.442 140.290  0.00  0.00    +0.000 OA
ATOM      3  O   UNL     1     113.934 129.013 140.600  0.00  0.00    +0.000 OA
ATOM      4  O   UNL     1     113.724 130.162 139.434  0.00  0.00    +0.000 OA
ATOM      5  C   UNL     1     113.128 127.806 138.970  0.00  0.00    +0.000 C 
ATOM      6  C   UNL     1     113.432 128.016 139.708  0.00  0.00    +0.000 C 
ATOM      7  C   UNL     1     113.631 128.802 139.862  0.00  0.00    +0.000 C 
ATOM      8  C   UNL     1     113.526 129.377 139.280  0.00  0.00    +0.000 C 
ATOM      9  C   UNL     1     113.222 129.165 138.542  0.00  0.00    +0.000 C 
ENDROOT
BRANCH   9  10
ATOM     10  O   UNL     1     113.117 129.740 137.960  0.00  0.00    +0.000 OA
BRANCH  10  15
ATOM     11  O   UNL     1     111.651 129.854 136.347  0.00  0.00    +0.000 OA
ATOM     12  O   UNL     1     111.716 129.876 138.821  0.00  0.00    +0.000 OA
ATOM     13  O   UNL     1     110.281 130.007 138.886  0.00  0.00    +0.000 OA
ATOM     14  O   UNL     1     108.751 130.118 136.401  0.00  0.00    +0.000 OA
ATOM     15  C   UNL     1     112.395 129.801 137.565  0.00  0.00    +0.000 A 
ATOM     16  C   UNL     1     112.373 129.793 136.740  0.00  0.00    +0.000 A 
ATOM     17  C   UNL     1     111.694 129.869 137.996  0.00  0.00    +0.000 A 
ATOM     18  C   UNL     1     110.973 129.930 137.601  0.00  0.00    +0.000 A 
ATOM     19  C   UNL     1     110.951 129.923 136.777  0.00  0.00    +0.000 A 
ATOM     20  C   UNL     1     110.250 130.001 138.061  0.00  0.00    +0.000 A 
ATOM     21  C   UNL     1     110.204 129.986 136.355  0.00  0.00    +0.000 A 
ATOM     22  C   UNL     1     109.495 130.065 137.656  0.00  0.00    +0.000 A 
ATOM     23  C   UNL     1     109.472 130.057 136.798  0.00  0.00    +0.000 A 
BRANCH  16  25
ATOM     24  O   UNL     1     115.176 129.521 135.019  0.00  0.00    +0.000 OA
ATOM     25  C   UNL     1     113.073 129.725 136.310  0.00  0.00    +0.000 A 
ATOM     26  C   UNL     1     113.255 129.018 135.926  0.00  0.00    +0.000 A 
ATOM     27  C   UNL     1     113.593 130.364 136.263  0.00  0.00    +0.000 A 
ATOM     28  C   UNL     1     113.955 128.949 135.496  0.00  0.00    +0.000 A 
ATOM     29  C   UNL     1     114.294 130.296 135.833  0.00  0.00    +0.000 A 
ATOM     30  C   UNL     1     114.474 129.589 135.449  0.00  0.00    +0.000 A 
ENDBRANCH  16  25
ENDBRANCH  10  15
ENDBRANCH   9  10
BRANCH   5  31
ATOM     31  C   UNL     1     112.930 127.019 138.815  0.00  0.00    +0.000 C 
BRANCH  31  32
ATOM     32  O   UNL     1     112.589 126.814 138.092  0.00  0.00    +0.000 OA
BRANCH  32  38
ATOM     33  O   UNL     1     113.414 125.747 137.620  0.00  0.00    +0.000 OA
ATOM     34  O   UNL     1     111.405 124.336 137.303  0.00  0.00    +0.000 OA
ATOM     35  O   UNL     1     112.899 123.739 136.937  0.00  0.00    +0.000 OA
ATOM     36  C   UNL     1     111.997 125.576 137.698  0.00  0.00    +0.000 C 
ATOM     37  C   UNL     1     112.075 124.806 137.409  0.00  0.00    +0.000 C 
ATOM     38  C   UNL     1     112.667 126.046 137.804  0.00  0.00    +0.000 C 
ATOM     39  C   UNL     1     112.822 124.508 137.226  0.00  0.00    +0.000 C 
ATOM     40  C   UNL     1     113.491 124.979 137.332  0.00  0.00    +0.000 C 
ATOM     41  C   UNL     1     114.238 124.679 137.148  0.00  0.00    +0.000 C 
BRANCH  36  42
ATOM     42  O   UNL     1     111.250 125.874 137.881  0.00  0.00    +0.000 OA
BRANCH  42  47
ATOM     43  O   UNL     1     111.027 126.200 136.508  0.00  0.00    +0.000 OA
ATOM     44  O   UNL     1     109.662 126.174 138.211  0.00  0.00    +0.000 OA
ATOM     45  O   UNL     1     108.644 126.650 137.003  0.00  0.00    +0.000 OA
ATOM     46  O   UNL     1     109.214 126.825 135.464  0.00  0.00    +0.000 OA
ATOM     47  C   UNL     1     110.741 126.112 137.277  0.00  0.00    +0.000 C 
ATOM     48  C   UNL     1     109.947 126.262 137.442  0.00  0.00    +0.000 C 
ATOM     49  C   UNL     1     109.438 126.499 136.838  0.00  0.00    +0.000 C 
ATOM     50  C   UNL     1     109.723 126.588 136.068  0.00  0.00    +0.000 C 
ATOM     51  C   UNL     1     110.518 126.438 135.904  0.00  0.00    +0.000 C 
ATOM     52  C   UNL     1     110.803 126.526 135.134  0.00  0.00    +0.000 C 
ENDBRANCH  42  47
ENDBRANCH  36  42
ENDBRANCH  32  38
ENDBRANCH  31  32
ENDBRANCH   5  31
TORSDOF 8
ENDMDL
MODEL 8
REMARK VINA RESULT:     -11.0      1.514      3.398
REMARK  Name = 74978013
REMARK  8 active torsions:
REMARK  status: ('A' for Active; 'I' for Inactive)
REMARK    1  A    between atoms: O_1  and  C_20
REMARK    2  A    between atoms: O_1  and  C_25
REMARK    3  A    between atoms: O_3  and  C_22
REMARK    4  A    between atoms: O_3  and  C_33
REMARK    5  A    between atoms: O_13  and  C_35
REMARK    6  A    between atoms: O_13  and  C_38
REMARK    7  A    between atoms: C_27  and  C_33
REMARK    8  A    between atoms: C_39  and  C_42
REMARK                            x       y       z     vdW  Elec       q    Type
REMARK                         _______ _______ _______ _____ _____    ______ ____
ROOT
ATOM      1  O   UNL     1     110.244 127.713 136.960  0.00  0.00    +0.000 OA
ATOM      2  O   UNL     1     109.594 129.264 135.568  0.00  0.00    +0.000 OA
ATOM      3  O   UNL     1     108.229 128.343 135.668  0.00  0.00    +0.000 OA
ATOM      4  O   UNL     1     108.208 127.002 136.630  0.00  0.00    +0.000 OA
ATOM      5  C   UNL     1     110.255 128.384 136.480  0.00  0.00    +0.000 C 
ATOM      6  C   UNL     1     109.584 128.594 136.049  0.00  0.00    +0.000 C 
ATOM      7  C   UNL     1     108.901 128.133 136.099  0.00  0.00    +0.000 C 
ATOM      8  C   UNL     1     108.890 127.462 136.580  0.00  0.00    +0.000 C 
ATOM      9  C   UNL     1     109.562 127.253 137.010  0.00  0.00    +0.000 C 
ENDROOT
BRANCH   9  10
ATOM     10  O   UNL     1     109.551 126.583 137.491  0.00  0.00    +0.000 OA
BRANCH  10  15
ATOM     11  O   UNL     1     111.235 125.421 138.253  0.00  0.00    +0.000 OA
ATOM     12  O   UNL     1     110.106 125.890 136.100  0.00  0.00    +0.000 OA
ATOM     13  O   UNL     1     111.034 125.038 135.396  0.00  0.00    +0.000 OA
ATOM     14  O   UNL     1     113.142 123.687 136.898  0.00  0.00    +0.000 OA
ATOM     15  C   UNL     1     110.205 126.080 137.514  0.00  0.00    +0.000 A 
ATOM     16  C   UNL     1     110.581 125.924 138.231  0.00  0.00    +0.000 A 
ATOM     17  C   UNL     1     110.483 125.734 136.818  0.00  0.00    +0.000 A 
ATOM     18  C   UNL     1     111.136 125.231 136.840  0.00  0.00    +0.000 A 
ATOM     19  C   UNL     1     111.512 125.075 137.558  0.00  0.00    +0.000 A 
ATOM     20  C   UNL     1     111.416 124.876 136.109  0.00  0.00    +0.000 A 
ATOM     21  C   UNL     1     112.194 124.553 137.594  0.00  0.00    +0.000 A 
ATOM     22  C   UNL     1     112.096 124.352 136.126  0.00  0.00    +0.000 A 
ATOM     23  C   UNL     1     112.488 124.189 136.873  0.00  0.00    +0.000 A 
BRANCH  16  25
ATOM     24  O   UNL     1     109.471 127.310 141.012  0.00  0.00    +0.000 OA
ATOM     25  C   UNL     1     110.303 126.270 138.926  0.00  0.00    +0.000 A 
ATOM     26  C   UNL     1     109.592 126.017 139.258  0.00  0.00    +0.000 A 
ATOM     27  C   UNL     1     110.738 126.870 139.290  0.00  0.00    +0.000 A 
ATOM     28  C   UNL     1     109.314 126.363 139.953  0.00  0.00    +0.000 A 
ATOM     29  C   UNL     1     110.460 127.217 139.985  0.00  0.00    +0.000 A 
ATOM     30  C   UNL     1     109.748 126.963 140.317  0.00  0.00    +0.000 A 
ENDBRANCH  16  25
ENDBRANCH  10  15
ENDBRANCH   9  10
BRANCH   5  31
ATOM     31  C   UNL     1     110.938 128.845 136.429  0.00  0.00    +0.000 C 
BRANCH  31  32
ATOM     32  O   UNL     1     111.158 129.327 137.062  0.00  0.00    +0.000 OA
BRANCH  32  38
ATOM     33  O   UNL     1     112.435 129.538 136.457  0.00  0.00    +0.000 OA
ATOM     34  O   UNL     1     113.110 130.948 138.376  0.00  0.00    +0.000 OA
ATOM     35  O   UNL     1     114.163 130.688 137.133  0.00  0.00    +0.000 OA
ATOM     36  C   UNL     1     112.133 130.137 137.719  0.00  0.00    +0.000 C 
ATOM     37  C   UNL     1     112.885 130.478 137.737  0.00  0.00    +0.000 C 
ATOM     38  C   UNL     1     111.908 129.667 137.079  0.00  0.00    +0.000 C 
ATOM     39  C   UNL     1     113.411 130.348 137.115  0.00  0.00    +0.000 C 
ATOM     40  C   UNL     1     113.186 129.878 136.475  0.00  0.00    +0.000 C 
ATOM     41  C   UNL     1     113.713 129.748 135.853  0.00  0.00    +0.000 C 
BRANCH  36  42
ATOM     42  O   UNL     1     111.608 130.267 138.341  0.00  0.00    +0.000 OA
BRANCH  42  47
ATOM     43  O   UNL     1     111.165 131.473 137.716  0.00  0.00    +0.000 OA
ATOM     44  O   UNL     1     110.541 130.515 139.575  0.00  0.00    +0.000 OA
ATOM     45  O   UNL     1     109.565 131.846 139.567  0.00  0.00    +0.000 OA
ATOM     46  O   UNL     1     109.656 132.928 138.325  0.00  0.00    +0.000 OA
ATOM     47  C   UNL     1     111.120 130.933 138.337  0.00  0.00    +0.000 C 
ATOM     48  C   UNL     1     110.586 131.056 138.954  0.00  0.00    +0.000 C 
ATOM     49  C   UNL     1     110.098 131.721 138.950  0.00  0.00    +0.000 C 
ATOM     50  C   UNL     1     110.144 132.263 138.329  0.00  0.00    +0.000 C 
ATOM     51  C   UNL     1     110.677 132.138 137.712  0.00  0.00    +0.000 C 
ATOM     52  C   UNL     1     110.722 132.680 137.091  0.00  0.00    +0.000 C 
ENDBRANCH  42  47
ENDBRANCH  36  42
ENDBRANCH  32  38
ENDBRANCH  31  32
ENDBRANCH   5  31
TORSDOF 8
ENDMDL
MODEL 9
REMARK VINA RESULT:     -11.0      1.057      2.931
REMARK  Name = 74978013
REMARK  8 active torsions:
REMARK  status: ('A' for Active; 'I' for Inactive)
REMARK    1  A    between atoms: O_1  and  C_20
REMARK    2  A    between atoms: O_1  and  C_25
REMARK    3  A    between atoms: O_3  and  C_22
REMARK    4  A    between atoms: O_3  and  C_33
REMARK    5  A    between atoms: O_13  and  C_35
REMARK    6  A    between atoms: O_13  and  C_38
REMARK    7  A    between atoms: C_27  and  C_33
REMARK    8  A    between atoms: C_39  and  C_42
REMARK                            x       y       z     vdW  Elec       q    Type
REMARK                         _______ _______ _______ _____ _____    ______ ____
ROOT
ATOM      1  O   UNL     1     111.649 126.837 136.192  0.00  0.00    +0.000 OA
ATOM      2  O   UNL     1     110.378 127.646 134.612  0.00  0.00    +0.000 OA
ATOM      3  O   UNL     1     109.900 126.067 134.619  0.00  0.00    +0.000 OA
ATOM      4  O   UNL     1     110.588 125.002 135.674  0.00  0.00    +0.000 OA
ATOM      5  C   UNL     1     111.305 127.370 135.664  0.00  0.00    +0.000 C 
ATOM      6  C   UNL     1     110.722 127.114 135.140  0.00  0.00    +0.000 C 
ATOM      7  C   UNL     1     110.483 126.323 135.143  0.00  0.00    +0.000 C 
ATOM      8  C   UNL     1     110.827 125.791 135.671  0.00  0.00    +0.000 C 
ATOM      9  C   UNL     1     111.410 126.048 136.196  0.00  0.00    +0.000 C 
ENDROOT
BRANCH   9  10
ATOM     10  O   UNL     1     111.754 125.515 136.723  0.00  0.00    +0.000 OA
BRANCH  10  15
ATOM     11  O   UNL     1     112.675 125.935 138.657  0.00  0.00    +0.000 OA
ATOM     12  O   UNL     1     110.426 125.898 137.625  0.00  0.00    +0.000 OA
ATOM     13  O   UNL     1     109.817 126.296 138.870  0.00  0.00    +0.000 OA
ATOM     14  O   UNL     1     111.515 126.740 141.204  0.00  0.00    +0.000 OA
ATOM     15  C   UNL     1     111.840 125.719 137.518  0.00  0.00    +0.000 A 
ATOM     16  C   UNL     1     112.590 125.731 137.862  0.00  0.00    +0.000 A 
ATOM     17  C   UNL     1     111.175 125.910 137.969  0.00  0.00    +0.000 A 
ATOM     18  C   UNL     1     111.262 126.114 138.764  0.00  0.00    +0.000 A 
ATOM     19  C   UNL     1     112.011 126.126 139.108  0.00  0.00    +0.000 A 
ATOM     20  C   UNL     1     110.562 126.311 139.223  0.00  0.00    +0.000 A 
ATOM     21  C   UNL     1     112.114 126.337 139.935  0.00  0.00    +0.000 A 
ATOM     22  C   UNL     1     110.645 126.524 140.051  0.00  0.00    +0.000 A 
ATOM     23  C   UNL     1     111.426 126.537 140.409  0.00  0.00    +0.000 A 
BRANCH  16  25
ATOM     24  O   UNL     1     115.245 124.966 136.058  0.00  0.00    +0.000 OA
ATOM     25  C   UNL     1     113.253 125.541 137.411  0.00  0.00    +0.000 A 
ATOM     26  C   UNL     1     113.782 126.132 137.183  0.00  0.00    +0.000 A 
ATOM     27  C   UNL     1     113.389 124.758 137.189  0.00  0.00    +0.000 A 
ATOM     28  C   UNL     1     114.445 125.941 136.732  0.00  0.00    +0.000 A 
ATOM     29  C   UNL     1     114.053 124.566 136.737  0.00  0.00    +0.000 A 
ATOM     30  C   UNL     1     114.581 125.158 136.509  0.00  0.00    +0.000 A 
ENDBRANCH  16  25
ENDBRANCH  10  15
ENDBRANCH   9  10
BRANCH   5  31
ATOM     31  C   UNL     1     111.544 128.160 135.661  0.00  0.00    +0.000 C 
BRANCH  31  32
ATOM     32  O   UNL     1     111.518 128.602 136.357  0.00  0.00    +0.000 OA
BRANCH  32  38
ATOM     33  O   UNL     1     112.770 129.283 136.249  0.00  0.00    +0.000 OA
ATOM     34  O   UNL     1     111.687 131.388 136.972  0.00  0.00    +0.000 OA
ATOM     35  O   UNL     1     113.300 131.367 136.623  0.00  0.00    +0.000 OA
ATOM     36  C   UNL     1     111.602 129.995 136.664  0.00  0.00    +0.000 C 
ATOM     37  C   UNL     1     112.048 130.686 136.731  0.00  0.00    +0.000 C 
ATOM     38  C   UNL     1     111.963 129.293 136.423  0.00  0.00    +0.000 C 
ATOM     39  C   UNL     1     112.854 130.675 136.556  0.00  0.00    +0.000 C 
ATOM     40  C   UNL     1     113.215 129.973 136.315  0.00  0.00    +0.000 C 
ATOM     41  C   UNL     1     114.022 129.964 136.141  0.00  0.00    +0.000 C 
BRANCH  36  42
ATOM     42  O   UNL     1     110.796 130.006 136.839  0.00  0.00    +0.000 OA
BRANCH  42  47
ATOM     43  O   UNL     1     111.096 129.962 138.235  0.00  0.00    +0.000 OA
ATOM     44  O   UNL     1     109.183 129.951 137.183  0.00  0.00    +0.000 OA
ATOM     45  O   UNL     1     108.677 129.880 138.752  0.00  0.00    +0.000 OA
ATOM     46  O   UNL     1     109.783 129.864 139.976  0.00  0.00    +0.000 OA
ATOM     47  C   UNL     1     110.543 129.970 137.623  0.00  0.00    +0.000 C 
ATOM     48  C   UNL     1     109.736 129.943 137.795  0.00  0.00    +0.000 C 
ATOM     49  C   UNL     1     109.483 129.907 138.579  0.00  0.00    +0.000 C 
ATOM     50  C   UNL     1     110.036 129.899 139.192  0.00  0.00    +0.000 C 
ATOM     51  C   UNL     1     110.842 129.927 139.019  0.00  0.00    +0.000 C 
ATOM     52  C   UNL     1     111.396 129.919 139.632  0.00  0.00    +0.000 C 
ENDBRANCH  42  47
ENDBRANCH  36  42
ENDBRANCH  32  38
ENDBRANCH  31  32
ENDBRANCH   5  31
TORSDOF 8
ENDMDL
MODEL 10
REMARK VINA RESULT:     -11.0      1.637      3.210
REMARK  Name = 74978013
REMARK  8 active torsions:
REMARK  status: ('A' for Active; 'I' for Inactive)
REMARK    1  A    between atoms: O_1  and  C_20
REMARK    2  A    between atoms: O_1  and  C_25
REMARK    3  A    between atoms: O_3  and  C_22
REMARK    4  A    between atoms: O_3  and  C_33
REMARK    5  A    between atoms: O_13  and  C_35
REMARK    6  A    between atoms: O_13  and  C_38
REMARK    7  A    between atoms: C_27  and  C_33
REMARK    8  A    between atoms: C_39  and  C_42
REMARK                            x       y       z     vdW  Elec       q    Type
REMARK                         _______ _______ _______ _____ _____    ______ ____
ROOT
ATOM      1  O   UNL     1     113.008 127.920 137.498  0.00  0.00    +0.000 OA
ATOM      2  O   UNL     1     113.234 126.408 139.056  0.00  0.00    +0.000 OA
ATOM      3  O   UNL     1     113.858 125.610 137.753  0.00  0.00    +0.000 OA
ATOM      4  O   UNL     1     113.916 126.353 136.281  0.00  0.00    +0.000 OA
ATOM      5  C   UNL     1     112.979 127.549 138.234  0.00  0.00    +0.000 C 
ATOM      6  C   UNL     1     113.262 126.779 138.320  0.00  0.00    +0.000 C 
ATOM      7  C   UNL     1     113.575 126.380 137.668  0.00  0.00    +0.000 C 
ATOM      8  C   UNL     1     113.604 126.751 136.931  0.00  0.00    +0.000 C 
ATOM      9  C   UNL     1     113.320 127.522 136.847  0.00  0.00    +0.000 C 
ENDROOT
BRANCH   9  10
ATOM     10  O   UNL     1     113.348 127.893 136.111  0.00  0.00    +0.000 OA
BRANCH  10  15
ATOM     11  O   UNL     1     112.084 129.466 135.280  0.00  0.00    +0.000 OA
ATOM     12  O   UNL     1     111.893 127.118 136.039  0.00  0.00    +0.000 OA
ATOM     13  O   UNL     1     110.487 127.099 135.720  0.00  0.00    +0.000 OA
ATOM     14  O   UNL     1     109.249 129.501 134.612  0.00  0.00    +0.000 OA
ATOM     15  C   UNL     1     112.685 128.289 135.822  0.00  0.00    +0.000 A 
ATOM     16  C   UNL     1     112.748 129.071 135.569  0.00  0.00    +0.000 A 
ATOM     17  C   UNL     1     111.957 127.901 135.786  0.00  0.00    +0.000 A 
ATOM     18  C   UNL     1     111.293 128.297 135.497  0.00  0.00    +0.000 A 
ATOM     19  C   UNL     1     111.357 129.079 135.244  0.00  0.00    +0.000 A 
ATOM     20  C   UNL     1     110.540 127.882 135.464  0.00  0.00    +0.000 A 
ATOM     21  C   UNL     1     110.672 129.502 134.941  0.00  0.00    +0.000 A 
ATOM     22  C   UNL     1     109.846 128.289 135.165  0.00  0.00    +0.000 A 
ATOM     23  C   UNL     1     109.912 129.104 134.901  0.00  0.00    +0.000 A 
BRANCH  16  25
ATOM     24  O   UNL     1     115.659 130.620 135.713  0.00  0.00    +0.000 OA
ATOM     25  C   UNL     1     113.475 129.458 135.605  0.00  0.00    +0.000 A 
ATOM     26  C   UNL     1     113.612 130.027 136.188  0.00  0.00    +0.000 A 
ATOM     27  C   UNL     1     114.066 129.277 135.059  0.00  0.00    +0.000 A 
ATOM     28  C   UNL     1     114.339 130.413 136.224  0.00  0.00    +0.000 A 
ATOM     29  C   UNL     1     114.794 129.665 135.095  0.00  0.00    +0.000 A 
ATOM     30  C   UNL     1     114.930 130.233 135.677  0.00  0.00    +0.000 A 
ENDBRANCH  16  25
ENDBRANCH  10  15
ENDBRANCH   9  10
BRANCH   5  31
ATOM     31  C   UNL     1     112.666 127.948 138.886  0.00  0.00    +0.000 C 
BRANCH  31  32
ATOM     32  O   UNL     1     112.388 128.720 138.802  0.00  0.00    +0.000 OA
BRANCH  32  38
ATOM     33  O   UNL     1     113.101 129.437 139.812  0.00  0.00    +0.000 OA
ATOM     34  O   UNL     1     110.968 130.353 140.669  0.00  0.00    +0.000 OA
ATOM     35  O   UNL     1     112.392 130.765 141.393  0.00  0.00    +0.000 OA
ATOM     36  C   UNL     1     111.678 129.536 139.735  0.00  0.00    +0.000 C 
ATOM     37  C   UNL     1     111.679 130.048 140.383  0.00  0.00    +0.000 C 
ATOM     38  C   UNL     1     112.389 129.231 139.449  0.00  0.00    +0.000 C 
ATOM     39  C   UNL     1     112.391 130.253 140.745  0.00  0.00    +0.000 C 
ATOM     40  C   UNL     1     113.102 129.947 140.459  0.00  0.00    +0.000 C 
ATOM     41  C   UNL     1     113.815 130.153 140.822  0.00  0.00    +0.000 C 
BRANCH  36  42
ATOM     42  O   UNL     1     110.965 129.331 139.374  0.00  0.00    +0.000 OA
BRANCH  42  47
ATOM     43  O   UNL     1     110.981 130.526 138.592  0.00  0.00    +0.000 OA
ATOM     44  O   UNL     1     109.368 129.119 139.018  0.00  0.00    +0.000 OA
ATOM     45  O   UNL     1     108.585 130.209 138.058  0.00  0.00    +0.000 OA
ATOM     46  O   UNL     1     109.399 131.511 137.454  0.00  0.00    +0.000 OA
ATOM     47  C   UNL     1     110.574 129.876 138.894  0.00  0.00    +0.000 C 
ATOM     48  C   UNL     1     109.775 129.769 138.716  0.00  0.00    +0.000 C 
ATOM     49  C   UNL     1     109.383 130.314 138.236  0.00  0.00    +0.000 C 
ATOM     50  C   UNL     1     109.791 130.966 137.934  0.00  0.00    +0.000 C 
ATOM     51  C   UNL     1     110.589 131.071 138.112  0.00  0.00    +0.000 C 
ATOM     52  C   UNL     1     110.996 131.723 137.810  0.00  0.00    +0.000 C 
ENDBRANCH  42  47
ENDBRANCH  36  42
ENDBRANCH  32  38
ENDBRANCH  31  32
ENDBRANCH   5  31
TORSDOF 8
ENDMDL
