MODEL 1
REMARK VINA RESULT:      -9.5      0.000      0.000
REMARK  Name = 44259187
REMARK  6 active torsions:
REMARK  status: ('A' for Active; 'I' for Inactive)
REMARK    1  A    between atoms: O_2  and  C_18
REMARK    2  A    between atoms: O_2  and  C_20
REMARK    3  A    between atoms: O_6  and  C_19
REMARK    4  A    between atoms: O_6  and  C_25
REMARK    5  A    between atoms: C_16  and  C_19
REMARK    6  A    between atoms: C_21  and  C_26
REMARK                            x       y       z     vdW  Elec       q    Type
REMARK                         _______ _______ _______ _____ _____    ______ ____
ROOT
ATOM      1  O   UNL     1     105.609 124.428 147.713  0.00  0.00    +0.000 OA
ATOM      2  O   UNL     1     107.032 125.605 146.064  0.00  0.00    +0.000 OA
ATOM      3  O   UNL     1     108.147 125.598 146.978  0.00  0.00    +0.000 OA
ATOM      4  O   UNL     1     107.817 124.377 149.611  0.00  0.00    +0.000 OA
ATOM      5  C   UNL     1     105.776 125.027 146.425  0.00  0.00    +0.000 A 
ATOM      6  C   UNL     1     105.302 124.634 146.975  0.00  0.00    +0.000 A 
ATOM      7  C   UNL     1     106.557 125.212 146.614  0.00  0.00    +0.000 A 
ATOM      8  C   UNL     1     106.865 125.006 147.351  0.00  0.00    +0.000 A 
ATOM      9  C   UNL     1     106.391 124.614 147.900  0.00  0.00    +0.000 A 
ATOM     10  C   UNL     1     107.680 125.205 147.534  0.00  0.00    +0.000 A 
ATOM     11  C   UNL     1     106.699 124.394 148.671  0.00  0.00    +0.000 A 
ATOM     12  C   UNL     1     108.007 124.994 148.300  0.00  0.00    +0.000 A 
ATOM     13  C   UNL     1     107.512 124.585 148.873  0.00  0.00    +0.000 A 
ENDROOT
BRANCH   6  16
ATOM     14  O   UNL     1     102.500 125.060 147.343  0.00  0.00    +0.000 OA
ATOM     15  O   UNL     1     102.175 123.893 146.223  0.00  0.00    +0.000 OA
ATOM     16  C   UNL     1     104.520 124.448 146.787  0.00  0.00    +0.000 A 
ATOM     17  C   UNL     1     103.901 124.847 147.159  0.00  0.00    +0.000 A 
ATOM     18  C   UNL     1     104.358 123.864 146.227  0.00  0.00    +0.000 A 
ATOM     19  C   UNL     1     103.120 124.661 146.971  0.00  0.00    +0.000 A 
ATOM     20  C   UNL     1     103.576 123.679 146.040  0.00  0.00    +0.000 A 
ATOM     21  C   UNL     1     102.957 124.078 146.411  0.00  0.00    +0.000 A 
ENDBRANCH   6  16
BRANCH   5  22
ATOM     22  O   UNL     1     105.469 125.233 145.688  0.00  0.00    +0.000 OA
BRANCH  22  31
ATOM     23  O   UNL     1     105.332 126.622 145.996  0.00  0.00    +0.000 OA
ATOM     24  O   UNL     1     105.475 128.388 144.722  0.00  0.00    +0.000 OA
ATOM     25  O   UNL     1     105.752 127.189 143.623  0.00  0.00    +0.000 OA
ATOM     26  O   UNL     1     105.748 125.611 144.106  0.00  0.00    +0.000 OA
ATOM     27  C   UNL     1     105.474 127.599 144.964  0.00  0.00    +0.000 C 
ATOM     28  C   UNL     1     105.612 127.000 144.414  0.00  0.00    +0.000 C 
ATOM     29  C   UNL     1     105.334 127.410 145.755  0.00  0.00    +0.000 C 
ATOM     30  C   UNL     1     105.610 126.210 144.656  0.00  0.00    +0.000 C 
ATOM     31  C   UNL     1     105.470 126.021 145.447  0.00  0.00    +0.000 C 
BRANCH  29  32
ATOM     32  C   UNL     1     105.196 128.010 146.303  0.00  0.00    +0.000 C 
BRANCH  32  33
ATOM     33  O   UNL     1     104.674 127.885 146.930  0.00  0.00    +0.000 OA
BRANCH  33  35
ATOM     34  O   UNL     1     103.957 128.964 147.533  0.00  0.00    +0.000 OA
ATOM     35  C   UNL     1     104.603 128.450 147.527  0.00  0.00    +0.000 C 
ATOM     36  C   UNL     1     105.176 128.502 148.117  0.00  0.00    +0.000 C 
ENDBRANCH  33  35
ENDBRANCH  32  33
ENDBRANCH  29  32
ENDBRANCH  22  31
ENDBRANCH   5  22
TORSDOF 6
ENDMDL
MODEL 2
REMARK VINA RESULT:      -9.1     10.125     12.611
REMARK  Name = 44259187
REMARK  6 active torsions:
REMARK  status: ('A' for Active; 'I' for Inactive)
REMARK    1  A    between atoms: O_2  and  C_18
REMARK    2  A    between atoms: O_2  and  C_20
REMARK    3  A    between atoms: O_6  and  C_19
REMARK    4  A    between atoms: O_6  and  C_25
REMARK    5  A    between atoms: C_16  and  C_19
REMARK    6  A    between atoms: C_21  and  C_26
REMARK                            x       y       z     vdW  Elec       q    Type
REMARK                         _______ _______ _______ _____ _____    ______ ____
ROOT
ATOM      1  O   UNL     1     113.828 127.415 136.267  0.00  0.00    +0.000 OA
ATOM      2  O   UNL     1     112.054 128.436 137.660  0.00  0.00    +0.000 OA
ATOM      3  O   UNL     1     112.147 129.673 136.921  0.00  0.00    +0.000 OA
ATOM      4  O   UNL     1     114.071 129.878 134.733  0.00  0.00    +0.000 OA
ATOM      5  C   UNL     1     112.885 127.319 137.337  0.00  0.00    +0.000 A 
ATOM      6  C   UNL     1     113.476 126.978 136.873  0.00  0.00    +0.000 A 
ATOM      7  C   UNL     1     112.646 128.096 137.195  0.00  0.00    +0.000 A 
ATOM      8  C   UNL     1     112.998 128.532 136.590  0.00  0.00    +0.000 A 
ATOM      9  C   UNL     1     113.588 128.191 136.126  0.00  0.00    +0.000 A 
ATOM     10  C   UNL     1     112.739 129.340 136.452  0.00  0.00    +0.000 A 
ATOM     11  C   UNL     1     113.963 128.635 135.492  0.00  0.00    +0.000 A 
ATOM     12  C   UNL     1     113.102 129.800 135.823  0.00  0.00    +0.000 A 
ATOM     13  C   UNL     1     113.718 129.444 135.340  0.00  0.00    +0.000 A 
ENDROOT
BRANCH   6  16
ATOM     14  O   UNL     1     113.481 124.217 136.135  0.00  0.00    +0.000 OA
ATOM     15  O   UNL     1     114.431 123.870 137.439  0.00  0.00    +0.000 OA
ATOM     16  C   UNL     1     113.715 126.202 137.015  0.00  0.00    +0.000 A 
ATOM     17  C   UNL     1     113.479 125.598 136.504  0.00  0.00    +0.000 A 
ATOM     18  C   UNL     1     114.190 126.028 137.667  0.00  0.00    +0.000 A 
ATOM     19  C   UNL     1     113.717 124.821 136.646  0.00  0.00    +0.000 A 
ATOM     20  C   UNL     1     114.429 125.251 137.808  0.00  0.00    +0.000 A 
ATOM     21  C   UNL     1     114.192 124.648 137.298  0.00  0.00    +0.000 A 
ENDBRANCH   6  16
BRANCH   5  22
ATOM     22  O   UNL     1     112.533 126.883 137.943  0.00  0.00    +0.000 OA
BRANCH  22  31
ATOM     23  O   UNL     1     111.310 126.674 137.234  0.00  0.00    +0.000 OA
ATOM     24  O   UNL     1     109.266 126.415 137.956  0.00  0.00    +0.000 OA
ATOM     25  O   UNL     1     110.079 126.600 139.380  0.00  0.00    +0.000 OA
ATOM     26  O   UNL     1     111.713 126.834 139.373  0.00  0.00    +0.000 OA
ATOM     27  C   UNL     1     110.084 126.532 137.953  0.00  0.00    +0.000 C 
ATOM     28  C   UNL     1     110.489 126.625 138.665  0.00  0.00    +0.000 C 
ATOM     29  C   UNL     1     110.494 126.557 137.237  0.00  0.00    +0.000 C 
ATOM     30  C   UNL     1     111.307 126.742 138.661  0.00  0.00    +0.000 C 
ATOM     31  C   UNL     1     111.717 126.766 137.946  0.00  0.00    +0.000 C 
BRANCH  29  32
ATOM     32  C   UNL     1     110.087 126.464 136.526  0.00  0.00    +0.000 C 
BRANCH  32  33
ATOM     33  O   UNL     1     110.371 125.946 135.951  0.00  0.00    +0.000 OA
BRANCH  33  35
ATOM     34  O   UNL     1     109.394 125.588 134.972  0.00  0.00    +0.000 OA
ATOM     35  C   UNL     1     110.086 125.988 135.178  0.00  0.00    +0.000 C 
ATOM     36  C   UNL     1     110.491 126.430 134.612  0.00  0.00    +0.000 C 
ENDBRANCH  33  35
ENDBRANCH  32  33
ENDBRANCH  29  32
ENDBRANCH  22  31
ENDBRANCH   5  22
TORSDOF 6
ENDMDL
MODEL 3
REMARK VINA RESULT:      -9.1     10.000     12.011
REMARK  Name = 44259187
REMARK  6 active torsions:
REMARK  status: ('A' for Active; 'I' for Inactive)
REMARK    1  A    between atoms: O_2  and  C_18
REMARK    2  A    between atoms: O_2  and  C_20
REMARK    3  A    between atoms: O_6  and  C_19
REMARK    4  A    between atoms: O_6  and  C_25
REMARK    5  A    between atoms: C_16  and  C_19
REMARK    6  A    between atoms: C_21  and  C_26
REMARK                            x       y       z     vdW  Elec       q    Type
REMARK                         _______ _______ _______ _____ _____    ______ ____
ROOT
ATOM      1  O   UNL     1     112.528 126.399 136.284  0.00  0.00    +0.000 OA
ATOM      2  O   UNL     1     111.501 126.655 138.522  0.00  0.00    +0.000 OA
ATOM      3  O   UNL     1     111.209 125.243 138.581  0.00  0.00    +0.000 OA
ATOM      4  O   UNL     1     111.970 123.541 136.332  0.00  0.00    +0.000 OA
ATOM      5  C   UNL     1     112.153 127.228 137.387  0.00  0.00    +0.000 A 
ATOM      6  C   UNL     1     112.496 127.143 136.641  0.00  0.00    +0.000 A 
ATOM      7  C   UNL     1     111.844 126.570 137.776  0.00  0.00    +0.000 A 
ATOM      8  C   UNL     1     111.876 125.826 137.419  0.00  0.00    +0.000 A 
ATOM      9  C   UNL     1     112.218 125.742 136.674  0.00  0.00    +0.000 A 
ATOM     10  C   UNL     1     111.549 125.149 137.835  0.00  0.00    +0.000 A 
ATOM     11  C   UNL     1     112.258 124.973 136.291  0.00  0.00    +0.000 A 
ATOM     12  C   UNL     1     111.580 124.372 137.469  0.00  0.00    +0.000 A 
ATOM     13  C   UNL     1     111.937 124.283 136.691  0.00  0.00    +0.000 A 
ENDROOT
BRANCH   6  16
ATOM     14  O   UNL     1     112.284 129.145 134.612  0.00  0.00    +0.000 OA
ATOM     15  O   UNL     1     113.733 129.777 135.084  0.00  0.00    +0.000 OA
ATOM     16  C   UNL     1     112.806 127.801 136.252  0.00  0.00    +0.000 A 
ATOM     17  C   UNL     1     112.390 128.144 135.626  0.00  0.00    +0.000 A 
ATOM     18  C   UNL     1     113.531 128.117 136.488  0.00  0.00    +0.000 A 
ATOM     19  C   UNL     1     112.700 128.802 135.238  0.00  0.00    +0.000 A 
ATOM     20  C   UNL     1     113.839 128.775 136.099  0.00  0.00    +0.000 A 
ATOM     21  C   UNL     1     113.425 129.118 135.474  0.00  0.00    +0.000 A 
ENDBRANCH   6  16
BRANCH   5  22
ATOM     22  O   UNL     1     112.121 127.971 137.744  0.00  0.00    +0.000 OA
BRANCH  22  31
ATOM     23  O   UNL     1     110.724 128.148 137.503  0.00  0.00    +0.000 OA
ATOM     24  O   UNL     1     109.210 129.256 138.620  0.00  0.00    +0.000 OA
ATOM     25  O   UNL     1     110.550 129.545 139.539  0.00  0.00    +0.000 OA
ATOM     26  O   UNL     1     112.005 128.903 139.101  0.00  0.00    +0.000 OA
ATOM     27  C   UNL     1     109.938 128.934 138.401  0.00  0.00    +0.000 C 
ATOM     28  C   UNL     1     110.608 129.079 138.860  0.00  0.00    +0.000 C 
ATOM     29  C   UNL     1     109.996 128.468 137.722  0.00  0.00    +0.000 C 
ATOM     30  C   UNL     1     111.336 128.758 138.641  0.00  0.00    +0.000 C 
ATOM     31  C   UNL     1     111.394 128.292 137.962  0.00  0.00    +0.000 C 
BRANCH  29  32
ATOM     32  C   UNL     1     109.326 128.324 137.263  0.00  0.00    +0.000 C 
BRANCH  32  33
ATOM     33  O   UNL     1     109.388 128.285 136.442  0.00  0.00    +0.000 OA
BRANCH  33  35
ATOM     34  O   UNL     1     108.149 128.560 135.787  0.00  0.00    +0.000 OA
ATOM     35  C   UNL     1     108.747 128.029 135.990  0.00  0.00    +0.000 C 
ATOM     36  C   UNL     1     108.703 127.244 135.743  0.00  0.00    +0.000 C 
ENDBRANCH  33  35
ENDBRANCH  32  33
ENDBRANCH  29  32
ENDBRANCH  22  31
ENDBRANCH   5  22
TORSDOF 6
ENDMDL
MODEL 4
REMARK VINA RESULT:      -9.0      9.863     11.884
REMARK  Name = 44259187
REMARK  6 active torsions:
REMARK  status: ('A' for Active; 'I' for Inactive)
REMARK    1  A    between atoms: O_2  and  C_18
REMARK    2  A    between atoms: O_2  and  C_20
REMARK    3  A    between atoms: O_6  and  C_19
REMARK    4  A    between atoms: O_6  and  C_25
REMARK    5  A    between atoms: C_16  and  C_19
REMARK    6  A    between atoms: C_21  and  C_26
REMARK                            x       y       z     vdW  Elec       q    Type
REMARK                         _______ _______ _______ _____ _____    ______ ____
ROOT
ATOM      1  O   UNL     1     111.002 125.264 136.486  0.00  0.00    +0.000 OA
ATOM      2  O   UNL     1     113.221 126.302 136.128  0.00  0.00    +0.000 OA
ATOM      3  O   UNL     1     113.886 125.068 136.469  0.00  0.00    +0.000 OA
ATOM      4  O   UNL     1     112.274 122.739 137.185  0.00  0.00    +0.000 OA
ATOM      5  C   UNL     1     111.796 126.401 136.136  0.00  0.00    +0.000 A 
ATOM      6  C   UNL     1     111.056 126.054 136.255  0.00  0.00    +0.000 A 
ATOM      7  C   UNL     1     112.481 125.956 136.247  0.00  0.00    +0.000 A 
ATOM      8  C   UNL     1     112.428 125.165 136.478  0.00  0.00    +0.000 A 
ATOM      9  C   UNL     1     111.689 124.820 136.597  0.00  0.00    +0.000 A 
ATOM     10  C   UNL     1     113.150 124.713 136.590  0.00  0.00    +0.000 A 
ATOM     11  C   UNL     1     111.619 123.998 136.837  0.00  0.00    +0.000 A 
ATOM     12  C   UNL     1     113.102 123.890 136.830  0.00  0.00    +0.000 A 
ATOM     13  C   UNL     1     112.331 123.529 136.954  0.00  0.00    +0.000 A 
ENDROOT
BRANCH   6  16
ATOM     14  O   UNL     1     108.833 127.487 137.339  0.00  0.00    +0.000 OA
ATOM     15  O   UNL     1     108.312 127.834 135.812  0.00  0.00    +0.000 OA
ATOM     16  C   UNL     1     110.370 126.499 136.144  0.00  0.00    +0.000 A 
ATOM     17  C   UNL     1     109.944 126.771 136.797  0.00  0.00    +0.000 A 
ATOM     18  C   UNL     1     110.110 126.673 135.380  0.00  0.00    +0.000 A 
ATOM     19  C   UNL     1     109.259 127.216 136.685  0.00  0.00    +0.000 A 
ATOM     20  C   UNL     1     109.424 127.118 135.270  0.00  0.00    +0.000 A 
ATOM     21  C   UNL     1     108.998 127.389 135.922  0.00  0.00    +0.000 A 
ENDBRANCH   6  16
BRANCH   5  22
ATOM     22  O   UNL     1     111.849 127.191 135.905  0.00  0.00    +0.000 OA
BRANCH  22  31
ATOM     23  O   UNL     1     112.288 127.634 137.191  0.00  0.00    +0.000 OA
ATOM     24  O   UNL     1     113.513 129.345 137.771  0.00  0.00    +0.000 OA
ATOM     25  O   UNL     1     113.467 129.536 136.133  0.00  0.00    +0.000 OA
ATOM     26  O   UNL     1     112.635 128.459 135.200  0.00  0.00    +0.000 OA
ATOM     27  C   UNL     1     113.097 128.806 137.304  0.00  0.00    +0.000 C 
ATOM     28  C   UNL     1     113.074 128.902 136.485  0.00  0.00    +0.000 C 
ATOM     29  C   UNL     1     112.704 128.172 137.657  0.00  0.00    +0.000 C 
ATOM     30  C   UNL     1     112.658 128.363 136.019  0.00  0.00    +0.000 C 
ATOM     31  C   UNL     1     112.265 127.729 136.371  0.00  0.00    +0.000 C 
BRANCH  29  32
ATOM     32  C   UNL     1     112.727 128.077 138.476  0.00  0.00    +0.000 C 
BRANCH  32  33
ATOM     33  O   UNL     1     112.065 127.797 138.879  0.00  0.00    +0.000 OA
BRANCH  33  35
ATOM     34  O   UNL     1     111.990 128.183 140.252  0.00  0.00    +0.000 OA
ATOM     35  C   UNL     1     112.118 127.604 139.679  0.00  0.00    +0.000 C 
ATOM     36  C   UNL     1     112.300 126.833 139.907  0.00  0.00    +0.000 C 
ENDBRANCH  33  35
ENDBRANCH  32  33
ENDBRANCH  29  32
ENDBRANCH  22  31
ENDBRANCH   5  22
TORSDOF 6
ENDMDL
MODEL 5
REMARK VINA RESULT:      -9.0      1.025      3.951
REMARK  Name = 44259187
REMARK  6 active torsions:
REMARK  status: ('A' for Active; 'I' for Inactive)
REMARK    1  A    between atoms: O_2  and  C_18
REMARK    2  A    between atoms: O_2  and  C_20
REMARK    3  A    between atoms: O_6  and  C_19
REMARK    4  A    between atoms: O_6  and  C_25
REMARK    5  A    between atoms: C_16  and  C_19
REMARK    6  A    between atoms: C_21  and  C_26
REMARK                            x       y       z     vdW  Elec       q    Type
REMARK                         _______ _______ _______ _____ _____    ______ ____
ROOT
ATOM      1  O   UNL     1     105.139 124.125 147.114  0.00  0.00    +0.000 OA
ATOM      2  O   UNL     1     103.533 125.780 148.014  0.00  0.00    +0.000 OA
ATOM      3  O   UNL     1     102.446 125.158 147.297  0.00  0.00    +0.000 OA
ATOM      4  O   UNL     1     102.996 122.817 145.639  0.00  0.00    +0.000 OA
ATOM      5  C   UNL     1     104.865 125.270 147.925  0.00  0.00    +0.000 A 
ATOM      6  C   UNL     1     105.400 124.718 147.625  0.00  0.00    +0.000 A 
ATOM      7  C   UNL     1     104.068 125.228 147.714  0.00  0.00    +0.000 A 
ATOM      8  C   UNL     1     103.807 124.635 147.204  0.00  0.00    +0.000 A 
ATOM      9  C   UNL     1     104.342 124.084 146.905  0.00  0.00    +0.000 A 
ATOM     10  C   UNL     1     102.975 124.602 146.993  0.00  0.00    +0.000 A 
ATOM     11  C   UNL     1     104.083 123.461 146.373  0.00  0.00    +0.000 A 
ATOM     12  C   UNL     1     102.696 123.986 146.462  0.00  0.00    +0.000 A 
ATOM     13  C   UNL     1     103.254 123.411 146.149  0.00  0.00    +0.000 A 
ENDROOT
BRANCH   6  16
ATOM     14  O   UNL     1     108.108 125.336 146.950  0.00  0.00    +0.000 OA
ATOM     15  O   UNL     1     108.587 124.889 148.465  0.00  0.00    +0.000 OA
ATOM     16  C   UNL     1     106.197 124.761 147.835  0.00  0.00    +0.000 A 
ATOM     17  C   UNL     1     106.754 125.027 147.287  0.00  0.00    +0.000 A 
ATOM     18  C   UNL     1     106.436 124.538 148.592  0.00  0.00    +0.000 A 
ATOM     19  C   UNL     1     107.551 125.069 147.498  0.00  0.00    +0.000 A 
ATOM     20  C   UNL     1     107.233 124.581 148.802  0.00  0.00    +0.000 A 
ATOM     21  C   UNL     1     107.790 124.846 148.255  0.00  0.00    +0.000 A 
ENDBRANCH   6  16
BRANCH   5  22
ATOM     22  O   UNL     1     105.126 125.864 148.435  0.00  0.00    +0.000 OA
BRANCH  22  31
ATOM     23  O   UNL     1     105.063 126.890 147.442  0.00  0.00    +0.000 OA
ATOM     24  O   UNL     1     104.709 129.036 147.626  0.00  0.00    +0.000 OA
ATOM     25  O   UNL     1     104.626 128.570 149.207  0.00  0.00    +0.000 OA
ATOM     26  O   UNL     1     104.834 126.984 149.611  0.00  0.00    +0.000 OA
ATOM     27  C   UNL     1     104.813 128.242 147.829  0.00  0.00    +0.000 C 
ATOM     28  C   UNL     1     104.771 128.010 148.619  0.00  0.00    +0.000 C 
ATOM     29  C   UNL     1     104.959 127.683 147.240  0.00  0.00    +0.000 C 
ATOM     30  C   UNL     1     104.876 127.216 148.821  0.00  0.00    +0.000 C 
ATOM     31  C   UNL     1     105.022 126.656 148.233  0.00  0.00    +0.000 C 
BRANCH  29  32
ATOM     32  C   UNL     1     105.000 127.917 146.450  0.00  0.00    +0.000 C 
BRANCH  32  33
ATOM     33  O   UNL     1     105.608 127.637 145.968  0.00  0.00    +0.000 OA
BRANCH  33  35
ATOM     34  O   UNL     1     105.131 127.101 144.733  0.00  0.00    +0.000 OA
ATOM     35  C   UNL     1     105.540 127.686 145.147  0.00  0.00    +0.000 C 
ATOM     36  C   UNL     1     105.880 128.317 144.741  0.00  0.00    +0.000 C 
ENDBRANCH  33  35
ENDBRANCH  32  33
ENDBRANCH  29  32
ENDBRANCH  22  31
ENDBRANCH   5  22
TORSDOF 6
ENDMDL
MODEL 6
REMARK VINA RESULT:      -9.0      9.832     11.998
REMARK  Name = 44259187
REMARK  6 active torsions:
REMARK  status: ('A' for Active; 'I' for Inactive)
REMARK    1  A    between atoms: O_2  and  C_18
REMARK    2  A    between atoms: O_2  and  C_20
REMARK    3  A    between atoms: O_6  and  C_19
REMARK    4  A    between atoms: O_6  and  C_25
REMARK    5  A    between atoms: C_16  and  C_19
REMARK    6  A    between atoms: C_21  and  C_26
REMARK                            x       y       z     vdW  Elec       q    Type
REMARK                         _______ _______ _______ _____ _____    ______ ____
ROOT
ATOM      1  O   UNL     1     112.881 126.042 138.586  0.00  0.00    +0.000 OA
ATOM      2  O   UNL     1     110.572 125.713 137.756  0.00  0.00    +0.000 OA
ATOM      3  O   UNL     1     110.025 126.202 138.998  0.00  0.00    +0.000 OA
ATOM      4  O   UNL     1     111.849 127.039 141.121  0.00  0.00    +0.000 OA
ATOM      5  C   UNL     1     111.984 125.634 137.551  0.00  0.00    +0.000 A 
ATOM      6  C   UNL     1     112.754 125.743 137.828  0.00  0.00    +0.000 A 
ATOM      7  C   UNL     1     111.342 125.823 138.033  0.00  0.00    +0.000 A 
ATOM      8  C   UNL     1     111.469 126.122 138.791  0.00  0.00    +0.000 A 
ATOM      9  C   UNL     1     112.238 126.231 139.068  0.00  0.00    +0.000 A 
ATOM     10  C   UNL     1     110.792 126.315 139.283  0.00  0.00    +0.000 A 
ATOM     11  C   UNL     1     112.384 126.541 139.855  0.00  0.00    +0.000 A 
ATOM     12  C   UNL     1     110.917 126.626 140.074  0.00  0.00    +0.000 A 
ATOM     13  C   UNL     1     111.719 126.740 140.363  0.00  0.00    +0.000 A 
ENDROOT
BRANCH   6  16
ATOM     14  O   UNL     1     114.888 126.566 136.114  0.00  0.00    +0.000 OA
ATOM     15  O   UNL     1     115.323 124.989 135.898  0.00  0.00    +0.000 OA
ATOM     16  C   UNL     1     113.396 125.554 137.346  0.00  0.00    +0.000 A 
ATOM     17  C   UNL     1     113.821 126.155 136.971  0.00  0.00    +0.000 A 
ATOM     18  C   UNL     1     113.614 124.766 137.238  0.00  0.00    +0.000 A 
ATOM     19  C   UNL     1     114.463 125.965 136.489  0.00  0.00    +0.000 A 
ATOM     20  C   UNL     1     114.256 124.578 136.755  0.00  0.00    +0.000 A 
ATOM     21  C   UNL     1     114.681 125.177 136.381  0.00  0.00    +0.000 A 
ENDBRANCH   6  16
BRANCH   5  22
ATOM     22  O   UNL     1     111.857 125.335 136.792  0.00  0.00    +0.000 OA
BRANCH  22  31
ATOM     23  O   UNL     1     111.472 126.591 136.230  0.00  0.00    +0.000 OA
ATOM     24  O   UNL     1     110.086 127.067 134.612  0.00  0.00    +0.000 OA
ATOM     25  O   UNL     1     109.971 125.421 134.647  0.00  0.00    +0.000 OA
ATOM     26  O   UNL     1     110.857 124.555 135.737  0.00  0.00    +0.000 OA
ATOM     27  C   UNL     1     110.529 126.634 135.158  0.00  0.00    +0.000 C 
ATOM     28  C   UNL     1     110.471 125.811 135.175  0.00  0.00    +0.000 C 
ATOM     29  C   UNL     1     111.030 127.024 135.685  0.00  0.00    +0.000 C 
ATOM     30  C   UNL     1     110.915 125.378 135.720  0.00  0.00    +0.000 C 
ATOM     31  C   UNL     1     111.415 125.768 136.248  0.00  0.00    +0.000 C 
BRANCH  29  32
ATOM     32  C   UNL     1     111.087 127.847 135.667  0.00  0.00    +0.000 C 
BRANCH  32  33
ATOM     33  O   UNL     1     111.822 128.211 135.742  0.00  0.00    +0.000 OA
BRANCH  33  35
ATOM     34  O   UNL     1     111.730 129.514 135.162  0.00  0.00    +0.000 OA
ATOM     35  C   UNL     1     111.871 129.032 135.817  0.00  0.00    +0.000 C 
ATOM     36  C   UNL     1     112.061 129.370 136.544  0.00  0.00    +0.000 C 
ENDBRANCH  33  35
ENDBRANCH  32  33
ENDBRANCH  29  32
ENDBRANCH  22  31
ENDBRANCH   5  22
TORSDOF 6
ENDMDL
MODEL 7
REMARK VINA RESULT:      -9.0     11.116     12.811
REMARK  Name = 44259187
REMARK  6 active torsions:
REMARK  status: ('A' for Active; 'I' for Inactive)
REMARK    1  A    between atoms: O_2  and  C_18
REMARK    2  A    between atoms: O_2  and  C_20
REMARK    3  A    between atoms: O_6  and  C_19
REMARK    4  A    between atoms: O_6  and  C_25
REMARK    5  A    between atoms: C_16  and  C_19
REMARK    6  A    between atoms: C_21  and  C_26
REMARK                            x       y       z     vdW  Elec       q    Type
REMARK                         _______ _______ _______ _____ _____    ______ ____
ROOT
ATOM      1  O   UNL     1     111.877 125.632 136.152  0.00  0.00    +0.000 OA
ATOM      2  O   UNL     1     111.038 127.488 137.558  0.00  0.00    +0.000 OA
ATOM      3  O   UNL     1     109.800 127.528 136.818  0.00  0.00    +0.000 OA
ATOM      4  O   UNL     1     109.404 125.653 134.613  0.00  0.00    +0.000 OA
ATOM      5  C   UNL     1     112.065 126.551 137.230  0.00  0.00    +0.000 A 
ATOM      6  C   UNL     1     112.345 125.932 136.761  0.00  0.00    +0.000 A 
ATOM      7  C   UNL     1     111.317 126.869 137.089  0.00  0.00    +0.000 A 
ATOM      8  C   UNL     1     110.849 126.569 136.480  0.00  0.00    +0.000 A 
ATOM      9  C   UNL     1     111.129 125.950 136.012  0.00  0.00    +0.000 A 
ATOM     10  C   UNL     1     110.072 126.909 136.344  0.00  0.00    +0.000 A 
ATOM     11  C   UNL     1     110.651 125.629 135.374  0.00  0.00    +0.000 A 
ATOM     12  C   UNL     1     109.579 126.601 135.711  0.00  0.00    +0.000 A 
ATOM     13  C   UNL     1     109.871 125.956 135.223  0.00  0.00    +0.000 A 
ENDROOT
BRANCH   6  16
ATOM     14  O   UNL     1     115.100 125.675 136.043  0.00  0.00    +0.000 OA
ATOM     15  O   UNL     1     115.339 124.662 137.322  0.00  0.00    +0.000 OA
ATOM     16  C   UNL     1     113.093 125.614 136.902  0.00  0.00    +0.000 A 
ATOM     17  C   UNL     1     113.722 125.804 136.402  0.00  0.00    +0.000 A 
ATOM     18  C   UNL     1     113.213 125.107 137.542  0.00  0.00    +0.000 A 
ATOM     19  C   UNL     1     114.470 125.486 136.543  0.00  0.00    +0.000 A 
ATOM     20  C   UNL     1     113.962 124.790 137.681  0.00  0.00    +0.000 A 
ATOM     21  C   UNL     1     114.590 124.979 137.182  0.00  0.00    +0.000 A 
ENDBRANCH   6  16
BRANCH   5  22
ATOM     22  O   UNL     1     112.534 126.851 137.839  0.00  0.00    +0.000 OA
BRANCH  22  31
ATOM     23  O   UNL     1     112.915 128.028 137.123  0.00  0.00    +0.000 OA
ATOM     24  O   UNL     1     113.413 130.032 137.830  0.00  0.00    +0.000 OA
ATOM     25  O   UNL     1     113.091 129.270 139.257  0.00  0.00    +0.000 OA
ATOM     26  O   UNL     1     112.651 127.679 139.262  0.00  0.00    +0.000 OA
ATOM     27  C   UNL     1     113.193 129.236 137.832  0.00  0.00    +0.000 C 
ATOM     28  C   UNL     1     113.032 128.856 138.546  0.00  0.00    +0.000 C 
ATOM     29  C   UNL     1     113.134 128.822 137.121  0.00  0.00    +0.000 C 
ATOM     30  C   UNL     1     112.812 128.060 138.548  0.00  0.00    +0.000 C 
ATOM     31  C   UNL     1     112.753 127.646 137.837  0.00  0.00    +0.000 C 
BRANCH  29  32
ATOM     32  C   UNL     1     113.296 129.204 136.407  0.00  0.00    +0.000 C 
BRANCH  32  33
ATOM     33  O   UNL     1     113.777 128.842 135.844  0.00  0.00    +0.000 OA
BRANCH  33  35
ATOM     34  O   UNL     1     113.167 129.465 134.713  0.00  0.00    +0.000 OA
ATOM     35  C   UNL     1     113.837 129.160 135.085  0.00  0.00    +0.000 C 
ATOM     36  C   UNL     1     114.565 129.172 134.699  0.00  0.00    +0.000 C 
ENDBRANCH  33  35
ENDBRANCH  32  33
ENDBRANCH  29  32
ENDBRANCH  22  31
ENDBRANCH   5  22
TORSDOF 6
ENDMDL
MODEL 8
REMARK VINA RESULT:      -9.0      9.092     11.286
REMARK  Name = 44259187
REMARK  6 active torsions:
REMARK  status: ('A' for Active; 'I' for Inactive)
REMARK    1  A    between atoms: O_2  and  C_18
REMARK    2  A    between atoms: O_2  and  C_20
REMARK    3  A    between atoms: O_6  and  C_19
REMARK    4  A    between atoms: O_6  and  C_25
REMARK    5  A    between atoms: C_16  and  C_19
REMARK    6  A    between atoms: C_21  and  C_26
REMARK                            x       y       z     vdW  Elec       q    Type
REMARK                         _______ _______ _______ _____ _____    ______ ____
ROOT
ATOM      1  O   UNL     1     113.817 126.199 138.384  0.00  0.00    +0.000 OA
ATOM      2  O   UNL     1     111.718 124.983 137.890  0.00  0.00    +0.000 OA
ATOM      3  O   UNL     1     112.344 124.292 136.789  0.00  0.00    +0.000 OA
ATOM      4  O   UNL     1     115.146 124.842 136.176  0.00  0.00    +0.000 OA
ATOM      5  C   UNL     1     112.446 125.927 138.680  0.00  0.00    +0.000 A 
ATOM      6  C   UNL     1     113.146 126.332 138.844  0.00  0.00    +0.000 A 
ATOM      7  C   UNL     1     112.418 125.389 138.055  0.00  0.00    +0.000 A 
ATOM      8  C   UNL     1     113.090 125.256 137.594  0.00  0.00    +0.000 A 
ATOM      9  C   UNL     1     113.789 125.661 137.759  0.00  0.00    +0.000 A 
ATOM     10  C   UNL     1     113.048 124.693 136.946  0.00  0.00    +0.000 A 
ATOM     11  C   UNL     1     114.495 125.532 137.287  0.00  0.00    +0.000 A 
ATOM     12  C   UNL     1     113.744 124.551 136.463  0.00  0.00    +0.000 A 
ATOM     13  C   UNL     1     114.473 124.973 136.635  0.00  0.00    +0.000 A 
ENDROOT
BRANCH   6  16
ATOM     14  O   UNL     1     113.235 129.029 139.785  0.00  0.00    +0.000 OA
ATOM     15  O   UNL     1     113.255 128.485 141.343  0.00  0.00    +0.000 OA
ATOM     16  C   UNL     1     113.173 126.870 139.469  0.00  0.00    +0.000 A 
ATOM     17  C   UNL     1     113.190 127.681 139.315  0.00  0.00    +0.000 A 
ATOM     18  C   UNL     1     113.183 126.598 140.248  0.00  0.00    +0.000 A 
ATOM     19  C   UNL     1     113.218 128.218 139.940  0.00  0.00    +0.000 A 
ATOM     20  C   UNL     1     113.211 127.137 140.872  0.00  0.00    +0.000 A 
ATOM     21  C   UNL     1     113.228 127.946 140.719  0.00  0.00    +0.000 A 
ENDBRANCH   6  16
BRANCH   5  22
ATOM     22  O   UNL     1     111.774 126.059 139.140  0.00  0.00    +0.000 OA
BRANCH  22  31
ATOM     23  O   UNL     1     111.105 126.827 138.138  0.00  0.00    +0.000 OA
ATOM     24  O   UNL     1     108.979 127.091 137.722  0.00  0.00    +0.000 OA
ATOM     25  O   UNL     1     108.919 126.071 139.018  0.00  0.00    +0.000 OA
ATOM     26  O   UNL     1     110.316 125.556 139.727  0.00  0.00    +0.000 OA
ATOM     27  C   UNL     1     109.678 126.833 138.076  0.00  0.00    +0.000 C 
ATOM     28  C   UNL     1     109.648 126.323 138.724  0.00  0.00    +0.000 C 
ATOM     29  C   UNL     1     110.407 127.085 137.783  0.00  0.00    +0.000 C 
ATOM     30  C   UNL     1     110.347 126.065 139.079  0.00  0.00    +0.000 C 
ATOM     31  C   UNL     1     111.076 126.317 138.786  0.00  0.00    +0.000 C 
BRANCH  29  32
ATOM     32  C   UNL     1     110.436 127.595 137.135  0.00  0.00    +0.000 C 
BRANCH  32  33
ATOM     33  O   UNL     1     110.999 128.197 137.108  0.00  0.00    +0.000 OA
BRANCH  33  35
ATOM     34  O   UNL     1     110.614 129.277 136.256  0.00  0.00    +0.000 OA
ATOM     35  C   UNL     1     111.104 128.633 136.416  0.00  0.00    +0.000 C 
ATOM     36  C   UNL     1     111.700 128.427 135.884  0.00  0.00    +0.000 C 
ENDBRANCH  33  35
ENDBRANCH  32  33
ENDBRANCH  29  32
ENDBRANCH  22  31
ENDBRANCH   5  22
TORSDOF 6
ENDMDL
MODEL 9
REMARK VINA RESULT:      -9.0      9.670     12.058
REMARK  Name = 44259187
REMARK  6 active torsions:
REMARK  status: ('A' for Active; 'I' for Inactive)
REMARK    1  A    between atoms: O_2  and  C_18
REMARK    2  A    between atoms: O_2  and  C_20
REMARK    3  A    between atoms: O_6  and  C_19
REMARK    4  A    between atoms: O_6  and  C_25
REMARK    5  A    between atoms: C_16  and  C_19
REMARK    6  A    between atoms: C_21  and  C_26
REMARK                            x       y       z     vdW  Elec       q    Type
REMARK                         _______ _______ _______ _____ _____    ______ ____
ROOT
ATOM      1  O   UNL     1     113.115 127.328 136.065  0.00  0.00    +0.000 OA
ATOM      2  O   UNL     1     112.510 128.674 138.053  0.00  0.00    +0.000 OA
ATOM      3  O   UNL     1     113.266 129.798 137.557  0.00  0.00    +0.000 OA
ATOM      4  O   UNL     1     114.661 129.556 135.002  0.00  0.00    +0.000 OA
ATOM      5  C   UNL     1     112.434 127.452 137.316  0.00  0.00    +0.000 A 
ATOM      6  C   UNL     1     112.636 127.003 136.653  0.00  0.00    +0.000 A 
ATOM      7  C   UNL     1     112.712 128.225 137.390  0.00  0.00    +0.000 A 
ATOM      8  C   UNL     1     113.191 128.550 136.802  0.00  0.00    +0.000 A 
ATOM      9  C   UNL     1     113.392 128.102 136.140  0.00  0.00    +0.000 A 
ATOM     10  C   UNL     1     113.473 129.357 136.891  0.00  0.00    +0.000 A 
ATOM     11  C   UNL     1     113.890 128.428 135.521  0.00  0.00    +0.000 A 
ATOM     12  C   UNL     1     113.972 129.701 136.282  0.00  0.00    +0.000 A 
ATOM     13  C   UNL     1     114.182 129.233 135.592  0.00  0.00    +0.000 A 
ENDROOT
BRANCH   6  16
ATOM     14  O   UNL     1     110.837 125.122 135.473  0.00  0.00    +0.000 OA
ATOM     15  O   UNL     1     111.524 123.910 136.356  0.00  0.00    +0.000 OA
ATOM     16  C   UNL     1     112.359 126.230 136.580  0.00  0.00    +0.000 A 
ATOM     17  C   UNL     1     111.737 126.063 136.063  0.00  0.00    +0.000 A 
ATOM     18  C   UNL     1     112.702 125.624 137.021  0.00  0.00    +0.000 A 
ATOM     19  C   UNL     1     111.459 125.289 135.989  0.00  0.00    +0.000 A 
ATOM     20  C   UNL     1     112.424 124.850 136.947  0.00  0.00    +0.000 A 
ATOM     21  C   UNL     1     111.803 124.683 136.431  0.00  0.00    +0.000 A 
ENDBRANCH   6  16
BRANCH   5  22
ATOM     22  O   UNL     1     111.956 127.127 137.904  0.00  0.00    +0.000 OA
BRANCH  22  31
ATOM     23  O   UNL     1     110.788 127.867 137.543  0.00  0.00    +0.000 OA
ATOM     24  O   UNL     1     109.146 128.631 138.762  0.00  0.00    +0.000 OA
ATOM     25  O   UNL     1     110.077 127.903 139.913  0.00  0.00    +0.000 OA
ATOM     26  O   UNL     1     111.482 127.151 139.485  0.00  0.00    +0.000 OA
ATOM     27  C   UNL     1     109.849 128.254 138.547  0.00  0.00    +0.000 C 
ATOM     28  C   UNL     1     110.314 127.891 139.123  0.00  0.00    +0.000 C 
ATOM     29  C   UNL     1     110.086 128.242 137.757  0.00  0.00    +0.000 C 
ATOM     30  C   UNL     1     111.017 127.515 138.909  0.00  0.00    +0.000 C 
ATOM     31  C   UNL     1     111.254 127.503 138.118  0.00  0.00    +0.000 C 
BRANCH  29  32
ATOM     32  C   UNL     1     109.620 128.607 137.181  0.00  0.00    +0.000 C 
BRANCH  32  33
ATOM     33  O   UNL     1     109.426 128.202 136.490  0.00  0.00    +0.000 OA
BRANCH  33  35
ATOM     34  O   UNL     1     108.207 128.584 135.851  0.00  0.00    +0.000 OA
ATOM     35  C   UNL     1     109.031 128.592 135.879  0.00  0.00    +0.000 C 
ATOM     36  C   UNL     1     109.460 128.989 135.298  0.00  0.00    +0.000 C 
ENDBRANCH  33  35
ENDBRANCH  32  33
ENDBRANCH  29  32
ENDBRANCH  22  31
ENDBRANCH   5  22
TORSDOF 6
ENDMDL
MODEL 10
REMARK VINA RESULT:      -9.0     10.679     12.945
REMARK  Name = 44259187
REMARK  6 active torsions:
REMARK  status: ('A' for Active; 'I' for Inactive)
REMARK    1  A    between atoms: O_2  and  C_18
REMARK    2  A    between atoms: O_2  and  C_20
REMARK    3  A    between atoms: O_6  and  C_19
REMARK    4  A    between atoms: O_6  and  C_25
REMARK    5  A    between atoms: C_16  and  C_19
REMARK    6  A    between atoms: C_21  and  C_26
REMARK                            x       y       z     vdW  Elec       q    Type
REMARK                         _______ _______ _______ _____ _____    ______ ____
ROOT
ATOM      1  O   UNL     1     111.736 127.608 135.526  0.00  0.00    +0.000 OA
ATOM      2  O   UNL     1     111.102 127.176 137.880  0.00  0.00    +0.000 OA
ATOM      3  O   UNL     1     110.087 126.239 137.464  0.00  0.00    +0.000 OA
ATOM      4  O   UNL     1     109.706 125.730 134.613  0.00  0.00    +0.000 OA
ATOM      5  C   UNL     1     111.918 127.854 136.922  0.00  0.00    +0.000 A 
ATOM      6  C   UNL     1     112.130 127.998 136.137  0.00  0.00    +0.000 A 
ATOM      7  C   UNL     1     111.313 127.320 137.095  0.00  0.00    +0.000 A 
ATOM      8  C   UNL     1     110.920 126.930 136.483  0.00  0.00    +0.000 A 
ATOM      9  C   UNL     1     111.131 127.074 135.699  0.00  0.00    +0.000 A 
ATOM     10  C   UNL     1     110.292 126.377 136.676  0.00  0.00    +0.000 A 
ATOM     11  C   UNL     1     110.729 126.675 135.053  0.00  0.00    +0.000 A 
ATOM     12  C   UNL     1     109.878 125.968 136.044  0.00  0.00    +0.000 A 
ATOM     13  C   UNL     1     110.098 126.118 135.227  0.00  0.00    +0.000 A 
ENDROOT
BRANCH   6  16
ATOM     14  O   UNL     1     114.811 128.509 135.290  0.00  0.00    +0.000 OA
ATOM     15  O   UNL     1     114.551 130.131 135.447  0.00  0.00    +0.000 OA
ATOM     16  C   UNL     1     112.735 128.532 135.965  0.00  0.00    +0.000 A 
ATOM     17  C   UNL     1     113.470 128.254 135.713  0.00  0.00    +0.000 A 
ATOM     18  C   UNL     1     112.605 129.342 136.044  0.00  0.00    +0.000 A 
ATOM     19  C   UNL     1     114.075 128.787 135.541  0.00  0.00    +0.000 A 
ATOM     20  C   UNL     1     113.211 129.875 135.871  0.00  0.00    +0.000 A 
ATOM     21  C   UNL     1     113.945 129.598 135.620  0.00  0.00    +0.000 A 
ENDBRANCH   6  16
BRANCH   5  22
ATOM     22  O   UNL     1     112.312 128.244 137.534  0.00  0.00    +0.000 OA
BRANCH  22  31
ATOM     23  O   UNL     1     113.049 127.086 137.934  0.00  0.00    +0.000 OA
ATOM     24  O   UNL     1     113.849 126.504 139.879  0.00  0.00    +0.000 OA
ATOM     25  O   UNL     1     113.144 127.948 140.252  0.00  0.00    +0.000 OA
ATOM     26  O   UNL     1     112.375 128.818 139.079  0.00  0.00    +0.000 OA
ATOM     27  C   UNL     1     113.464 126.939 139.292  0.00  0.00    +0.000 C 
ATOM     28  C   UNL     1     113.112 127.661 139.479  0.00  0.00    +0.000 C 
ATOM     29  C   UNL     1     113.433 126.652 138.520  0.00  0.00    +0.000 C 
ATOM     30  C   UNL     1     112.727 128.096 138.892  0.00  0.00    +0.000 C 
ATOM     31  C   UNL     1     112.696 127.809 138.120  0.00  0.00    +0.000 C 
BRANCH  29  32
ATOM     32  C   UNL     1     113.785 125.929 138.334  0.00  0.00    +0.000 C 
BRANCH  32  33
ATOM     33  O   UNL     1     114.131 125.816 137.594  0.00  0.00    +0.000 OA
BRANCH  33  35
ATOM     34  O   UNL     1     115.095 124.763 137.652  0.00  0.00    +0.000 OA
ATOM     35  C   UNL     1     114.382 125.064 137.366  0.00  0.00    +0.000 C 
ATOM     36  C   UNL     1     113.922 124.614 136.851  0.00  0.00    +0.000 C 
ENDBRANCH  33  35
ENDBRANCH  32  33
ENDBRANCH  29  32
ENDBRANCH  22  31
ENDBRANCH   5  22
TORSDOF 6
ENDMDL
