MODEL 1
REMARK VINA RESULT:      -9.3      0.000      0.000
REMARK  Name = 9894584
REMARK  9 active torsions:
REMARK  status: ('A' for Active; 'I' for Inactive)
REMARK    1  A    between atoms: O_1  and  C_15
REMARK    2  A    between atoms: O_1  and  C_18
REMARK    3  A    between atoms: O_5  and  C_20
REMARK    4  A    between atoms: O_5  and  C_27
REMARK    5  A    between atoms: C_21  and  C_25
REMARK    6  A    between atoms: C_32  and  C_33
REMARK    7  A    between atoms: C_33  and  C_34
REMARK    8  A    between atoms: C_34  and  C_35
REMARK    9  A    between atoms: C_35  and  C_36
REMARK                            x       y       z     vdW  Elec       q    Type
REMARK                         _______ _______ _______ _____ _____    ______ ____
ROOT
ATOM      1  O   UNL     1     110.060 129.363 137.208  0.00  0.00    +0.000 OA
ATOM      2  O   UNL     1     108.558 131.092 138.145  0.00  0.00    +0.000 OA
ATOM      3  O   UNL     1     109.890 130.612 138.989  0.00  0.00    +0.000 OA
ATOM      4  C   UNL     1     108.892 130.180 137.098  0.00  0.00    +0.000 C 
ATOM      5  C   UNL     1     109.059 130.516 137.833  0.00  0.00    +0.000 C 
ATOM      6  C   UNL     1     109.725 130.276 138.255  0.00  0.00    +0.000 C 
ATOM      7  C   UNL     1     109.393 129.603 136.786  0.00  0.00    +0.000 C 
ATOM      8  C   UNL     1     110.225 129.700 137.943  0.00  0.00    +0.000 C 
ENDROOT
BRANCH   8  10
ATOM      9  O   UNL     1     111.644 129.555 138.038  0.00  0.00    +0.000 OA
ATOM     10  C   UNL     1     110.892 129.459 138.365  0.00  0.00    +0.000 C 
ENDBRANCH   8  10
BRANCH   4  11
ATOM     11  O   UNL     1     108.226 130.419 136.675  0.00  0.00    +0.000 OA
BRANCH  11  16
ATOM     12  O   UNL     1     108.976 131.489 136.096  0.00  0.00    +0.000 OA
ATOM     13  O   UNL     1     106.915 130.850 135.771  0.00  0.00    +0.000 OA
ATOM     14  O   UNL     1     107.010 132.135 134.739  0.00  0.00    +0.000 OA
ATOM     15  O   UNL     1     108.416 132.989 134.613  0.00  0.00    +0.000 OA
ATOM     16  C   UNL     1     108.273 131.062 136.159  0.00  0.00    +0.000 C 
ATOM     17  C   UNL     1     107.618 131.277 135.707  0.00  0.00    +0.000 C 
ATOM     18  C   UNL     1     107.665 131.919 135.191  0.00  0.00    +0.000 C 
ATOM     19  C   UNL     1     108.368 132.346 135.128  0.00  0.00    +0.000 C 
ATOM     20  C   UNL     1     109.024 132.131 135.581  0.00  0.00    +0.000 C 
ATOM     21  C   UNL     1     109.727 132.558 135.517  0.00  0.00    +0.000 C 
ENDBRANCH  11  16
ENDBRANCH   4  11
BRANCH   7  22
ATOM     22  O   UNL     1     109.228 129.266 136.051  0.00  0.00    +0.000 OA
BRANCH  22  25
ATOM     23  O   UNL     1     108.942 126.453 136.466  0.00  0.00    +0.000 OA
ATOM     24  O   UNL     1     110.930 127.437 134.663  0.00  0.00    +0.000 OA
ATOM     25  C   UNL     1     109.464 128.493 135.889  0.00  0.00    +0.000 A 
ATOM     26  C   UNL     1     110.078 128.352 135.358  0.00  0.00    +0.000 A 
ATOM     27  C   UNL     1     109.084 127.860 136.259  0.00  0.00    +0.000 A 
ATOM     28  C   UNL     1     109.320 127.086 136.096  0.00  0.00    +0.000 A 
ATOM     29  C   UNL     1     110.314 127.578 135.195  0.00  0.00    +0.000 A 
ATOM     30  C   UNL     1     109.936 126.945 135.564  0.00  0.00    +0.000 A 
BRANCH  30  32
ATOM     31  O   UNL     1     109.819 125.754 134.785  0.00  0.00    +0.000 OA
ATOM     32  C   UNL     1     110.172 126.172 135.402  0.00  0.00    +0.000 C 
BRANCH  32  33
ATOM     33  C   UNL     1     110.761 125.816 135.858  0.00  0.00    +0.000 C 
BRANCH  33  34
ATOM     34  C   UNL     1     111.059 125.078 135.643  0.00  0.00    +0.000 C 
BRANCH  34  36
ATOM     35  O   UNL     1     113.497 123.707 137.395  0.00  0.00    +0.000 OA
ATOM     36  C   UNL     1     111.668 124.735 136.081  0.00  0.00    +0.000 A 
ATOM     37  C   UNL     1     111.500 124.133 136.621  0.00  0.00    +0.000 A 
ATOM     38  C   UNL     1     112.445 124.994 135.980  0.00  0.00    +0.000 A 
ATOM     39  C   UNL     1     112.110 123.791 137.058  0.00  0.00    +0.000 A 
ATOM     40  C   UNL     1     113.054 124.650 136.418  0.00  0.00    +0.000 A 
ATOM     41  C   UNL     1     112.887 124.049 136.957  0.00  0.00    +0.000 A 
ENDBRANCH  34  36
ENDBRANCH  33  34
ENDBRANCH  32  33
ENDBRANCH  30  32
ENDBRANCH  22  25
ENDBRANCH   7  22
TORSDOF 9
ENDMDL
MODEL 2
REMARK VINA RESULT:      -9.1      1.693      2.840
REMARK  Name = 9894584
REMARK  9 active torsions:
REMARK  status: ('A' for Active; 'I' for Inactive)
REMARK    1  A    between atoms: O_1  and  C_15
REMARK    2  A    between atoms: O_1  and  C_18
REMARK    3  A    between atoms: O_5  and  C_20
REMARK    4  A    between atoms: O_5  and  C_27
REMARK    5  A    between atoms: C_21  and  C_25
REMARK    6  A    between atoms: C_32  and  C_33
REMARK    7  A    between atoms: C_33  and  C_34
REMARK    8  A    between atoms: C_34  and  C_35
REMARK    9  A    between atoms: C_35  and  C_36
REMARK                            x       y       z     vdW  Elec       q    Type
REMARK                         _______ _______ _______ _____ _____    ______ ____
ROOT
ATOM      1  O   UNL     1     109.941 129.171 136.237  0.00  0.00    +0.000 OA
ATOM      2  O   UNL     1     108.568 131.156 135.686  0.00  0.00    +0.000 OA
ATOM      3  O   UNL     1     107.880 129.657 135.711  0.00  0.00    +0.000 OA
ATOM      4  C   UNL     1     109.828 130.583 136.041  0.00  0.00    +0.000 C 
ATOM      5  C   UNL     1     109.026 130.494 135.870  0.00  0.00    +0.000 C 
ATOM      6  C   UNL     1     108.681 129.745 135.882  0.00  0.00    +0.000 C 
ATOM      7  C   UNL     1     110.286 129.921 136.224  0.00  0.00    +0.000 C 
ATOM      8  C   UNL     1     109.139 129.084 136.066  0.00  0.00    +0.000 C 
ENDROOT
BRANCH   8  10
ATOM      9  O   UNL     1     108.772 127.903 136.782  0.00  0.00    +0.000 OA
ATOM     10  C   UNL     1     108.795 128.334 136.078  0.00  0.00    +0.000 C 
ENDBRANCH   8  10
BRANCH   4  11
ATOM     11  O   UNL     1     110.173 131.332 136.028  0.00  0.00    +0.000 OA
BRANCH  11  16
ATOM     12  O   UNL     1     109.925 131.488 137.427  0.00  0.00    +0.000 OA
ATOM     13  O   UNL     1     110.563 132.931 135.920  0.00  0.00    +0.000 OA
ATOM     14  O   UNL     1     110.510 133.887 137.264  0.00  0.00    +0.000 OA
ATOM     15  O   UNL     1     110.067 133.242 138.717  0.00  0.00    +0.000 OA
ATOM     16  C   UNL     1     110.147 131.810 136.700  0.00  0.00    +0.000 C 
ATOM     17  C   UNL     1     110.342 132.609 136.646  0.00  0.00    +0.000 C 
ATOM     18  C   UNL     1     110.315 133.087 137.318  0.00  0.00    +0.000 C 
ATOM     19  C   UNL     1     110.094 132.765 138.045  0.00  0.00    +0.000 C 
ATOM     20  C   UNL     1     109.898 131.965 138.099  0.00  0.00    +0.000 C 
ATOM     21  C   UNL     1     109.677 131.643 138.826  0.00  0.00    +0.000 C 
ENDBRANCH  11  16
ENDBRANCH   4  11
BRANCH   7  22
ATOM     22  O   UNL     1     111.088 130.009 136.395  0.00  0.00    +0.000 OA
BRANCH  22  25
ATOM     23  O   UNL     1     112.621 128.082 134.944  0.00  0.00    +0.000 OA
ATOM     24  O   UNL     1     112.544 127.989 137.799  0.00  0.00    +0.000 OA
ATOM     25  C   UNL     1     111.586 129.351 136.387  0.00  0.00    +0.000 A 
ATOM     26  C   UNL     1     111.816 128.999 137.097  0.00  0.00    +0.000 A 
ATOM     27  C   UNL     1     111.854 129.046 135.669  0.00  0.00    +0.000 A 
ATOM     28  C   UNL     1     112.352 128.388 135.661  0.00  0.00    +0.000 A 
ATOM     29  C   UNL     1     112.314 128.342 137.089  0.00  0.00    +0.000 A 
ATOM     30  C   UNL     1     112.582 128.036 136.371  0.00  0.00    +0.000 A 
BRANCH  30  32
ATOM     31  O   UNL     1     113.894 127.479 136.283  0.00  0.00    +0.000 OA
ATOM     32  C   UNL     1     113.080 127.378 136.364  0.00  0.00    +0.000 C 
BRANCH  32  33
ATOM     33  C   UNL     1     112.763 126.620 136.436  0.00  0.00    +0.000 C 
BRANCH  33  34
ATOM     34  C   UNL     1     113.254 125.960 136.376  0.00  0.00    +0.000 C 
BRANCH  34  36
ATOM     35  O   UNL     1     112.071 122.954 137.051  0.00  0.00    +0.000 OA
ATOM     36  C   UNL     1     112.959 125.208 136.545  0.00  0.00    +0.000 A 
ATOM     37  C   UNL     1     113.420 124.668 136.965  0.00  0.00    +0.000 A 
ATOM     38  C   UNL     1     112.202 124.997 136.294  0.00  0.00    +0.000 A 
ATOM     39  C   UNL     1     113.124 123.917 137.133  0.00  0.00    +0.000 A 
ATOM     40  C   UNL     1     111.906 124.246 136.463  0.00  0.00    +0.000 A 
ATOM     41  C   UNL     1     112.367 123.705 136.882  0.00  0.00    +0.000 A 
ENDBRANCH  34  36
ENDBRANCH  33  34
ENDBRANCH  32  33
ENDBRANCH  30  32
ENDBRANCH  22  25
ENDBRANCH   7  22
TORSDOF 9
ENDMDL
MODEL 3
REMARK VINA RESULT:      -9.0      1.906      2.531
REMARK  Name = 9894584
REMARK  9 active torsions:
REMARK  status: ('A' for Active; 'I' for Inactive)
REMARK    1  A    between atoms: O_1  and  C_15
REMARK    2  A    between atoms: O_1  and  C_18
REMARK    3  A    between atoms: O_5  and  C_20
REMARK    4  A    between atoms: O_5  and  C_27
REMARK    5  A    between atoms: C_21  and  C_25
REMARK    6  A    between atoms: C_32  and  C_33
REMARK    7  A    between atoms: C_33  and  C_34
REMARK    8  A    between atoms: C_34  and  C_35
REMARK    9  A    between atoms: C_35  and  C_36
REMARK                            x       y       z     vdW  Elec       q    Type
REMARK                         _______ _______ _______ _____ _____    ______ ____
ROOT
ATOM      1  O   UNL     1     110.347 130.382 139.159  0.00  0.00    +0.000 OA
ATOM      2  O   UNL     1     108.052 131.231 138.787  0.00  0.00    +0.000 OA
ATOM      3  O   UNL     1     108.830 131.549 140.206  0.00  0.00    +0.000 OA
ATOM      4  C   UNL     1     109.193 130.506 138.324  0.00  0.00    +0.000 C 
ATOM      5  C   UNL     1     108.817 130.948 138.911  0.00  0.00    +0.000 C 
ATOM      6  C   UNL     1     109.206 131.107 139.620  0.00  0.00    +0.000 C 
ATOM      7  C   UNL     1     109.958 130.223 138.448  0.00  0.00    +0.000 C 
ATOM      8  C   UNL     1     109.971 130.824 139.744  0.00  0.00    +0.000 C 
ENDROOT
BRANCH   8  10
ATOM      9  O   UNL     1     111.076 131.393 140.448  0.00  0.00    +0.000 OA
ATOM     10  C   UNL     1     110.360 130.983 140.454  0.00  0.00    +0.000 C 
ENDBRANCH   8  10
BRANCH   4  11
ATOM     11  O   UNL     1     108.805 130.347 137.615  0.00  0.00    +0.000 OA
BRANCH  11  16
ATOM     12  O   UNL     1     109.327 131.549 137.045  0.00  0.00    +0.000 OA
ATOM     13  O   UNL     1     107.818 130.156 136.306  0.00  0.00    +0.000 OA
ATOM     14  O   UNL     1     107.847 131.264 135.082  0.00  0.00    +0.000 OA
ATOM     15  O   UNL     1     108.863 132.561 135.168  0.00  0.00    +0.000 OA
ATOM     16  C   UNL     1     108.819 130.900 137.003  0.00  0.00    +0.000 C 
ATOM     17  C   UNL     1     108.326 130.805 136.349  0.00  0.00    +0.000 C 
ATOM     18  C   UNL     1     108.340 131.359 135.736  0.00  0.00    +0.000 C 
ATOM     19  C   UNL     1     108.848 132.007 135.779  0.00  0.00    +0.000 C 
ATOM     20  C   UNL     1     109.342 132.103 136.434  0.00  0.00    +0.000 C 
ATOM     21  C   UNL     1     109.849 132.752 136.477  0.00  0.00    +0.000 C 
ENDBRANCH  11  16
ENDBRANCH   4  11
BRANCH   7  22
ATOM     22  O   UNL     1     110.334 129.781 137.862  0.00  0.00    +0.000 OA
BRANCH  22  25
ATOM     23  O   UNL     1     112.934 128.661 138.261  0.00  0.00    +0.000 OA
ATOM     24  O   UNL     1     110.606 127.066 138.713  0.00  0.00    +0.000 OA
ATOM     25  C   UNL     1     110.813 129.142 138.071  0.00  0.00    +0.000 A 
ATOM     26  C   UNL     1     110.470 128.424 138.288  0.00  0.00    +0.000 A 
ATOM     27  C   UNL     1     111.634 129.222 138.062  0.00  0.00    +0.000 A 
ATOM     28  C   UNL     1     112.113 128.583 138.270  0.00  0.00    +0.000 A 
ATOM     29  C   UNL     1     110.949 127.785 138.496  0.00  0.00    +0.000 A 
ATOM     30  C   UNL     1     111.770 127.864 138.487  0.00  0.00    +0.000 A 
BRANCH  30  32
ATOM     31  O   UNL     1     112.409 127.072 139.490  0.00  0.00    +0.000 OA
ATOM     32  C   UNL     1     112.248 127.225 138.696  0.00  0.00    +0.000 C 
BRANCH  32  33
ATOM     33  C   UNL     1     112.565 126.738 138.109  0.00  0.00    +0.000 C 
BRANCH  33  34
ATOM     34  C   UNL     1     112.979 126.056 138.318  0.00  0.00    +0.000 C 
BRANCH  34  36
ATOM     35  O   UNL     1     114.475 124.254 135.994  0.00  0.00    +0.000 OA
ATOM     36  C   UNL     1     113.354 125.606 137.738  0.00  0.00    +0.000 A 
ATOM     37  C   UNL     1     114.176 125.610 137.679  0.00  0.00    +0.000 A 
ATOM     38  C   UNL     1     112.904 125.151 137.215  0.00  0.00    +0.000 A 
ATOM     39  C   UNL     1     114.550 125.159 137.097  0.00  0.00    +0.000 A 
ATOM     40  C   UNL     1     113.279 124.701 136.635  0.00  0.00    +0.000 A 
ATOM     41  C   UNL     1     114.102 124.705 136.576  0.00  0.00    +0.000 A 
ENDBRANCH  34  36
ENDBRANCH  33  34
ENDBRANCH  32  33
ENDBRANCH  30  32
ENDBRANCH  22  25
ENDBRANCH   7  22
TORSDOF 9
ENDMDL
MODEL 4
REMARK VINA RESULT:      -8.9      1.882      6.635
REMARK  Name = 9894584
REMARK  9 active torsions:
REMARK  status: ('A' for Active; 'I' for Inactive)
REMARK    1  A    between atoms: O_1  and  C_15
REMARK    2  A    between atoms: O_1  and  C_18
REMARK    3  A    between atoms: O_5  and  C_20
REMARK    4  A    between atoms: O_5  and  C_27
REMARK    5  A    between atoms: C_21  and  C_25
REMARK    6  A    between atoms: C_32  and  C_33
REMARK    7  A    between atoms: C_33  and  C_34
REMARK    8  A    between atoms: C_34  and  C_35
REMARK    9  A    between atoms: C_35  and  C_36
REMARK                            x       y       z     vdW  Elec       q    Type
REMARK                         _______ _______ _______ _____ _____    ______ ____
ROOT
ATOM      1  O   UNL     1     110.516 127.189 137.514  0.00  0.00    +0.000 OA
ATOM      2  O   UNL     1     111.347 125.630 139.248  0.00  0.00    +0.000 OA
ATOM      3  O   UNL     1     109.746 125.648 138.854  0.00  0.00    +0.000 OA
ATOM      4  C   UNL     1     111.595 126.660 138.289  0.00  0.00    +0.000 C 
ATOM      5  C   UNL     1     111.070 126.150 138.670  0.00  0.00    +0.000 C 
ATOM      6  C   UNL     1     110.270 126.158 138.473  0.00  0.00    +0.000 C 
ATOM      7  C   UNL     1     111.318 127.180 137.711  0.00  0.00    +0.000 C 
ATOM      8  C   UNL     1     109.993 126.678 137.895  0.00  0.00    +0.000 C 
ENDROOT
BRANCH   8  10
ATOM      9  O   UNL     1     108.963 126.700 136.904  0.00  0.00    +0.000 OA
ATOM     10  C   UNL     1     109.192 126.687 137.698  0.00  0.00    +0.000 C 
ENDBRANCH   8  10
BRANCH   4  11
ATOM     11  O   UNL     1     112.396 126.652 138.486  0.00  0.00    +0.000 OA
BRANCH  11  16
ATOM     12  O   UNL     1     112.634 125.641 137.504  0.00  0.00    +0.000 OA
ATOM     13  O   UNL     1     113.949 126.496 139.021  0.00  0.00    +0.000 OA
ATOM     14  O   UNL     1     114.963 125.408 138.306  0.00  0.00    +0.000 OA
ATOM     15  O   UNL     1     114.423 124.475 137.057  0.00  0.00    +0.000 OA
ATOM     16  C   UNL     1     112.903 126.108 138.129  0.00  0.00    +0.000 C 
ATOM     17  C   UNL     1     113.679 126.030 138.396  0.00  0.00    +0.000 C 
ATOM     18  C   UNL     1     114.187 125.486 138.039  0.00  0.00    +0.000 C 
ATOM     19  C   UNL     1     113.917 125.019 137.414  0.00  0.00    +0.000 C 
ATOM     20  C   UNL     1     113.140 125.097 137.147  0.00  0.00    +0.000 C 
ATOM     21  C   UNL     1     112.870 124.631 136.522  0.00  0.00    +0.000 C 
ENDBRANCH  11  16
ENDBRANCH   4  11
BRANCH   7  22
ATOM     22  O   UNL     1     111.842 127.691 137.330  0.00  0.00    +0.000 OA
BRANCH  22  25
ATOM     23  O   UNL     1     111.036 130.335 138.053  0.00  0.00    +0.000 OA
ATOM     24  O   UNL     1     111.170 129.586 135.299  0.00  0.00    +0.000 OA
ATOM     25  C   UNL     1     111.595 128.447 137.112  0.00  0.00    +0.000 A 
ATOM     26  C   UNL     1     111.506 128.638 136.315  0.00  0.00    +0.000 A 
ATOM     27  C   UNL     1     111.439 129.013 137.692  0.00  0.00    +0.000 A 
ATOM     28  C   UNL     1     111.193 129.769 137.474  0.00  0.00    +0.000 A 
ATOM     29  C   UNL     1     111.260 129.395 136.097  0.00  0.00    +0.000 A 
ATOM     30  C   UNL     1     111.103 129.961 136.676  0.00  0.00    +0.000 A 
BRANCH  30  32
ATOM     31  O   UNL     1     111.391 131.345 136.475  0.00  0.00    +0.000 OA
ATOM     32  C   UNL     1     110.857 130.717 136.458  0.00  0.00    +0.000 C 
BRANCH  32  33
ATOM     33  C   UNL     1     110.076 130.845 136.223  0.00  0.00    +0.000 C 
BRANCH  33  34
ATOM     34  C   UNL     1     109.800 131.614 136.112  0.00  0.00    +0.000 C 
BRANCH  34  36
ATOM     35  O   UNL     1     106.807 132.126 134.819  0.00  0.00    +0.000 OA
ATOM     36  C   UNL     1     109.052 131.742 135.790  0.00  0.00    +0.000 A 
ATOM     37  C   UNL     1     108.377 131.594 136.241  0.00  0.00    +0.000 A 
ATOM     38  C   UNL     1     108.978 132.017 135.015  0.00  0.00    +0.000 A 
ATOM     39  C   UNL     1     107.629 131.722 135.917  0.00  0.00    +0.000 A 
ATOM     40  C   UNL     1     108.230 132.145 134.692  0.00  0.00    +0.000 A 
ATOM     41  C   UNL     1     107.555 131.998 135.143  0.00  0.00    +0.000 A 
ENDBRANCH  34  36
ENDBRANCH  33  34
ENDBRANCH  32  33
ENDBRANCH  30  32
ENDBRANCH  22  25
ENDBRANCH   7  22
TORSDOF 9
ENDMDL
MODEL 5
REMARK VINA RESULT:      -8.9      1.632      1.999
REMARK  Name = 9894584
REMARK  9 active torsions:
REMARK  status: ('A' for Active; 'I' for Inactive)
REMARK    1  A    between atoms: O_1  and  C_15
REMARK    2  A    between atoms: O_1  and  C_18
REMARK    3  A    between atoms: O_5  and  C_20
REMARK    4  A    between atoms: O_5  and  C_27
REMARK    5  A    between atoms: C_21  and  C_25
REMARK    6  A    between atoms: C_32  and  C_33
REMARK    7  A    between atoms: C_33  and  C_34
REMARK    8  A    between atoms: C_34  and  C_35
REMARK    9  A    between atoms: C_35  and  C_36
REMARK                            x       y       z     vdW  Elec       q    Type
REMARK                         _______ _______ _______ _____ _____    ______ ____
ROOT
ATOM      1  O   UNL     1     111.383 130.085 136.882  0.00  0.00    +0.000 OA
ATOM      2  O   UNL     1     110.560 132.342 137.479  0.00  0.00    +0.000 OA
ATOM      3  O   UNL     1     112.165 132.099 137.191  0.00  0.00    +0.000 OA
ATOM      4  C   UNL     1     110.305 130.959 137.226  0.00  0.00    +0.000 C 
ATOM      5  C   UNL     1     110.834 131.590 137.280  0.00  0.00    +0.000 C 
ATOM      6  C   UNL     1     111.637 131.469 137.137  0.00  0.00    +0.000 C 
ATOM      7  C   UNL     1     110.579 130.207 137.027  0.00  0.00    +0.000 C 
ATOM      8  C   UNL     1     111.911 130.716 136.938  0.00  0.00    +0.000 C 
ENDROOT
BRANCH   8  10
ATOM      9  O   UNL     1     112.963 130.317 136.057  0.00  0.00    +0.000 OA
ATOM     10  C   UNL     1     112.714 130.594 136.794  0.00  0.00    +0.000 C 
ENDBRANCH   8  10
BRANCH   4  11
ATOM     11  O   UNL     1     109.502 131.081 137.369  0.00  0.00    +0.000 OA
BRANCH  11  16
ATOM     12  O   UNL     1     109.302 131.402 135.992  0.00  0.00    +0.000 OA
ATOM     13  O   UNL     1     107.905 131.369 137.667  0.00  0.00    +0.000 OA
ATOM     14  O   UNL     1     106.907 131.835 136.438  0.00  0.00    +0.000 OA
ATOM     15  O   UNL     1     107.507 132.012 134.911  0.00  0.00    +0.000 OA
ATOM     16  C   UNL     1     109.003 131.313 136.755  0.00  0.00    +0.000 C 
ATOM     17  C   UNL     1     108.205 131.458 136.904  0.00  0.00    +0.000 C 
ATOM     18  C   UNL     1     107.705 131.691 136.290  0.00  0.00    +0.000 C 
ATOM     19  C   UNL     1     108.005 131.779 135.526  0.00  0.00    +0.000 C 
ATOM     20  C   UNL     1     108.804 131.635 135.377  0.00  0.00    +0.000 C 
ATOM     21  C   UNL     1     109.104 131.723 134.613  0.00  0.00    +0.000 C 
ENDBRANCH  11  16
ENDBRANCH   4  11
BRANCH   7  22
ATOM     22  O   UNL     1     110.050 129.576 136.971  0.00  0.00    +0.000 OA
BRANCH  22  25
ATOM     23  O   UNL     1     110.824 127.569 138.853  0.00  0.00    +0.000 OA
ATOM     24  O   UNL     1     110.808 126.976 136.057  0.00  0.00    +0.000 OA
ATOM     25  C   UNL     1     110.306 128.808 137.133  0.00  0.00    +0.000 A 
ATOM     26  C   UNL     1     110.429 128.277 136.515  0.00  0.00    +0.000 A 
ATOM     27  C   UNL     1     110.437 128.573 137.913  0.00  0.00    +0.000 A 
ATOM     28  C   UNL     1     110.693 127.805 138.074  0.00  0.00    +0.000 A 
ATOM     29  C   UNL     1     110.684 127.509 136.676  0.00  0.00    +0.000 A 
ATOM     30  C   UNL     1     110.816 127.273 137.455  0.00  0.00    +0.000 A 
BRANCH  30  32
ATOM     31  O   UNL     1     110.529 125.932 137.854  0.00  0.00    +0.000 OA
ATOM     32  C   UNL     1     111.071 126.505 137.617  0.00  0.00    +0.000 C 
BRANCH  32  33
ATOM     33  C   UNL     1     111.870 126.312 137.541  0.00  0.00    +0.000 C 
BRANCH  33  34
ATOM     34  C   UNL     1     112.142 125.576 137.796  0.00  0.00    +0.000 C 
BRANCH  34  36
ATOM     35  O   UNL     1     115.267 124.681 137.226  0.00  0.00    +0.000 OA
ATOM     36  C   UNL     1     112.923 125.352 137.653  0.00  0.00    +0.000 A 
ATOM     37  C   UNL     1     113.091 124.785 137.078  0.00  0.00    +0.000 A 
ATOM     38  C   UNL     1     113.536 125.696 138.086  0.00  0.00    +0.000 A 
ATOM     39  C   UNL     1     113.872 124.561 136.936  0.00  0.00    +0.000 A 
ATOM     40  C   UNL     1     114.317 125.471 137.943  0.00  0.00    +0.000 A 
ATOM     41  C   UNL     1     114.485 124.904 137.368  0.00  0.00    +0.000 A 
ENDBRANCH  34  36
ENDBRANCH  33  34
ENDBRANCH  32  33
ENDBRANCH  30  32
ENDBRANCH  22  25
ENDBRANCH   7  22
TORSDOF 9
ENDMDL
MODEL 6
REMARK VINA RESULT:      -8.9      9.484     12.076
REMARK  Name = 9894584
REMARK  9 active torsions:
REMARK  status: ('A' for Active; 'I' for Inactive)
REMARK    1  A    between atoms: O_1  and  C_15
REMARK    2  A    between atoms: O_1  and  C_18
REMARK    3  A    between atoms: O_5  and  C_20
REMARK    4  A    between atoms: O_5  and  C_27
REMARK    5  A    between atoms: C_21  and  C_25
REMARK    6  A    between atoms: C_32  and  C_33
REMARK    7  A    between atoms: C_33  and  C_34
REMARK    8  A    between atoms: C_34  and  C_35
REMARK    9  A    between atoms: C_35  and  C_36
REMARK                            x       y       z     vdW  Elec       q    Type
REMARK                         _______ _______ _______ _____ _____    ______ ____
ROOT
ATOM      1  O   UNL     1     106.086 127.235 145.549  0.00  0.00    +0.000 OA
ATOM      2  O   UNL     1     106.765 124.861 145.720  0.00  0.00    +0.000 OA
ATOM      3  O   UNL     1     105.606 125.312 144.637  0.00  0.00    +0.000 OA
ATOM      4  C   UNL     1     106.892 126.218 146.149  0.00  0.00    +0.000 C 
ATOM      5  C   UNL     1     106.538 125.652 145.663  0.00  0.00    +0.000 C 
ATOM      6  C   UNL     1     105.959 125.877 145.122  0.00  0.00    +0.000 C 
ATOM      7  C   UNL     1     106.666 127.009 146.092  0.00  0.00    +0.000 C 
ATOM      8  C   UNL     1     105.733 126.668 145.065  0.00  0.00    +0.000 C 
ENDROOT
BRANCH   8  10
ATOM      9  O   UNL     1     105.364 127.321 143.848  0.00  0.00    +0.000 OA
ATOM     10  C   UNL     1     105.154 126.894 144.523  0.00  0.00    +0.000 C 
ENDBRANCH   8  10
BRANCH   4  11
ATOM     11  O   UNL     1     107.471 125.993 146.691  0.00  0.00    +0.000 OA
BRANCH  11  16
ATOM     12  O   UNL     1     106.482 125.735 147.688  0.00  0.00    +0.000 OA
ATOM     13  O   UNL     1     108.581 125.153 147.576  0.00  0.00    +0.000 OA
ATOM     14  O   UNL     1     108.146 124.475 149.016  0.00  0.00    +0.000 OA
ATOM     15  O   UNL     1     106.601 124.637 149.571  0.00  0.00    +0.000 OA
ATOM     16  C   UNL     1     107.254 125.654 147.411  0.00  0.00    +0.000 C 
ATOM     17  C   UNL     1     107.809 125.234 147.853  0.00  0.00    +0.000 C 
ATOM     18  C   UNL     1     107.592 124.895 148.574  0.00  0.00    +0.000 C 
ATOM     19  C   UNL     1     106.819 124.976 148.851  0.00  0.00    +0.000 C 
ATOM     20  C   UNL     1     106.263 125.397 148.408  0.00  0.00    +0.000 C 
ATOM     21  C   UNL     1     105.491 125.478 148.685  0.00  0.00    +0.000 C 
ENDBRANCH  11  16
ENDBRANCH   4  11
BRANCH   7  22
ATOM     22  O   UNL     1     107.019 127.576 146.577  0.00  0.00    +0.000 OA
BRANCH  22  25
ATOM     23  O   UNL     1     106.487 130.360 146.214  0.00  0.00    +0.000 OA
ATOM     24  O   UNL     1     108.835 129.194 145.077  0.00  0.00    +0.000 OA
ATOM     25  C   UNL     1     107.233 128.310 146.266  0.00  0.00    +0.000 A 
ATOM     26  C   UNL     1     107.927 128.385 145.827  0.00  0.00    +0.000 A 
ATOM     27  C   UNL     1     106.752 128.968 146.396  0.00  0.00    +0.000 A 
ATOM     28  C   UNL     1     106.967 129.702 146.085  0.00  0.00    +0.000 A 
ATOM     29  C   UNL     1     108.141 129.118 145.517  0.00  0.00    +0.000 A 
ATOM     30  C   UNL     1     107.661 129.777 145.645  0.00  0.00    +0.000 A 
BRANCH  30  32
ATOM     31  O   UNL     1     107.593 130.744 144.596  0.00  0.00    +0.000 OA
ATOM     32  C   UNL     1     107.875 130.511 145.335  0.00  0.00    +0.000 C 
BRANCH  32  33
ATOM     33  C   UNL     1     108.372 131.011 145.765  0.00  0.00    +0.000 C 
BRANCH  33  34
ATOM     34  C   UNL     1     108.571 131.752 145.463  0.00  0.00    +0.000 C 
BRANCH  34  36
ATOM     35  O   UNL     1     110.611 133.728 147.144  0.00  0.00    +0.000 OA
ATOM     36  C   UNL     1     109.080 132.246 145.883  0.00  0.00    +0.000 A 
ATOM     37  C   UNL     1     108.779 132.760 146.454  0.00  0.00    +0.000 A 
ATOM     38  C   UNL     1     109.892 132.226 145.732  0.00  0.00    +0.000 A 
ATOM     39  C   UNL     1     109.290 133.254 146.874  0.00  0.00    +0.000 A 
ATOM     40  C   UNL     1     110.401 132.720 146.153  0.00  0.00    +0.000 A 
ATOM     41  C   UNL     1     110.100 133.234 146.724  0.00  0.00    +0.000 A 
ENDBRANCH  34  36
ENDBRANCH  33  34
ENDBRANCH  32  33
ENDBRANCH  30  32
ENDBRANCH  22  25
ENDBRANCH   7  22
TORSDOF 9
ENDMDL
MODEL 7
REMARK VINA RESULT:      -8.8      7.064     10.088
REMARK  Name = 9894584
REMARK  9 active torsions:
REMARK  status: ('A' for Active; 'I' for Inactive)
REMARK    1  A    between atoms: O_1  and  C_15
REMARK    2  A    between atoms: O_1  and  C_18
REMARK    3  A    between atoms: O_5  and  C_20
REMARK    4  A    between atoms: O_5  and  C_27
REMARK    5  A    between atoms: C_21  and  C_25
REMARK    6  A    between atoms: C_32  and  C_33
REMARK    7  A    between atoms: C_33  and  C_34
REMARK    8  A    between atoms: C_34  and  C_35
REMARK    9  A    between atoms: C_35  and  C_36
REMARK                            x       y       z     vdW  Elec       q    Type
REMARK                         _______ _______ _______ _____ _____    ______ ____
ROOT
ATOM      1  O   UNL     1     106.387 128.541 143.004  0.00  0.00    +0.000 OA
ATOM      2  O   UNL     1     107.641 126.415 142.820  0.00  0.00    +0.000 OA
ATOM      3  O   UNL     1     108.439 127.855 142.721  0.00  0.00    +0.000 OA
ATOM      4  C   UNL     1     106.405 127.111 142.993  0.00  0.00    +0.000 C 
ATOM      5  C   UNL     1     107.223 127.123 142.882  0.00  0.00    +0.000 C 
ATOM      6  C   UNL     1     107.622 127.843 142.832  0.00  0.00    +0.000 C 
ATOM      7  C   UNL     1     105.987 127.820 143.054  0.00  0.00    +0.000 C 
ATOM      8  C   UNL     1     107.204 128.551 142.893  0.00  0.00    +0.000 C 
ENDROOT
BRANCH   8  10
ATOM      9  O   UNL     1     107.516 129.833 143.443  0.00  0.00    +0.000 OA
ATOM     10  C   UNL     1     107.603 129.272 142.844  0.00  0.00    +0.000 C 
ENDBRANCH   8  10
BRANCH   4  11
ATOM     11  O   UNL     1     106.006 126.391 143.042  0.00  0.00    +0.000 OA
BRANCH  11  16
ATOM     12  O   UNL     1     106.214 126.349 144.455  0.00  0.00    +0.000 OA
ATOM     13  O   UNL     1     105.538 124.809 143.065  0.00  0.00    +0.000 OA
ATOM     14  O   UNL     1     105.512 123.976 144.489  0.00  0.00    +0.000 OA
ATOM     15  O   UNL     1     105.955 124.725 145.891  0.00  0.00    +0.000 OA
ATOM     16  C   UNL     1     105.993 125.974 143.754  0.00  0.00    +0.000 C 
ATOM     17  C   UNL     1     105.759 125.184 143.766  0.00  0.00    +0.000 C 
ATOM     18  C   UNL     1     105.746 124.767 144.477  0.00  0.00    +0.000 C 
ATOM     19  C   UNL     1     105.967 125.141 145.178  0.00  0.00    +0.000 C 
ATOM     20  C   UNL     1     106.202 125.933 145.168  0.00  0.00    +0.000 C 
ATOM     21  C   UNL     1     106.423 126.308 145.869  0.00  0.00    +0.000 C 
ENDBRANCH  11  16
ENDBRANCH   4  11
BRANCH   7  22
ATOM     22  O   UNL     1     105.170 127.809 143.165  0.00  0.00    +0.000 OA
BRANCH  22  25
ATOM     23  O   UNL     1     103.551 130.159 143.315  0.00  0.00    +0.000 OA
ATOM     24  O   UNL     1     103.941 128.849 140.804  0.00  0.00    +0.000 OA
ATOM     25  C   UNL     1     104.695 128.374 142.797  0.00  0.00    +0.000 A 
ATOM     26  C   UNL     1     104.556 128.329 141.986  0.00  0.00    +0.000 A 
ATOM     27  C   UNL     1     104.361 128.984 143.241  0.00  0.00    +0.000 A 
ATOM     28  C   UNL     1     103.886 129.549 142.872  0.00  0.00    +0.000 A 
ATOM     29  C   UNL     1     104.081 128.894 141.617  0.00  0.00    +0.000 A 
ATOM     30  C   UNL     1     103.746 129.504 142.060  0.00  0.00    +0.000 A 
BRANCH  30  32
ATOM     31  O   UNL     1     102.475 129.910 141.551  0.00  0.00    +0.000 OA
ATOM     32  C   UNL     1     103.271 130.069 141.691  0.00  0.00    +0.000 C 
BRANCH  32  33
ATOM     33  C   UNL     1     103.595 130.794 141.463  0.00  0.00    +0.000 C 
BRANCH  33  34
ATOM     34  C   UNL     1     103.123 131.353 141.082  0.00  0.00    +0.000 C 
BRANCH  34  36
ATOM     35  O   UNL     1     104.375 134.302 140.287  0.00  0.00    +0.000 OA
ATOM     36  C   UNL     1     103.436 132.090 140.883  0.00  0.00    +0.000 A 
ATOM     37  C   UNL     1     103.897 132.173 140.203  0.00  0.00    +0.000 A 
ATOM     38  C   UNL     1     103.288 132.745 141.364  0.00  0.00    +0.000 A 
ATOM     39  C   UNL     1     104.210 132.910 140.005  0.00  0.00    +0.000 A 
ATOM     40  C   UNL     1     103.601 133.481 141.164  0.00  0.00    +0.000 A 
ATOM     41  C   UNL     1     104.062 133.564 140.485  0.00  0.00    +0.000 A 
ENDBRANCH  34  36
ENDBRANCH  33  34
ENDBRANCH  32  33
ENDBRANCH  30  32
ENDBRANCH  22  25
ENDBRANCH   7  22
TORSDOF 9
ENDMDL
MODEL 8
REMARK VINA RESULT:      -8.7      5.280      6.898
REMARK  Name = 9894584
REMARK  9 active torsions:
REMARK  status: ('A' for Active; 'I' for Inactive)
REMARK    1  A    between atoms: O_1  and  C_15
REMARK    2  A    between atoms: O_1  and  C_18
REMARK    3  A    between atoms: O_5  and  C_20
REMARK    4  A    between atoms: O_5  and  C_27
REMARK    5  A    between atoms: C_21  and  C_25
REMARK    6  A    between atoms: C_32  and  C_33
REMARK    7  A    between atoms: C_33  and  C_34
REMARK    8  A    between atoms: C_34  and  C_35
REMARK    9  A    between atoms: C_35  and  C_36
REMARK                            x       y       z     vdW  Elec       q    Type
REMARK                         _______ _______ _______ _____ _____    ______ ____
ROOT
ATOM      1  O   UNL     1     107.130 126.075 141.799  0.00  0.00    +0.000 OA
ATOM      2  O   UNL     1     105.423 124.356 142.308  0.00  0.00    +0.000 OA
ATOM      3  O   UNL     1     105.602 125.660 143.301  0.00  0.00    +0.000 OA
ATOM      4  C   UNL     1     106.471 124.849 141.471  0.00  0.00    +0.000 C 
ATOM      5  C   UNL     1     105.992 124.929 142.138  0.00  0.00    +0.000 C 
ATOM      6  C   UNL     1     106.081 125.581 142.635  0.00  0.00    +0.000 C 
ATOM      7  C   UNL     1     107.040 125.422 141.301  0.00  0.00    +0.000 C 
ATOM      8  C   UNL     1     106.650 126.154 142.465  0.00  0.00    +0.000 C 
ENDROOT
BRANCH   8  10
ATOM      9  O   UNL     1     107.401 126.862 143.453  0.00  0.00    +0.000 OA
ATOM     10  C   UNL     1     106.740 126.806 142.962  0.00  0.00    +0.000 C 
ENDBRANCH   8  10
BRANCH   4  11
ATOM     11  O   UNL     1     106.382 124.197 140.974  0.00  0.00    +0.000 OA
BRANCH  11  16
ATOM     12  O   UNL     1     105.391 124.897 140.219  0.00  0.00    +0.000 OA
ATOM     13  O   UNL     1     106.045 122.817 140.135  0.00  0.00    +0.000 OA
ATOM     14  O   UNL     1     104.886 122.827 138.961  0.00  0.00    +0.000 OA
ATOM     15  O   UNL     1     104.063 124.217 138.626  0.00  0.00    +0.000 OA
ATOM     16  C   UNL     1     105.802 124.202 140.387  0.00  0.00    +0.000 C 
ATOM     17  C   UNL     1     105.634 123.512 139.968  0.00  0.00    +0.000 C 
ATOM     18  C   UNL     1     105.054 123.516 139.380  0.00  0.00    +0.000 C 
ATOM     19  C   UNL     1     104.643 124.211 139.213  0.00  0.00    +0.000 C 
ATOM     20  C   UNL     1     104.811 124.902 139.632  0.00  0.00    +0.000 C 
ATOM     21  C   UNL     1     104.400 125.598 139.465  0.00  0.00    +0.000 C 
ENDBRANCH  11  16
ENDBRANCH   4  11
BRANCH   7  22
ATOM     22  O   UNL     1     107.519 125.343 140.635  0.00  0.00    +0.000 OA
BRANCH  22  25
ATOM     23  O   UNL     1     109.179 127.488 139.732  0.00  0.00    +0.000 OA
ATOM     24  O   UNL     1     110.276 125.429 141.383  0.00  0.00    +0.000 OA
ATOM     25  C   UNL     1     108.255 125.715 140.609  0.00  0.00    +0.000 A 
ATOM     26  C   UNL     1     108.897 125.386 141.009  0.00  0.00    +0.000 A 
ATOM     27  C   UNL     1     108.348 126.416 140.183  0.00  0.00    +0.000 A 
ATOM     28  C   UNL     1     109.084 126.787 140.158  0.00  0.00    +0.000 A 
ATOM     29  C   UNL     1     109.633 125.758 140.983  0.00  0.00    +0.000 A 
ATOM     30  C   UNL     1     109.727 126.459 140.558  0.00  0.00    +0.000 A 
BRANCH  30  32
ATOM     31  O   UNL     1     110.627 127.455 141.044  0.00  0.00    +0.000 OA
ATOM     32  C   UNL     1     110.463 126.830 140.532  0.00  0.00    +0.000 C 
BRANCH  32  33
ATOM     33  C   UNL     1     111.035 126.576 139.994  0.00  0.00    +0.000 C 
BRANCH  33  34
ATOM     34  C   UNL     1     111.723 127.018 139.884  0.00  0.00    +0.000 C 
BRANCH  34  36
ATOM     35  O   UNL     1     114.210 125.785 138.100  0.00  0.00    +0.000 OA
ATOM     36  C   UNL     1     112.345 126.710 139.439  0.00  0.00    +0.000 A 
ATOM     37  C   UNL     1     113.102 126.662 139.763  0.00  0.00    +0.000 A 
ATOM     38  C   UNL     1     112.210 126.449 138.667  0.00  0.00    +0.000 A 
ATOM     39  C   UNL     1     113.723 126.354 139.317  0.00  0.00    +0.000 A 
ATOM     40  C   UNL     1     112.832 126.141 138.222  0.00  0.00    +0.000 A 
ATOM     41  C   UNL     1     113.589 126.093 138.546  0.00  0.00    +0.000 A 
ENDBRANCH  34  36
ENDBRANCH  33  34
ENDBRANCH  32  33
ENDBRANCH  30  32
ENDBRANCH  22  25
ENDBRANCH   7  22
TORSDOF 9
ENDMDL
MODEL 9
REMARK VINA RESULT:      -8.6      4.448      6.180
REMARK  Name = 9894584
REMARK  9 active torsions:
REMARK  status: ('A' for Active; 'I' for Inactive)
REMARK    1  A    between atoms: O_1  and  C_15
REMARK    2  A    between atoms: O_1  and  C_18
REMARK    3  A    between atoms: O_5  and  C_20
REMARK    4  A    between atoms: O_5  and  C_27
REMARK    5  A    between atoms: C_21  and  C_25
REMARK    6  A    between atoms: C_32  and  C_33
REMARK    7  A    between atoms: C_33  and  C_34
REMARK    8  A    between atoms: C_34  and  C_35
REMARK    9  A    between atoms: C_35  and  C_36
REMARK                            x       y       z     vdW  Elec       q    Type
REMARK                         _______ _______ _______ _____ _____    ______ ____
ROOT
ATOM      1  O   UNL     1     108.265 127.198 140.965  0.00  0.00    +0.000 OA
ATOM      2  O   UNL     1     107.024 125.851 142.630  0.00  0.00    +0.000 OA
ATOM      3  O   UNL     1     107.133 127.487 142.808  0.00  0.00    +0.000 OA
ATOM      4  C   UNL     1     107.797 125.930 141.431  0.00  0.00    +0.000 C 
ATOM      5  C   UNL     1     107.438 126.300 142.075  0.00  0.00    +0.000 C 
ATOM      6  C   UNL     1     107.492 127.117 142.165  0.00  0.00    +0.000 C 
ATOM      7  C   UNL     1     108.211 126.379 140.876  0.00  0.00    +0.000 C 
ATOM      8  C   UNL     1     107.906 127.567 141.610  0.00  0.00    +0.000 C 
ENDROOT
BRANCH   8  10
ATOM      9  O   UNL     1     107.713 128.883 141.089  0.00  0.00    +0.000 OA
ATOM     10  C   UNL     1     107.960 128.385 141.699  0.00  0.00    +0.000 C 
ENDBRANCH   8  10
BRANCH   4  11
ATOM     11  O   UNL     1     107.743 125.112 141.341  0.00  0.00    +0.000 OA
BRANCH  11  16
ATOM     12  O   UNL     1     106.500 125.265 140.653  0.00  0.00    +0.000 OA
ATOM     13  O   UNL     1     107.564 123.473 141.298  0.00  0.00    +0.000 OA
ATOM     14  O   UNL     1     106.231 122.806 140.588  0.00  0.00    +0.000 OA
ATOM     15  O   UNL     1     105.078 123.780 139.922  0.00  0.00    +0.000 OA
ATOM     16  C   UNL     1     107.077 124.779 140.986  0.00  0.00    +0.000 C 
ATOM     17  C   UNL     1     106.987 123.959 140.965  0.00  0.00    +0.000 C 
ATOM     18  C   UNL     1     106.321 123.626 140.610  0.00  0.00    +0.000 C 
ATOM     19  C   UNL     1     105.744 124.112 140.277  0.00  0.00    +0.000 C 
ATOM     20  C   UNL     1     105.834 124.933 140.298  0.00  0.00    +0.000 C 
ATOM     21  C   UNL     1     105.257 125.420 139.965  0.00  0.00    +0.000 C 
ENDBRANCH  11  16
ENDBRANCH   4  11
BRANCH   7  22
ATOM     22  O   UNL     1     108.570 126.011 140.231  0.00  0.00    +0.000 OA
BRANCH  22  25
ATOM     23  O   UNL     1     111.397 126.155 140.625  0.00  0.00    +0.000 OA
ATOM     24  O   UNL     1     110.214 127.346 138.313  0.00  0.00    +0.000 OA
ATOM     25  C   UNL     1     109.315 126.257 139.977  0.00  0.00    +0.000 A 
ATOM     26  C   UNL     1     109.392 126.678 139.273  0.00  0.00    +0.000 A 
ATOM     27  C   UNL     1     109.984 126.082 140.429  0.00  0.00    +0.000 A 
ATOM     28  C   UNL     1     110.729 126.329 140.175  0.00  0.00    +0.000 A 
ATOM     29  C   UNL     1     110.137 126.925 139.019  0.00  0.00    +0.000 A 
ATOM     30  C   UNL     1     110.806 126.751 139.469  0.00  0.00    +0.000 A 
BRANCH  30  32
ATOM     31  O   UNL     1     111.818 127.755 139.398  0.00  0.00    +0.000 OA
ATOM     32  C   UNL     1     111.551 126.997 139.215  0.00  0.00    +0.000 C 
BRANCH  32  33
ATOM     33  C   UNL     1     112.027 126.485 138.778  0.00  0.00    +0.000 C 
BRANCH  33  34
ATOM     34  C   UNL     1     112.729 126.760 138.443  0.00  0.00    +0.000 C 
BRANCH  34  36
ATOM     35  O   UNL     1     114.750 124.667 136.885  0.00  0.00    +0.000 OA
ATOM     36  C   UNL     1     113.234 126.237 138.053  0.00  0.00    +0.000 A 
ATOM     37  C   UNL     1     113.072 126.007 137.278  0.00  0.00    +0.000 A 
ATOM     38  C   UNL     1     113.902 125.944 138.440  0.00  0.00    +0.000 A 
ATOM     39  C   UNL     1     113.577 125.484 136.889  0.00  0.00    +0.000 A 
ATOM     40  C   UNL     1     114.407 125.421 138.050  0.00  0.00    +0.000 A 
ATOM     41  C   UNL     1     114.244 125.191 137.274  0.00  0.00    +0.000 A 
ENDBRANCH  34  36
ENDBRANCH  33  34
ENDBRANCH  32  33
ENDBRANCH  30  32
ENDBRANCH  22  25
ENDBRANCH   7  22
TORSDOF 9
ENDMDL
MODEL 10
REMARK VINA RESULT:      -8.5      3.431      5.681
REMARK  Name = 9894584
REMARK  9 active torsions:
REMARK  status: ('A' for Active; 'I' for Inactive)
REMARK    1  A    between atoms: O_1  and  C_15
REMARK    2  A    between atoms: O_1  and  C_18
REMARK    3  A    between atoms: O_5  and  C_20
REMARK    4  A    between atoms: O_5  and  C_27
REMARK    5  A    between atoms: C_21  and  C_25
REMARK    6  A    between atoms: C_32  and  C_33
REMARK    7  A    between atoms: C_33  and  C_34
REMARK    8  A    between atoms: C_34  and  C_35
REMARK    9  A    between atoms: C_35  and  C_36
REMARK                            x       y       z     vdW  Elec       q    Type
REMARK                         _______ _______ _______ _____ _____    ______ ____
ROOT
ATOM      1  O   UNL     1     110.552 129.393 140.536  0.00  0.00    +0.000 OA
ATOM      2  O   UNL     1     110.616 131.826 140.985  0.00  0.00    +0.000 OA
ATOM      3  O   UNL     1     109.373 131.181 140.114  0.00  0.00    +0.000 OA
ATOM      4  C   UNL     1     111.195 130.528 141.122  0.00  0.00    +0.000 C 
ATOM      5  C   UNL     1     110.594 131.015 140.835  0.00  0.00    +0.000 C 
ATOM      6  C   UNL     1     109.973 130.693 140.400  0.00  0.00    +0.000 C 
ATOM      7  C   UNL     1     111.174 129.717 140.972  0.00  0.00    +0.000 C 
ATOM      8  C   UNL     1     109.952 129.882 140.250  0.00  0.00    +0.000 C 
ENDROOT
BRANCH   8  10
ATOM      9  O   UNL     1     108.877 128.947 140.135  0.00  0.00    +0.000 OA
ATOM     10  C   UNL     1     109.330 129.558 139.815  0.00  0.00    +0.000 C 
ENDBRANCH   8  10
BRANCH   4  11
ATOM     11  O   UNL     1     111.817 130.850 141.557  0.00  0.00    +0.000 OA
BRANCH  11  16
ATOM     12  O   UNL     1     111.092 130.674 142.776  0.00  0.00    +0.000 OA
ATOM     13  O   UNL     1     112.867 131.862 142.329  0.00  0.00    +0.000 OA
ATOM     14  O   UNL     1     112.667 132.191 143.933  0.00  0.00    +0.000 OA
ATOM     15  O   UNL     1     111.417 131.509 144.766  0.00  0.00    +0.000 OA
ATOM     16  C   UNL     1     111.717 131.015 142.360  0.00  0.00    +0.000 C 
ATOM     17  C   UNL     1     112.242 131.521 142.745  0.00  0.00    +0.000 C 
ATOM     18  C   UNL     1     112.142 131.686 143.548  0.00  0.00    +0.000 C 
ATOM     19  C   UNL     1     111.517 131.345 143.964  0.00  0.00    +0.000 C 
ATOM     20  C   UNL     1     110.992 130.838 143.578  0.00  0.00    +0.000 C 
ATOM     21  C   UNL     1     110.367 130.497 143.994  0.00  0.00    +0.000 C 
ENDBRANCH  11  16
ENDBRANCH   4  11
BRANCH   7  22
ATOM     22  O   UNL     1     111.774 129.228 141.258  0.00  0.00    +0.000 OA
BRANCH  22  25
ATOM     23  O   UNL     1     111.960 126.434 140.685  0.00  0.00    +0.000 OA
ATOM     24  O   UNL     1     113.320 128.326 139.029  0.00  0.00    +0.000 OA
ATOM     25  C   UNL     1     112.063 128.612 140.791  0.00  0.00    +0.000 A 
ATOM     26  C   UNL     1     112.546 128.777 140.144  0.00  0.00    +0.000 A 
ATOM     27  C   UNL     1     111.867 127.831 140.972  0.00  0.00    +0.000 A 
ATOM     28  C   UNL     1     112.155 127.215 140.505  0.00  0.00    +0.000 A 
ATOM     29  C   UNL     1     112.835 128.161 139.677  0.00  0.00    +0.000 A 
ATOM     30  C   UNL     1     112.640 127.380 139.857  0.00  0.00    +0.000 A 
BRANCH  30  32
ATOM     31  O   UNL     1     113.659 126.424 139.563  0.00  0.00    +0.000 OA
ATOM     32  C   UNL     1     112.929 126.765 139.390  0.00  0.00    +0.000 C 
BRANCH  32  33
ATOM     33  C   UNL     1     112.486 126.490 138.750  0.00  0.00    +0.000 C 
BRANCH  33  34
ATOM     34  C   UNL     1     112.790 125.899 138.262  0.00  0.00    +0.000 C 
BRANCH  34  36
ATOM     35  O   UNL     1     111.026 124.804 135.697  0.00  0.00    +0.000 OA
ATOM     36  C   UNL     1     112.349 125.626 137.620  0.00  0.00    +0.000 A 
ATOM     37  C   UNL     1     112.417 125.994 136.885  0.00  0.00    +0.000 A 
ATOM     38  C   UNL     1     111.840 124.982 137.714  0.00  0.00    +0.000 A 
ATOM     39  C   UNL     1     111.976 125.720 136.244  0.00  0.00    +0.000 A 
ATOM     40  C   UNL     1     111.399 124.709 137.073  0.00  0.00    +0.000 A 
ATOM     41  C   UNL     1     111.467 125.078 136.338  0.00  0.00    +0.000 A 
ENDBRANCH  34  36
ENDBRANCH  33  34
ENDBRANCH  32  33
ENDBRANCH  30  32
ENDBRANCH  22  25
ENDBRANCH   7  22
TORSDOF 9
ENDMDL
