MODEL 1
REMARK VINA RESULT:      -9.9      0.000      0.000
REMARK  Name = 44259744
REMARK  4 active torsions:
REMARK  status: ('A' for Active; 'I' for Inactive)
REMARK    1  A    between atoms: O_2  and  C_16
REMARK    2  A    between atoms: O_2  and  C_18
REMARK    3  A    between atoms: O_8  and  C_29
REMARK    4  A    between atoms: C_21  and  C_24
REMARK                            x       y       z     vdW  Elec       q    Type
REMARK                         _______ _______ _______ _____ _____    ______ ____
ROOT
ATOM      1  C   UNL     1     113.086 128.225 140.789  0.00  0.00    +0.000 A 
ATOM      2  C   UNL     1     113.503 127.519 140.872  0.00  0.00    +0.000 A 
ATOM      3  C   UNL     1     112.640 128.363 140.109  0.00  0.00    +0.000 A 
ATOM      4  C   UNL     1     113.028 127.086 139.596  0.00  0.00    +0.000 A 
ATOM      5  C   UNL     1     113.474 126.949 140.276  0.00  0.00    +0.000 A 
ATOM      6  C   UNL     1     112.610 127.794 139.512  0.00  0.00    +0.000 A 
ENDROOT
BRANCH   4  12
ATOM      7  O   UNL     1     113.631 126.434 138.477  0.00  0.00    +0.000 OA
ATOM      8  O   UNL     1     111.703 126.113 139.449  0.00  0.00    +0.000 OA
ATOM      9  O   UNL     1     111.645 124.974 138.256  0.00  0.00    +0.000 OA
ATOM     10  O   UNL     1     113.521 124.121 136.047  0.00  0.00    +0.000 OA
ATOM     11  O   UNL     1     114.878 125.117 136.198  0.00  0.00    +0.000 OA
ATOM     12  C   UNL     1     112.999 126.517 139.000  0.00  0.00    +0.000 A 
ATOM     13  C   UNL     1     112.940 125.378 137.807  0.00  0.00    +0.000 A 
ATOM     14  C   UNL     1     113.602 125.865 137.881  0.00  0.00    +0.000 A 
ATOM     15  C   UNL     1     112.336 126.031 138.926  0.00  0.00    +0.000 A 
ATOM     16  C   UNL     1     112.307 125.461 138.330  0.00  0.00    +0.000 A 
ATOM     17  C   UNL     1     112.898 124.782 137.190  0.00  0.00    +0.000 A 
ATOM     18  C   UNL     1     114.267 125.788 137.342  0.00  0.00    +0.000 A 
ATOM     19  C   UNL     1     113.553 124.691 136.643  0.00  0.00    +0.000 A 
ATOM     20  C   UNL     1     114.243 125.197 136.719  0.00  0.00    +0.000 A 
BRANCH  17  21
ATOM     21  O   UNL     1     112.231 124.300 137.124  0.00  0.00    +0.000 OA
ATOM     22  C   UNL     1     111.726 124.381 136.477  0.00  0.00    +0.000 C 
ENDBRANCH  17  21
ENDBRANCH   4  12
BRANCH   1  23
ATOM     23  O   UNL     1     113.116 128.794 141.385  0.00  0.00    +0.000 OA
BRANCH  23  32
ATOM     24  O   UNL     1     114.264 129.453 140.847  0.00  0.00    +0.000 OA
ATOM     25  O   UNL     1     113.496 131.592 141.825  0.00  0.00    +0.000 OA
ATOM     26  O   UNL     1     114.900 131.538 140.961  0.00  0.00    +0.000 OA
ATOM     27  O   UNL     1     112.604 130.221 142.037  0.00  0.00    +0.000 OA
ATOM     28  C   UNL     1     113.752 130.879 141.499  0.00  0.00    +0.000 C 
ATOM     29  C   UNL     1     114.454 130.852 141.067  0.00  0.00    +0.000 C 
ATOM     30  C   UNL     1     113.306 130.194 141.605  0.00  0.00    +0.000 C 
ATOM     31  C   UNL     1     114.710 130.139 140.741  0.00  0.00    +0.000 C 
ATOM     32  C   UNL     1     113.562 129.481 141.279  0.00  0.00    +0.000 C 
ATOM     33  C   UNL     1     115.413 130.111 140.309  0.00  0.00    +0.000 C 
ENDBRANCH  23  32
ENDBRANCH   1  23
TORSDOF 4
ENDMDL
MODEL 2
REMARK VINA RESULT:      -9.7      4.280      5.165
REMARK  Name = 44259744
REMARK  4 active torsions:
REMARK  status: ('A' for Active; 'I' for Inactive)
REMARK    1  A    between atoms: O_2  and  C_16
REMARK    2  A    between atoms: O_2  and  C_18
REMARK    3  A    between atoms: O_8  and  C_29
REMARK    4  A    between atoms: C_21  and  C_24
REMARK                            x       y       z     vdW  Elec       q    Type
REMARK                         _______ _______ _______ _____ _____    ______ ____
ROOT
ATOM      1  C   UNL     1     109.259 128.840 135.434  0.00  0.00    +0.000 A 
ATOM      2  C   UNL     1     109.190 128.399 136.127  0.00  0.00    +0.000 A 
ATOM      3  C   UNL     1     109.836 128.647 134.876  0.00  0.00    +0.000 A 
ATOM      4  C   UNL     1     110.276 127.570 135.707  0.00  0.00    +0.000 A 
ATOM      5  C   UNL     1     109.699 127.764 136.264  0.00  0.00    +0.000 A 
ATOM      6  C   UNL     1     110.344 128.012 135.013  0.00  0.00    +0.000 A 
ENDROOT
BRANCH   4  12
ATOM      7  O   UNL     1     111.545 127.071 136.132  0.00  0.00    +0.000 OA
ATOM      8  O   UNL     1     109.771 126.029 135.404  0.00  0.00    +0.000 OA
ATOM      9  O   UNL     1     110.788 124.759 135.677  0.00  0.00    +0.000 OA
ATOM     10  O   UNL     1     113.621 124.493 136.692  0.00  0.00    +0.000 OA
ATOM     11  O   UNL     1     114.138 126.072 137.003  0.00  0.00    +0.000 OA
ATOM     12  C   UNL     1     110.784 126.935 135.844  0.00  0.00    +0.000 A 
ATOM     13  C   UNL     1     111.801 125.665 136.118  0.00  0.00    +0.000 A 
ATOM     14  C   UNL     1     112.053 126.436 136.269  0.00  0.00    +0.000 A 
ATOM     15  C   UNL     1     110.531 126.164 135.692  0.00  0.00    +0.000 A 
ATOM     16  C   UNL     1     111.040 125.529 135.829  0.00  0.00    +0.000 A 
ATOM     17  C   UNL     1     112.322 124.995 136.256  0.00  0.00    +0.000 A 
ATOM     18  C   UNL     1     112.844 126.589 136.570  0.00  0.00    +0.000 A 
ATOM     19  C   UNL     1     113.114 125.130 136.556  0.00  0.00    +0.000 A 
ATOM     20  C   UNL     1     113.378 125.932 136.714  0.00  0.00    +0.000 A 
BRANCH  17  21
ATOM     21  O   UNL     1     112.060 124.228 136.101  0.00  0.00    +0.000 OA
ATOM     22  C   UNL     1     111.955 123.695 136.723  0.00  0.00    +0.000 C 
ENDBRANCH  17  21
ENDBRANCH   4  12
BRANCH   1  23
ATOM     23  O   UNL     1     108.750 129.475 135.297  0.00  0.00    +0.000 OA
BRANCH  23  32
ATOM     24  O   UNL     1     109.605 130.465 135.873  0.00  0.00    +0.000 OA
ATOM     25  O   UNL     1     107.622 131.719 136.661  0.00  0.00    +0.000 OA
ATOM     26  O   UNL     1     109.138 132.291 136.974  0.00  0.00    +0.000 OA
ATOM     27  O   UNL     1     107.428 130.311 135.822  0.00  0.00    +0.000 OA
ATOM     28  C   UNL     1     108.283 131.301 136.398  0.00  0.00    +0.000 C 
ATOM     29  C   UNL     1     109.040 131.587 136.555  0.00  0.00    +0.000 C 
ATOM     30  C   UNL     1     108.186 130.598 135.979  0.00  0.00    +0.000 C 
ATOM     31  C   UNL     1     109.701 131.169 136.293  0.00  0.00    +0.000 C 
ATOM     32  C   UNL     1     108.847 130.180 135.717  0.00  0.00    +0.000 C 
ATOM     33  C   UNL     1     110.460 131.454 136.449  0.00  0.00    +0.000 C 
ENDBRANCH  23  32
ENDBRANCH   1  23
TORSDOF 4
ENDMDL
MODEL 3
REMARK VINA RESULT:      -9.5      4.304      5.238
REMARK  Name = 44259744
REMARK  4 active torsions:
REMARK  status: ('A' for Active; 'I' for Inactive)
REMARK    1  A    between atoms: O_2  and  C_16
REMARK    2  A    between atoms: O_2  and  C_18
REMARK    3  A    between atoms: O_8  and  C_29
REMARK    4  A    between atoms: C_21  and  C_24
REMARK                            x       y       z     vdW  Elec       q    Type
REMARK                         _______ _______ _______ _____ _____    ______ ____
ROOT
ATOM      1  C   UNL     1     109.411 128.893 135.504  0.00  0.00    +0.000 A 
ATOM      2  C   UNL     1     109.392 128.501 136.229  0.00  0.00    +0.000 A 
ATOM      3  C   UNL     1     109.995 128.711 134.950  0.00  0.00    +0.000 A 
ATOM      4  C   UNL     1     110.543 127.743 135.849  0.00  0.00    +0.000 A 
ATOM      5  C   UNL     1     109.958 127.926 136.401  0.00  0.00    +0.000 A 
ATOM      6  C   UNL     1     110.561 128.136 135.123  0.00  0.00    +0.000 A 
ENDROOT
BRANCH   4  12
ATOM      7  O   UNL     1     110.914 126.369 135.969  0.00  0.00    +0.000 OA
ATOM      8  O   UNL     1     112.066 128.193 136.297  0.00  0.00    +0.000 OA
ATOM      9  O   UNL     1     113.198 127.043 136.642  0.00  0.00    +0.000 OA
ATOM     10  O   UNL     1     113.210 124.023 136.669  0.00  0.00    +0.000 OA
ATOM     11  O   UNL     1     111.650 123.562 136.209  0.00  0.00    +0.000 OA
ATOM     12  C   UNL     1     111.109 127.168 136.021  0.00  0.00    +0.000 A 
ATOM     13  C   UNL     1     112.241 126.018 136.366  0.00  0.00    +0.000 A 
ATOM     14  C   UNL     1     111.480 125.794 136.142  0.00  0.00    +0.000 A 
ATOM     15  C   UNL     1     111.870 127.394 136.245  0.00  0.00    +0.000 A 
ATOM     16  C   UNL     1     112.436 126.819 136.418  0.00  0.00    +0.000 A 
ATOM     17  C   UNL     1     112.839 125.429 136.548  0.00  0.00    +0.000 A 
ATOM     18  C   UNL     1     111.264 124.964 136.084  0.00  0.00    +0.000 A 
ATOM     19  C   UNL     1     112.642 124.595 136.496  0.00  0.00    +0.000 A 
ATOM     20  C   UNL     1     111.849 124.360 136.262  0.00  0.00    +0.000 A 
BRANCH  17  21
ATOM     21  O   UNL     1     113.598 125.664 136.772  0.00  0.00    +0.000 OA
ATOM     22  C   UNL     1     113.866 125.515 137.538  0.00  0.00    +0.000 C 
ENDBRANCH  17  21
ENDBRANCH   4  12
BRANCH   1  23
ATOM     23  O   UNL     1     108.845 129.468 135.331  0.00  0.00    +0.000 OA
BRANCH  23  32
ATOM     24  O   UNL     1     109.601 130.568 135.840  0.00  0.00    +0.000 OA
ATOM     25  O   UNL     1     107.508 131.669 136.570  0.00  0.00    +0.000 OA
ATOM     26  O   UNL     1     108.962 132.403 136.836  0.00  0.00    +0.000 OA
ATOM     27  O   UNL     1     107.450 130.202 135.818  0.00  0.00    +0.000 OA
ATOM     28  C   UNL     1     108.206 131.302 136.327  0.00  0.00    +0.000 C 
ATOM     29  C   UNL     1     108.932 131.669 136.460  0.00  0.00    +0.000 C 
ATOM     30  C   UNL     1     108.176 130.569 135.951  0.00  0.00    +0.000 C 
ATOM     31  C   UNL     1     109.630 131.302 136.217  0.00  0.00    +0.000 C 
ATOM     32  C   UNL     1     108.874 130.202 135.708  0.00  0.00    +0.000 C 
ATOM     33  C   UNL     1     110.357 131.669 136.350  0.00  0.00    +0.000 C 
ENDBRANCH  23  32
ENDBRANCH   1  23
TORSDOF 4
ENDMDL
MODEL 4
REMARK VINA RESULT:      -9.3      4.103      6.765
REMARK  Name = 44259744
REMARK  4 active torsions:
REMARK  status: ('A' for Active; 'I' for Inactive)
REMARK    1  A    between atoms: O_2  and  C_16
REMARK    2  A    between atoms: O_2  and  C_18
REMARK    3  A    between atoms: O_8  and  C_29
REMARK    4  A    between atoms: C_21  and  C_24
REMARK                            x       y       z     vdW  Elec       q    Type
REMARK                         _______ _______ _______ _____ _____    ______ ____
ROOT
ATOM      1  C   UNL     1     110.730 126.140 135.812  0.00  0.00    +0.000 A 
ATOM      2  C   UNL     1     110.366 126.335 136.526  0.00  0.00    +0.000 A 
ATOM      3  C   UNL     1     110.771 126.695 135.203  0.00  0.00    +0.000 A 
ATOM      4  C   UNL     1     110.084 127.643 136.023  0.00  0.00    +0.000 A 
ATOM      5  C   UNL     1     110.044 127.087 136.631  0.00  0.00    +0.000 A 
ATOM      6  C   UNL     1     110.448 127.447 135.309  0.00  0.00    +0.000 A 
ENDROOT
BRANCH   4  12
ATOM      7  O   UNL     1     110.246 129.024 136.353  0.00  0.00    +0.000 OA
ATOM      8  O   UNL     1     108.470 127.889 135.787  0.00  0.00    +0.000 OA
ATOM      9  O   UNL     1     107.825 129.393 135.998  0.00  0.00    +0.000 OA
ATOM     10  O   UNL     1     108.942 132.087 136.785  0.00  0.00    +0.000 OA
ATOM     11  O   UNL     1     110.596 131.835 137.027  0.00  0.00    +0.000 OA
ATOM     12  C   UNL     1     109.762 128.395 136.129  0.00  0.00    +0.000 A 
ATOM     13  C   UNL     1     109.116 129.899 136.340  0.00  0.00    +0.000 A 
ATOM     14  C   UNL     1     109.923 129.776 136.458  0.00  0.00    +0.000 A 
ATOM     15  C   UNL     1     108.954 128.517 136.011  0.00  0.00    +0.000 A 
ATOM     16  C   UNL     1     108.632 129.269 136.116  0.00  0.00    +0.000 A 
ATOM     17  C   UNL     1     108.769 130.677 136.447  0.00  0.00    +0.000 A 
ATOM     18  C   UNL     1     110.439 130.424 136.692  0.00  0.00    +0.000 A 
ATOM     19  C   UNL     1     109.268 131.336 136.680  0.00  0.00    +0.000 A 
ATOM     20  C   UNL     1     110.109 131.209 136.803  0.00  0.00    +0.000 A 
BRANCH  17  21
ATOM     21  O   UNL     1     107.960 130.791 136.327  0.00  0.00    +0.000 OA
ATOM     22  C   UNL     1     107.700 131.344 135.773  0.00  0.00    +0.000 C 
ENDBRANCH  17  21
ENDBRANCH   4  12
BRANCH   1  23
ATOM     23  O   UNL     1     111.052 125.388 135.706  0.00  0.00    +0.000 OA
BRANCH  23  32
ATOM     24  O   UNL     1     112.359 125.761 136.148  0.00  0.00    +0.000 OA
ATOM     25  O   UNL     1     112.732 123.463 136.988  0.00  0.00    +0.000 OA
ATOM     26  O   UNL     1     113.915 124.603 137.149  0.00  0.00    +0.000 OA
ATOM     27  O   UNL     1     111.301 123.856 136.267  0.00  0.00    +0.000 OA
ATOM     28  C   UNL     1     112.608 124.229 136.708  0.00  0.00    +0.000 C 
ATOM     29  C   UNL     1     113.199 124.798 136.788  0.00  0.00    +0.000 C 
ATOM     30  C   UNL     1     111.893 124.425 136.348  0.00  0.00    +0.000 C 
ATOM     31  C   UNL     1     113.074 125.564 136.508  0.00  0.00    +0.000 C 
ATOM     32  C   UNL     1     111.768 125.191 136.067  0.00  0.00    +0.000 C 
ATOM     33  C   UNL     1     113.666 126.135 136.589  0.00  0.00    +0.000 C 
ENDBRANCH  23  32
ENDBRANCH   1  23
TORSDOF 4
ENDMDL
MODEL 5
REMARK VINA RESULT:      -9.3      3.505      4.010
REMARK  Name = 44259744
REMARK  4 active torsions:
REMARK  status: ('A' for Active; 'I' for Inactive)
REMARK    1  A    between atoms: O_2  and  C_16
REMARK    2  A    between atoms: O_2  and  C_18
REMARK    3  A    between atoms: O_8  and  C_29
REMARK    4  A    between atoms: C_21  and  C_24
REMARK                            x       y       z     vdW  Elec       q    Type
REMARK                         _______ _______ _______ _____ _____    ______ ____
ROOT
ATOM      1  C   UNL     1     112.343 129.839 136.631  0.00  0.00    +0.000 A 
ATOM      2  C   UNL     1     112.185 129.404 137.313  0.00  0.00    +0.000 A 
ATOM      3  C   UNL     1     112.581 129.454 135.941  0.00  0.00    +0.000 A 
ATOM      4  C   UNL     1     112.505 128.197 136.618  0.00  0.00    +0.000 A 
ATOM      5  C   UNL     1     112.267 128.583 137.307  0.00  0.00    +0.000 A 
ATOM      6  C   UNL     1     112.663 128.633 135.934  0.00  0.00    +0.000 A 
ENDROOT
BRANCH   4  12
ATOM      7  O   UNL     1     113.286 127.029 136.877  0.00  0.00    +0.000 OA
ATOM      8  O   UNL     1     111.268 127.250 136.074  0.00  0.00    +0.000 OA
ATOM      9  O   UNL     1     111.431 125.608 136.061  0.00  0.00    +0.000 OA
ATOM     10  O   UNL     1     113.625 123.690 136.854  0.00  0.00    +0.000 OA
ATOM     11  O   UNL     1     114.893 124.660 137.411  0.00  0.00    +0.000 OA
ATOM     12  C   UNL     1     112.586 127.376 136.611  0.00  0.00    +0.000 A 
ATOM     13  C   UNL     1     112.749 125.734 136.599  0.00  0.00    +0.000 A 
ATOM     14  C   UNL     1     113.367 126.208 136.870  0.00  0.00    +0.000 A 
ATOM     15  C   UNL     1     111.967 126.903 136.339  0.00  0.00    +0.000 A 
ATOM     16  C   UNL     1     112.049 126.082 136.333  0.00  0.00    +0.000 A 
ATOM     17  C   UNL     1     112.822 124.878 136.587  0.00  0.00    +0.000 A 
ATOM     18  C   UNL     1     114.101 125.858 137.149  0.00  0.00    +0.000 A 
ATOM     19  C   UNL     1     113.547 124.511 136.862  0.00  0.00    +0.000 A 
ATOM     20  C   UNL     1     114.192 125.004 137.145  0.00  0.00    +0.000 A 
BRANCH  17  21
ATOM     21  O   UNL     1     112.197 124.413 136.313  0.00  0.00    +0.000 OA
ATOM     22  C   UNL     1     111.800 123.910 136.833  0.00  0.00    +0.000 C 
ENDBRANCH  17  21
ENDBRANCH   4  12
BRANCH   1  23
ATOM     23  O   UNL     1     112.261 130.660 136.637  0.00  0.00    +0.000 OA
BRANCH  23  32
ATOM     24  O   UNL     1     110.929 130.692 136.122  0.00  0.00    +0.000 OA
ATOM     25  O   UNL     1     110.418 132.639 137.562  0.00  0.00    +0.000 OA
ATOM     26  O   UNL     1     109.256 132.021 136.567  0.00  0.00    +0.000 OA
ATOM     27  O   UNL     1     111.921 131.958 137.597  0.00  0.00    +0.000 OA
ATOM     28  C   UNL     1     110.589 131.990 137.082  0.00  0.00    +0.000 C 
ATOM     29  C   UNL     1     110.008 131.681 136.585  0.00  0.00    +0.000 C 
ATOM     30  C   UNL     1     111.339 131.650 137.100  0.00  0.00    +0.000 C 
ATOM     31  C   UNL     1     110.178 131.032 136.105  0.00  0.00    +0.000 C 
ATOM     32  C   UNL     1     111.509 131.001 136.620  0.00  0.00    +0.000 C 
ATOM     33  C   UNL     1     109.596 130.723 135.607  0.00  0.00    +0.000 C 
ENDBRANCH  23  32
ENDBRANCH   1  23
TORSDOF 4
ENDMDL
MODEL 6
REMARK VINA RESULT:      -9.1      0.864      5.905
REMARK  Name = 44259744
REMARK  4 active torsions:
REMARK  status: ('A' for Active; 'I' for Inactive)
REMARK    1  A    between atoms: O_2  and  C_16
REMARK    2  A    between atoms: O_2  and  C_18
REMARK    3  A    between atoms: O_8  and  C_29
REMARK    4  A    between atoms: C_21  and  C_24
REMARK                            x       y       z     vdW  Elec       q    Type
REMARK                         _______ _______ _______ _____ _____    ______ ____
ROOT
ATOM      1  C   UNL     1     112.113 126.435 138.910  0.00  0.00    +0.000 A 
ATOM      2  C   UNL     1     112.444 126.399 139.664  0.00  0.00    +0.000 A 
ATOM      3  C   UNL     1     112.015 127.165 138.536  0.00  0.00    +0.000 A 
ATOM      4  C   UNL     1     112.580 127.822 139.673  0.00  0.00    +0.000 A 
ATOM      5  C   UNL     1     112.678 127.092 140.046  0.00  0.00    +0.000 A 
ATOM      6  C   UNL     1     112.249 127.858 138.918  0.00  0.00    +0.000 A 
ENDROOT
BRANCH   4  12
ATOM      7  O   UNL     1     113.597 128.766 140.010  0.00  0.00    +0.000 OA
ATOM      8  O   UNL     1     111.478 128.705 140.526  0.00  0.00    +0.000 OA
ATOM      9  O   UNL     1     111.944 130.091 141.290  0.00  0.00    +0.000 OA
ATOM     10  O   UNL     1     114.556 131.585 141.560  0.00  0.00    +0.000 OA
ATOM     11  O   UNL     1     115.685 130.680 140.687  0.00  0.00    +0.000 OA
ATOM     12  C   UNL     1     112.813 128.515 140.055  0.00  0.00    +0.000 A 
ATOM     13  C   UNL     1     113.280 129.901 140.818  0.00  0.00    +0.000 A 
ATOM     14  C   UNL     1     113.831 129.459 140.392  0.00  0.00    +0.000 A 
ATOM     15  C   UNL     1     112.262 128.956 140.481  0.00  0.00    +0.000 A 
ATOM     16  C   UNL     1     112.495 129.649 140.863  0.00  0.00    +0.000 A 
ATOM     17  C   UNL     1     113.511 130.624 141.220  0.00  0.00    +0.000 A 
ATOM     18  C   UNL     1     114.651 129.711 140.338  0.00  0.00    +0.000 A 
ATOM     19  C   UNL     1     114.325 130.892 141.178  0.00  0.00    +0.000 A 
ATOM     20  C   UNL     1     114.900 130.432 140.734  0.00  0.00    +0.000 A 
BRANCH  17  21
ATOM     21  O   UNL     1     112.952 131.060 141.645  0.00  0.00    +0.000 OA
ATOM     22  C   UNL     1     113.027 131.140 142.462  0.00  0.00    +0.000 C 
ENDBRANCH  17  21
ENDBRANCH   4  12
BRANCH   1  23
ATOM     23  O   UNL     1     111.880 125.742 138.528  0.00  0.00    +0.000 OA
BRANCH  23  32
ATOM     24  O   UNL     1     113.185 125.457 138.020  0.00  0.00    +0.000 OA
ATOM     25  O   UNL     1     112.177 124.295 136.082  0.00  0.00    +0.000 OA
ATOM     26  O   UNL     1     113.818 124.397 136.220  0.00  0.00    +0.000 OA
ATOM     27  O   UNL     1     111.208 124.967 137.236  0.00  0.00    +0.000 OA
ATOM     28  C   UNL     1     112.513 124.682 136.728  0.00  0.00    +0.000 C 
ATOM     29  C   UNL     1     113.333 124.733 136.797  0.00  0.00    +0.000 C 
ATOM     30  C   UNL     1     112.029 125.018 137.304  0.00  0.00    +0.000 C 
ATOM     31  C   UNL     1     113.669 125.121 137.443  0.00  0.00    +0.000 C 
ATOM     32  C   UNL     1     112.365 125.406 137.950  0.00  0.00    +0.000 C 
ATOM     33  C   UNL     1     114.490 125.172 137.512  0.00  0.00    +0.000 C 
ENDBRANCH  23  32
ENDBRANCH   1  23
TORSDOF 4
ENDMDL
MODEL 7
REMARK VINA RESULT:      -9.1      2.958      6.400
REMARK  Name = 44259744
REMARK  4 active torsions:
REMARK  status: ('A' for Active; 'I' for Inactive)
REMARK    1  A    between atoms: O_2  and  C_16
REMARK    2  A    between atoms: O_2  and  C_18
REMARK    3  A    between atoms: O_8  and  C_29
REMARK    4  A    between atoms: C_21  and  C_24
REMARK                            x       y       z     vdW  Elec       q    Type
REMARK                         _______ _______ _______ _____ _____    ______ ____
ROOT
ATOM      1  C   UNL     1     113.073 127.278 136.812  0.00  0.00    +0.000 A 
ATOM      2  C   UNL     1     113.075 127.464 137.615  0.00  0.00    +0.000 A 
ATOM      3  C   UNL     1     112.639 127.739 136.282  0.00  0.00    +0.000 A 
ATOM      4  C   UNL     1     112.209 128.573 137.361  0.00  0.00    +0.000 A 
ATOM      5  C   UNL     1     112.643 128.112 137.890  0.00  0.00    +0.000 A 
ATOM      6  C   UNL     1     112.208 128.386 136.557  0.00  0.00    +0.000 A 
ENDROOT
BRANCH   4  12
ATOM      7  O   UNL     1     111.019 129.111 137.939  0.00  0.00    +0.000 OA
ATOM      8  O   UNL     1     112.865 130.086 137.302  0.00  0.00    +0.000 OA
ATOM      9  O   UNL     1     112.001 131.381 137.851  0.00  0.00    +0.000 OA
ATOM     10  O   UNL     1     109.256 131.739 139.058  0.00  0.00    +0.000 OA
ATOM     11  O   UNL     1     108.584 130.189 139.119  0.00  0.00    +0.000 OA
ATOM     12  C   UNL     1     111.778 129.220 137.635  0.00  0.00    +0.000 A 
ATOM     13  C   UNL     1     110.915 130.515 138.184  0.00  0.00    +0.000 A 
ATOM     14  C   UNL     1     110.588 129.758 138.214  0.00  0.00    +0.000 A 
ATOM     15  C   UNL     1     112.106 129.977 137.606  0.00  0.00    +0.000 A 
ATOM     16  C   UNL     1     111.674 130.624 137.880  0.00  0.00    +0.000 A 
ATOM     17  C   UNL     1     110.475 131.197 138.467  0.00  0.00    +0.000 A 
ATOM     18  C   UNL     1     109.797 129.632 138.528  0.00  0.00    +0.000 A 
ATOM     19  C   UNL     1     109.685 131.090 138.784  0.00  0.00    +0.000 A 
ATOM     20  C   UNL     1     109.343 130.302 138.815  0.00  0.00    +0.000 A 
BRANCH  17  21
ATOM     21  O   UNL     1     110.811 131.950 138.433  0.00  0.00    +0.000 OA
ATOM     22  C   UNL     1     110.460 132.538 137.973  0.00  0.00    +0.000 C 
ENDBRANCH  17  21
ENDBRANCH   4  12
BRANCH   1  23
ATOM     23  O   UNL     1     113.504 126.631 136.538  0.00  0.00    +0.000 OA
BRANCH  23  32
ATOM     24  O   UNL     1     112.411 125.721 136.402  0.00  0.00    +0.000 OA
ATOM     25  O   UNL     1     113.838 123.880 137.237  0.00  0.00    +0.000 OA
ATOM     26  O   UNL     1     112.269 123.584 136.822  0.00  0.00    +0.000 OA
ATOM     27  O   UNL     1     114.456 125.403 137.095  0.00  0.00    +0.000 OA
ATOM     28  C   UNL     1     113.362 124.494 136.959  0.00  0.00    +0.000 C 
ATOM     29  C   UNL     1     112.578 124.346 136.751  0.00  0.00    +0.000 C 
ATOM     30  C   UNL     1     113.671 125.255 136.888  0.00  0.00    +0.000 C 
ATOM     31  C   UNL     1     112.102 124.959 136.473  0.00  0.00    +0.000 C 
ATOM     32  C   UNL     1     113.195 125.868 136.609  0.00  0.00    +0.000 C 
ATOM     33  C   UNL     1     111.317 124.811 136.265  0.00  0.00    +0.000 C 
ENDBRANCH  23  32
ENDBRANCH   1  23
TORSDOF 4
ENDMDL
