MODEL 1
REMARK VINA RESULT:      -9.9      0.000      0.000
REMARK  Name = 44257051
REMARK  3 active torsions:
REMARK  status: ('A' for Active; 'I' for Inactive)
REMARK    1  A    between atoms: O_3  and  C_18
REMARK    2  A    between atoms: O_5  and  C_27
REMARK    3  A    between atoms: C_11  and  C_20
REMARK                            x       y       z     vdW  Elec       q    Type
REMARK                         _______ _______ _______ _____ _____    ______ ____
ROOT
ATOM      1  O   UNL     1     104.922 128.667 142.947  0.00  0.00    +0.000 OA
ATOM      2  O   UNL     1     104.774 127.594 140.987  0.00  0.00    +0.000 OA
ATOM      3  O   UNL     1     100.712 132.848 142.277  0.00  0.00    +0.000 OA
ATOM      4  C   UNL     1     103.879 129.296 142.134  0.00  0.00    +0.000 A 
ATOM      5  C   UNL     1     103.296 129.872 142.038  0.00  0.00    +0.000 A 
ATOM      6  C   UNL     1     104.023 128.737 141.498  0.00  0.00    +0.000 C 
ATOM      7  C   UNL     1     104.629 128.135 141.593  0.00  0.00    +0.000 C 
ATOM      8  C   UNL     1     105.081 128.099 142.322  0.00  0.00    +0.000 C 
ATOM      9  C   UNL     1     102.851 129.897 141.304  0.00  0.00    +0.000 C 
ATOM     10  C   UNL     1     103.148 130.415 142.642  0.00  0.00    +0.000 A 
ATOM     11  C   UNL     1     104.313 129.263 142.835  0.00  0.00    +0.000 A 
ATOM     12  C   UNL     1     102.242 130.495 141.197  0.00  0.00    +0.000 C 
ATOM     13  C   UNL     1     102.544 131.019 142.553  0.00  0.00    +0.000 A 
ATOM     14  C   UNL     1     102.088 131.060 141.826  0.00  0.00    +0.000 A 
ATOM     15  C   UNL     1     103.583 130.381 143.342  0.00  0.00    +0.000 A 
ATOM     16  C   UNL     1     104.166 129.804 143.438  0.00  0.00    +0.000 A 
ATOM     17  C   UNL     1     102.398 131.599 143.219  0.00  0.00    +0.000 A 
ATOM     18  C   UNL     1     101.455 131.682 141.715  0.00  0.00    +0.000 A 
ATOM     19  C   UNL     1     101.294 132.271 142.371  0.00  0.00    +0.000 A 
ATOM     20  C   UNL     1     101.770 132.228 143.128  0.00  0.00    +0.000 A 
ENDROOT
BRANCH   8  22
ATOM     21  O   UNL     1     107.414 125.800 142.719  0.00  0.00    +0.000 OA
ATOM     22  C   UNL     1     105.665 127.524 142.421  0.00  0.00    +0.000 A 
ATOM     23  C   UNL     1     106.452 127.703 142.252  0.00  0.00    +0.000 A 
ATOM     24  C   UNL     1     105.461 126.772 142.689  0.00  0.00    +0.000 A 
ATOM     25  C   UNL     1     107.036 127.128 142.352  0.00  0.00    +0.000 A 
ATOM     26  C   UNL     1     106.044 126.197 142.788  0.00  0.00    +0.000 A 
ATOM     27  C   UNL     1     106.832 126.374 142.619  0.00  0.00    +0.000 A 
BRANCH  25  28
ATOM     28  O   UNL     1     107.823 127.306 142.183  0.00  0.00    +0.000 OA
ATOM     29  C   UNL     1     108.105 128.074 142.290  0.00  0.00    +0.000 C 
ENDBRANCH  25  28
ENDBRANCH   8  22
BRANCH  15  30
ATOM     30  O   UNL     1     103.435 130.923 143.946  0.00  0.00    +0.000 OA
ATOM     31  C   UNL     1     103.861 130.881 144.651  0.00  0.00    +0.000 C 
ENDBRANCH  15  30
TORSDOF 3
ENDMDL
MODEL 2
REMARK VINA RESULT:      -9.7      1.140      5.420
REMARK  Name = 44257051
REMARK  3 active torsions:
REMARK  status: ('A' for Active; 'I' for Inactive)
REMARK    1  A    between atoms: O_3  and  C_18
REMARK    2  A    between atoms: O_5  and  C_27
REMARK    3  A    between atoms: C_11  and  C_20
REMARK                            x       y       z     vdW  Elec       q    Type
REMARK                         _______ _______ _______ _____ _____    ______ ____
ROOT
ATOM      1  O   UNL     1     103.120 130.710 142.716  0.00  0.00    +0.000 OA
ATOM      2  O   UNL     1     102.366 130.497 140.617  0.00  0.00    +0.000 OA
ATOM      3  O   UNL     1     106.713 125.959 143.126  0.00  0.00    +0.000 OA
ATOM      4  C   UNL     1     103.716 129.517 142.112  0.00  0.00    +0.000 A 
ATOM      5  C   UNL     1     104.212 128.859 142.164  0.00  0.00    +0.000 A 
ATOM      6  C   UNL     1     103.294 129.664 141.379  0.00  0.00    +0.000 C 
ATOM      7  C   UNL     1     102.776 130.347 141.318  0.00  0.00    +0.000 C 
ATOM      8  C   UNL     1     102.688 130.874 141.991  0.00  0.00    +0.000 C 
ATOM      9  C   UNL     1     104.291 128.341 141.485  0.00  0.00    +0.000 C 
ATOM     10  C   UNL     1     104.623 128.707 142.864  0.00  0.00    +0.000 A 
ATOM     11  C   UNL     1     103.632 130.023 142.759  0.00  0.00    +0.000 A 
ATOM     12  C   UNL     1     104.806 127.653 141.533  0.00  0.00    +0.000 C 
ATOM     13  C   UNL     1     105.142 128.026 142.931  0.00  0.00    +0.000 A 
ATOM     14  C   UNL     1     105.234 127.496 142.261  0.00  0.00    +0.000 A 
ATOM     15  C   UNL     1     104.539 129.213 143.510  0.00  0.00    +0.000 A 
ATOM     16  C   UNL     1     104.043 129.871 143.457  0.00  0.00    +0.000 A 
ATOM     17  C   UNL     1     105.580 127.878 143.697  0.00  0.00    +0.000 A 
ATOM     18  C   UNL     1     105.770 126.781 142.312  0.00  0.00    +0.000 A 
ATOM     19  C   UNL     1     106.216 126.616 143.071  0.00  0.00    +0.000 A 
ATOM     20  C   UNL     1     106.120 127.169 143.768  0.00  0.00    +0.000 A 
ENDROOT
BRANCH   8  22
ATOM     21  O   UNL     1     100.710 133.507 141.791  0.00  0.00    +0.000 OA
ATOM     22  C   UNL     1     102.193 131.533 141.941  0.00  0.00    +0.000 A 
ATOM     23  C   UNL     1     102.500 132.261 141.701  0.00  0.00    +0.000 A 
ATOM     24  C   UNL     1     101.394 131.463 142.130  0.00  0.00    +0.000 A 
ATOM     25  C   UNL     1     102.005 132.919 141.651  0.00  0.00    +0.000 A 
ATOM     26  C   UNL     1     100.900 132.122 142.081  0.00  0.00    +0.000 A 
ATOM     27  C   UNL     1     101.205 132.850 141.841  0.00  0.00    +0.000 A 
BRANCH  25  28
ATOM     28  O   UNL     1     102.310 133.647 141.411  0.00  0.00    +0.000 OA
ATOM     29  C   UNL     1     103.060 133.882 141.661  0.00  0.00    +0.000 C 
ENDBRANCH  25  28
ENDBRANCH   8  22
BRANCH  15  30
ATOM     30  O   UNL     1     104.950 129.061 144.209  0.00  0.00    +0.000 OA
ATOM     31  C   UNL     1     104.832 129.542 144.869  0.00  0.00    +0.000 C 
ENDBRANCH  15  30
TORSDOF 3
ENDMDL
MODEL 3
REMARK VINA RESULT:      -9.6      1.009      2.094
REMARK  Name = 44257051
REMARK  3 active torsions:
REMARK  status: ('A' for Active; 'I' for Inactive)
REMARK    1  A    between atoms: O_3  and  C_18
REMARK    2  A    between atoms: O_5  and  C_27
REMARK    3  A    between atoms: C_11  and  C_20
REMARK                            x       y       z     vdW  Elec       q    Type
REMARK                         _______ _______ _______ _____ _____    ______ ____
ROOT
ATOM      1  O   UNL     1     104.858 127.910 141.567  0.00  0.00    +0.000 OA
ATOM      2  O   UNL     1     105.950 127.966 143.522  0.00  0.00    +0.000 OA
ATOM      3  O   UNL     1     100.964 132.375 142.308  0.00  0.00    +0.000 OA
ATOM      4  C   UNL     1     104.303 128.983 142.395  0.00  0.00    +0.000 A 
ATOM      5  C   UNL     1     103.767 129.601 142.501  0.00  0.00    +0.000 A 
ATOM      6  C   UNL     1     104.855 128.796 143.025  0.00  0.00    +0.000 C 
ATOM      7  C   UNL     1     105.416 128.154 142.921  0.00  0.00    +0.000 C 
ATOM      8  C   UNL     1     105.418 127.707 142.187  0.00  0.00    +0.000 C 
ATOM      9  C   UNL     1     103.775 130.039 143.240  0.00  0.00    +0.000 C 
ATOM     10  C   UNL     1     103.231 129.791 141.902  0.00  0.00    +0.000 A 
ATOM     11  C   UNL     1     104.304 128.555 141.689  0.00  0.00    +0.000 A 
ATOM     12  C   UNL     1     103.218 130.684 143.357  0.00  0.00    +0.000 C 
ATOM     13  C   UNL     1     102.668 130.432 142.001  0.00  0.00    +0.000 A 
ATOM     14  C   UNL     1     102.662 130.881 142.733  0.00  0.00    +0.000 A 
ATOM     15  C   UNL     1     103.233 129.362 141.197  0.00  0.00    +0.000 A 
ATOM     16  C   UNL     1     103.770 128.744 141.091  0.00  0.00    +0.000 A 
ATOM     17  C   UNL     1     102.095 130.622 141.340  0.00  0.00    +0.000 A 
ATOM     18  C   UNL     1     102.082 131.552 142.855  0.00  0.00    +0.000 A 
ATOM     19  C   UNL     1     101.501 131.758 142.205  0.00  0.00    +0.000 A 
ATOM     20  C   UNL     1     101.509 131.289 141.443  0.00  0.00    +0.000 A 
ENDROOT
BRANCH   8  22
ATOM     21  O   UNL     1     107.558 125.235 141.751  0.00  0.00    +0.000 OA
ATOM     22  C   UNL     1     105.954 127.089 142.078  0.00  0.00    +0.000 A 
ATOM     23  C   UNL     1     105.700 126.307 142.152  0.00  0.00    +0.000 A 
ATOM     24  C   UNL     1     106.740 127.253 141.894  0.00  0.00    +0.000 A 
ATOM     25  C   UNL     1     106.235 125.689 142.043  0.00  0.00    +0.000 A 
ATOM     26  C   UNL     1     107.276 126.634 141.785  0.00  0.00    +0.000 A 
ATOM     27  C   UNL     1     107.024 125.852 141.860  0.00  0.00    +0.000 A 
BRANCH  25  28
ATOM     28  O   UNL     1     105.983 124.907 142.117  0.00  0.00    +0.000 OA
ATOM     29  C   UNL     1     105.703 124.631 142.843  0.00  0.00    +0.000 C 
ENDBRANCH  25  28
ENDBRANCH   8  22
BRANCH  15  30
ATOM     30  O   UNL     1     102.698 129.552 140.598  0.00  0.00    +0.000 OA
ATOM     31  C   UNL     1     102.638 129.070 139.932  0.00  0.00    +0.000 C 
ENDBRANCH  15  30
TORSDOF 3
ENDMDL
MODEL 4
REMARK VINA RESULT:      -9.5      7.462     10.545
REMARK  Name = 44257051
REMARK  3 active torsions:
REMARK  status: ('A' for Active; 'I' for Inactive)
REMARK    1  A    between atoms: O_3  and  C_18
REMARK    2  A    between atoms: O_5  and  C_27
REMARK    3  A    between atoms: C_11  and  C_20
REMARK                            x       y       z     vdW  Elec       q    Type
REMARK                         _______ _______ _______ _____ _____    ______ ____
ROOT
ATOM      1  O   UNL     1     110.417 129.081 135.969  0.00  0.00    +0.000 OA
ATOM      2  O   UNL     1     108.302 128.497 135.520  0.00  0.00    +0.000 OA
ATOM      3  O   UNL     1     112.988 123.720 136.519  0.00  0.00    +0.000 OA
ATOM      4  C   UNL     1     110.318 127.620 135.949  0.00  0.00    +0.000 A 
ATOM      5  C   UNL     1     110.669 126.878 136.024  0.00  0.00    +0.000 A 
ATOM      6  C   UNL     1     109.479 127.670 135.771  0.00  0.00    +0.000 C 
ATOM      7  C   UNL     1     109.107 128.440 135.691  0.00  0.00    +0.000 C 
ATOM      8  C   UNL     1     109.579 129.151 135.791  0.00  0.00    +0.000 C 
ATOM      9  C   UNL     1     110.187 126.175 135.922  0.00  0.00    +0.000 C 
ATOM     10  C   UNL     1     111.475 126.817 136.195  0.00  0.00    +0.000 A 
ATOM     11  C   UNL     1     110.772 128.303 136.045  0.00  0.00    +0.000 A 
ATOM     12  C   UNL     1     110.547 125.398 136.000  0.00  0.00    +0.000 C 
ATOM     13  C   UNL     1     111.852 126.050 136.276  0.00  0.00    +0.000 A 
ATOM     14  C   UNL     1     111.385 125.335 136.177  0.00  0.00    +0.000 A 
ATOM     15  C   UNL     1     111.927 127.500 136.291  0.00  0.00    +0.000 A 
ATOM     16  C   UNL     1     111.576 128.243 136.215  0.00  0.00    +0.000 A 
ATOM     17  C   UNL     1     112.726 126.005 136.462  0.00  0.00    +0.000 A 
ATOM     18  C   UNL     1     111.760 124.527 136.258  0.00  0.00    +0.000 A 
ATOM     19  C   UNL     1     112.634 124.462 136.443  0.00  0.00    +0.000 A 
ATOM     20  C   UNL     1     113.120 125.206 136.546  0.00  0.00    +0.000 A 
ENDROOT
BRANCH   8  22
ATOM     21  O   UNL     1     108.184 132.126 135.493  0.00  0.00    +0.000 OA
ATOM     22  C   UNL     1     109.230 129.895 135.716  0.00  0.00    +0.000 A 
ATOM     23  C   UNL     1     108.879 130.253 136.372  0.00  0.00    +0.000 A 
ATOM     24  C   UNL     1     109.233 130.280 134.988  0.00  0.00    +0.000 A 
ATOM     25  C   UNL     1     108.530 130.997 136.297  0.00  0.00    +0.000 A 
ATOM     26  C   UNL     1     108.884 131.024 134.913  0.00  0.00    +0.000 A 
ATOM     27  C   UNL     1     108.532 131.383 135.568  0.00  0.00    +0.000 A 
BRANCH  25  28
ATOM     28  O   UNL     1     108.179 131.355 136.952  0.00  0.00    +0.000 OA
ATOM     29  C   UNL     1     108.606 131.443 137.653  0.00  0.00    +0.000 C 
ENDBRANCH  25  28
ENDBRANCH   8  22
BRANCH  15  30
ATOM     30  O   UNL     1     112.733 127.440 136.462  0.00  0.00    +0.000 OA
ATOM     31  C   UNL     1     113.190 128.122 136.538  0.00  0.00    +0.000 C 
ENDBRANCH  15  30
TORSDOF 3
ENDMDL
MODEL 5
REMARK VINA RESULT:      -9.4      7.636     11.233
REMARK  Name = 44257051
REMARK  3 active torsions:
REMARK  status: ('A' for Active; 'I' for Inactive)
REMARK    1  A    between atoms: O_3  and  C_18
REMARK    2  A    between atoms: O_5  and  C_27
REMARK    3  A    between atoms: C_11  and  C_20
REMARK                            x       y       z     vdW  Elec       q    Type
REMARK                         _______ _______ _______ _____ _____    ______ ____
ROOT
ATOM      1  O   UNL     1     110.582 128.159 135.733  0.00  0.00    +0.000 OA
ATOM      2  O   UNL     1     111.638 130.098 136.112  0.00  0.00    +0.000 OA
ATOM      3  O   UNL     1     114.825 124.237 137.238  0.00  0.00    +0.000 OA
ATOM      4  C   UNL     1     111.937 127.881 136.215  0.00  0.00    +0.000 A 
ATOM      5  C   UNL     1     112.525 127.342 136.424  0.00  0.00    +0.000 A 
ATOM      6  C   UNL     1     112.099 128.722 136.274  0.00  0.00    +0.000 C 
ATOM      7  C   UNL     1     111.491 129.288 136.058  0.00  0.00    +0.000 C 
ATOM      8  C   UNL     1     110.726 129.005 135.786  0.00  0.00    +0.000 C 
ATOM      9  C   UNL     1     113.285 127.637 136.695  0.00  0.00    +0.000 C 
ATOM     10  C   UNL     1     112.381 126.531 136.371  0.00  0.00    +0.000 A 
ATOM     11  C   UNL     1     111.203 127.608 135.954  0.00  0.00    +0.000 A 
ATOM     12  C   UNL     1     113.903 127.081 136.914  0.00  0.00    +0.000 C 
ATOM     13  C   UNL     1     112.986 125.960 136.586  0.00  0.00    +0.000 A 
ATOM     14  C   UNL     1     113.752 126.237 136.859  0.00  0.00    +0.000 A 
ATOM     15  C   UNL     1     111.647 126.260 136.110  0.00  0.00    +0.000 A 
ATOM     16  C   UNL     1     111.058 126.798 135.901  0.00  0.00    +0.000 A 
ATOM     17  C   UNL     1     112.810 125.085 136.522  0.00  0.00    +0.000 A 
ATOM     18  C   UNL     1     114.395 125.658 137.087  0.00  0.00    +0.000 A 
ATOM     19  C   UNL     1     114.238 124.778 137.030  0.00  0.00    +0.000 A 
ATOM     20  C   UNL     1     113.440 124.490 136.745  0.00  0.00    +0.000 A 
ENDROOT
BRANCH   8  22
ATOM     21  O   UNL     1     108.364 131.150 134.949  0.00  0.00    +0.000 OA
ATOM     22  C   UNL     1     110.135 129.542 135.576  0.00  0.00    +0.000 A 
ATOM     23  C   UNL     1     109.552 129.746 136.124  0.00  0.00    +0.000 A 
ATOM     24  C   UNL     1     110.128 129.872 134.822  0.00  0.00    +0.000 A 
ATOM     25  C   UNL     1     108.962 130.283 135.914  0.00  0.00    +0.000 A 
ATOM     26  C   UNL     1     109.537 130.409 134.612  0.00  0.00    +0.000 A 
ATOM     27  C   UNL     1     108.954 130.614 135.158  0.00  0.00    +0.000 A 
BRANCH  25  28
ATOM     28  O   UNL     1     108.378 130.488 136.460  0.00  0.00    +0.000 OA
ATOM     29  C   UNL     1     108.591 130.799 137.194  0.00  0.00    +0.000 C 
ENDBRANCH  25  28
ENDBRANCH   8  22
BRANCH  15  30
ATOM     30  O   UNL     1     111.502 125.448 136.057  0.00  0.00    +0.000 OA
ATOM     31  C   UNL     1     110.782 125.177 135.760  0.00  0.00    +0.000 C 
ENDBRANCH  15  30
TORSDOF 3
ENDMDL
MODEL 6
REMARK VINA RESULT:      -9.2      8.883     10.604
REMARK  Name = 44257051
REMARK  3 active torsions:
REMARK  status: ('A' for Active; 'I' for Inactive)
REMARK    1  A    between atoms: O_3  and  C_18
REMARK    2  A    between atoms: O_5  and  C_27
REMARK    3  A    between atoms: C_11  and  C_20
REMARK                            x       y       z     vdW  Elec       q    Type
REMARK                         _______ _______ _______ _____ _____    ______ ____
ROOT
ATOM      1  O   UNL     1     113.232 129.081 139.196  0.00  0.00    +0.000 OA
ATOM      2  O   UNL     1     114.347 128.071 140.856  0.00  0.00    +0.000 OA
ATOM      3  O   UNL     1     111.465 124.371 135.980  0.00  0.00    +0.000 OA
ATOM      4  C   UNL     1     113.187 127.631 138.991  0.00  0.00    +0.000 A 
ATOM      5  C   UNL     1     112.945 126.978 138.550  0.00  0.00    +0.000 A 
ATOM      6  C   UNL     1     113.648 127.506 139.705  0.00  0.00    +0.000 C 
ATOM      7  C   UNL     1     113.903 128.182 140.169  0.00  0.00    +0.000 C 
ATOM      8  C   UNL     1     113.694 128.975 139.914  0.00  0.00    +0.000 C 
ATOM      9  C   UNL     1     113.160 126.191 138.816  0.00  0.00    +0.000 C 
ATOM     10  C   UNL     1     112.501 127.086 137.862  0.00  0.00    +0.000 A 
ATOM     11  C   UNL     1     112.985 128.393 138.745  0.00  0.00    +0.000 A 
ATOM     12  C   UNL     1     112.911 125.505 138.360  0.00  0.00    +0.000 C 
ATOM     13  C   UNL     1     112.243 126.413 137.394  0.00  0.00    +0.000 A 
ATOM     14  C   UNL     1     112.449 125.618 137.645  0.00  0.00    +0.000 A 
ATOM     15  C   UNL     1     112.300 127.847 137.617  0.00  0.00    +0.000 A 
ATOM     16  C   UNL     1     112.542 128.501 138.058  0.00  0.00    +0.000 A 
ATOM     17  C   UNL     1     111.762 126.551 136.651  0.00  0.00    +0.000 A 
ATOM     18  C   UNL     1     112.190 124.905 137.170  0.00  0.00    +0.000 A 
ATOM     19  C   UNL     1     111.708 125.022 136.424  0.00  0.00    +0.000 A 
ATOM     20  C   UNL     1     111.494 125.851 136.163  0.00  0.00    +0.000 A 
ENDROOT
BRANCH   8  22
ATOM     21  O   UNL     1     114.656 131.596 141.672  0.00  0.00    +0.000 OA
ATOM     22  C   UNL     1     113.935 129.631 140.353  0.00  0.00    +0.000 A 
ATOM     23  C   UNL     1     113.429 129.956 140.919  0.00  0.00    +0.000 A 
ATOM     24  C   UNL     1     114.680 129.960 140.228  0.00  0.00    +0.000 A 
ATOM     25  C   UNL     1     113.669 130.611 141.358  0.00  0.00    +0.000 A 
ATOM     26  C   UNL     1     114.921 130.615 140.668  0.00  0.00    +0.000 A 
ATOM     27  C   UNL     1     114.416 130.941 141.233  0.00  0.00    +0.000 A 
BRANCH  25  28
ATOM     28  O   UNL     1     113.165 130.937 141.924  0.00  0.00    +0.000 OA
ATOM     29  C   UNL     1     112.403 130.635 142.019  0.00  0.00    +0.000 C 
ENDBRANCH  25  28
ENDBRANCH   8  22
BRANCH  15  30
ATOM     30  O   UNL     1     111.856 127.955 136.929  0.00  0.00    +0.000 OA
ATOM     31  C   UNL     1     111.679 128.718 136.669  0.00  0.00    +0.000 C 
ENDBRANCH  15  30
TORSDOF 3
ENDMDL
MODEL 7
REMARK VINA RESULT:      -9.2      3.699      5.592
REMARK  Name = 44257051
REMARK  3 active torsions:
REMARK  status: ('A' for Active; 'I' for Inactive)
REMARK    1  A    between atoms: O_3  and  C_18
REMARK    2  A    between atoms: O_5  and  C_27
REMARK    3  A    between atoms: C_11  and  C_20
REMARK                            x       y       z     vdW  Elec       q    Type
REMARK                         _______ _______ _______ _____ _____    ______ ____
ROOT
ATOM      1  O   UNL     1     106.586 125.598 145.866  0.00  0.00    +0.000 OA
ATOM      2  O   UNL     1     106.643 127.190 147.440  0.00  0.00    +0.000 OA
ATOM      3  O   UNL     1     104.602 128.708 141.171  0.00  0.00    +0.000 OA
ATOM      4  C   UNL     1     106.137 126.864 145.283  0.00  0.00    +0.000 A 
ATOM      5  C   UNL     1     105.862 127.297 144.637  0.00  0.00    +0.000 A 
ATOM      6  C   UNL     1     106.248 127.262 146.036  0.00  0.00    +0.000 C 
ATOM      7  C   UNL     1     106.533 126.816 146.713  0.00  0.00    +0.000 C 
ATOM      8  C   UNL     1     106.703 125.978 146.628  0.00  0.00    +0.000 C 
ATOM      9  C   UNL     1     105.696 128.134 144.735  0.00  0.00    +0.000 C 
ATOM     10  C   UNL     1     105.751 126.926 143.908  0.00  0.00    +0.000 A 
ATOM     11  C   UNL     1     106.300 126.059 145.201  0.00  0.00    +0.000 A 
ATOM     12  C   UNL     1     105.410 128.591 144.065  0.00  0.00    +0.000 C 
ATOM     13  C   UNL     1     105.466 127.366 143.228  0.00  0.00    +0.000 A 
ATOM     14  C   UNL     1     105.294 128.205 143.307  0.00  0.00    +0.000 A 
ATOM     15  C   UNL     1     105.915 126.122 143.827  0.00  0.00    +0.000 A 
ATOM     16  C   UNL     1     106.189 125.688 144.473  0.00  0.00    +0.000 A 
ATOM     17  C   UNL     1     105.352 126.946 142.446  0.00  0.00    +0.000 A 
ATOM     18  C   UNL     1     104.997 128.680 142.610  0.00  0.00    +0.000 A 
ATOM     19  C   UNL     1     104.876 128.277 141.819  0.00  0.00    +0.000 A 
ATOM     20  C   UNL     1     105.055 127.404 141.737  0.00  0.00    +0.000 A 
ENDROOT
BRANCH   8  22
ATOM     21  O   UNL     1     107.800 124.236 149.206  0.00  0.00    +0.000 OA
ATOM     22  C   UNL     1     106.978 125.543 147.273  0.00  0.00    +0.000 A 
ATOM     23  C   UNL     1     106.444 125.127 147.745  0.00  0.00    +0.000 A 
ATOM     24  C   UNL     1     107.784 125.523 147.444  0.00  0.00    +0.000 A 
ATOM     25  C   UNL     1     106.718 124.691 148.390  0.00  0.00    +0.000 A 
ATOM     26  C   UNL     1     108.058 125.087 148.088  0.00  0.00    +0.000 A 
ATOM     27  C   UNL     1     107.526 124.671 148.562  0.00  0.00    +0.000 A 
BRANCH  25  28
ATOM     28  O   UNL     1     106.186 124.275 148.864  0.00  0.00    +0.000 OA
ATOM     29  C   UNL     1     105.449 124.601 149.040  0.00  0.00    +0.000 C 
ENDBRANCH  25  28
ENDBRANCH   8  22
BRANCH  15  30
ATOM     30  O   UNL     1     105.804 125.750 143.097  0.00  0.00    +0.000 OA
ATOM     31  C   UNL     1     105.952 124.942 143.020  0.00  0.00    +0.000 C 
ENDBRANCH  15  30
TORSDOF 3
ENDMDL
MODEL 8
REMARK VINA RESULT:      -9.0     10.752     11.925
REMARK  Name = 44257051
REMARK  3 active torsions:
REMARK  status: ('A' for Active; 'I' for Inactive)
REMARK    1  A    between atoms: O_3  and  C_18
REMARK    2  A    between atoms: O_5  and  C_27
REMARK    3  A    between atoms: C_11  and  C_20
REMARK                            x       y       z     vdW  Elec       q    Type
REMARK                         _______ _______ _______ _____ _____    ______ ____
ROOT
ATOM      1  O   UNL     1     113.762 128.318 136.668  0.00  0.00    +0.000 OA
ATOM      2  O   UNL     1     112.244 129.332 135.370  0.00  0.00    +0.000 OA
ATOM      3  O   UNL     1     111.627 122.743 136.776  0.00  0.00    +0.000 OA
ATOM      4  C   UNL     1     112.751 127.340 136.260  0.00  0.00    +0.000 A 
ATOM      5  C   UNL     1     112.453 126.571 136.272  0.00  0.00    +0.000 A 
ATOM      6  C   UNL     1     112.333 127.943 135.813  0.00  0.00    +0.000 C 
ATOM      7  C   UNL     1     112.638 128.746 135.796  0.00  0.00    +0.000 C 
ATOM      8  C   UNL     1     113.358 128.935 136.227  0.00  0.00    +0.000 C 
ATOM      9  C   UNL     1     111.733 126.395 135.838  0.00  0.00    +0.000 C 
ATOM     10  C   UNL     1     112.845 125.983 136.698  0.00  0.00    +0.000 A 
ATOM     11  C   UNL     1     113.441 127.521 136.674  0.00  0.00    +0.000 A 
ATOM     12  C   UNL     1     111.417 125.595 135.847  0.00  0.00    +0.000 C 
ATOM     13  C   UNL     1     112.545 125.178 136.719  0.00  0.00    +0.000 A 
ATOM     14  C   UNL     1     111.826 124.983 136.290  0.00  0.00    +0.000 A 
ATOM     15  C   UNL     1     113.536 126.165 137.111  0.00  0.00    +0.000 A 
ATOM     16  C   UNL     1     113.834 126.934 137.099  0.00  0.00    +0.000 A 
ATOM     17  C   UNL     1     112.984 124.554 137.186  0.00  0.00    +0.000 A 
ATOM     18  C   UNL     1     111.497 124.151 136.300  0.00  0.00    +0.000 A 
ATOM     19  C   UNL     1     111.923 123.513 136.762  0.00  0.00    +0.000 A 
ATOM     20  C   UNL     1     112.672 123.717 137.208  0.00  0.00    +0.000 A 
ENDROOT
BRANCH   8  22
ATOM     21  O   UNL     1     114.560 132.007 136.183  0.00  0.00    +0.000 OA
ATOM     22  C   UNL     1     113.658 129.704 136.216  0.00  0.00    +0.000 A 
ATOM     23  C   UNL     1     114.354 129.868 135.804  0.00  0.00    +0.000 A 
ATOM     24  C   UNL     1     113.264 130.306 136.616  0.00  0.00    +0.000 A 
ATOM     25  C   UNL     1     114.655 130.636 135.793  0.00  0.00    +0.000 A 
ATOM     26  C   UNL     1     113.564 131.075 136.606  0.00  0.00    +0.000 A 
ATOM     27  C   UNL     1     114.260 131.240 136.194  0.00  0.00    +0.000 A 
BRANCH  25  28
ATOM     28  O   UNL     1     115.350 130.801 135.381  0.00  0.00    +0.000 OA
ATOM     29  C   UNL     1     115.451 130.520 134.612  0.00  0.00    +0.000 C 
ENDBRANCH  25  28
ENDBRANCH   8  22
BRANCH  15  30
ATOM     30  O   UNL     1     113.928 125.577 137.537  0.00  0.00    +0.000 OA
ATOM     31  C   UNL     1     114.474 125.785 138.120  0.00  0.00    +0.000 C 
ENDBRANCH  15  30
TORSDOF 3
ENDMDL
MODEL 9
REMARK VINA RESULT:      -8.8      7.578      9.697
REMARK  Name = 44257051
REMARK  3 active torsions:
REMARK  status: ('A' for Active; 'I' for Inactive)
REMARK    1  A    between atoms: O_3  and  C_18
REMARK    2  A    between atoms: O_5  and  C_27
REMARK    3  A    between atoms: C_11  and  C_20
REMARK                            x       y       z     vdW  Elec       q    Type
REMARK                         _______ _______ _______ _____ _____    ______ ____
ROOT
ATOM      1  O   UNL     1     112.502 127.232 137.831  0.00  0.00    +0.000 OA
ATOM      2  O   UNL     1     113.964 127.324 136.136  0.00  0.00    +0.000 OA
ATOM      3  O   UNL     1     110.493 132.855 137.908  0.00  0.00    +0.000 OA
ATOM      4  C   UNL     1     112.516 128.590 137.283  0.00  0.00    +0.000 A 
ATOM      5  C   UNL     1     112.241 129.368 137.291  0.00  0.00    +0.000 A 
ATOM      6  C   UNL     1     113.106 128.361 136.703  0.00  0.00    +0.000 C 
ATOM      7  C   UNL     1     113.397 127.553 136.690  0.00  0.00    +0.000 C 
ATOM      8  C   UNL     1     113.093 126.984 137.258  0.00  0.00    +0.000 C 
ATOM      9  C   UNL     1     112.552 129.927 136.718  0.00  0.00    +0.000 C 
ATOM     10  C   UNL     1     111.674 129.601 137.844  0.00  0.00    +0.000 A 
ATOM     11  C   UNL     1     112.224 128.045 137.829  0.00  0.00    +0.000 A 
ATOM     12  C   UNL     1     112.270 130.739 136.720  0.00  0.00    +0.000 C 
ATOM     13  C   UNL     1     111.380 130.408 137.861  0.00  0.00    +0.000 A 
ATOM     14  C   UNL     1     111.680 130.980 137.296  0.00  0.00    +0.000 A 
ATOM     15  C   UNL     1     111.382 129.054 138.389  0.00  0.00    +0.000 A 
ATOM     16  C   UNL     1     111.657 128.276 138.381  0.00  0.00    +0.000 A 
ATOM     17  C   UNL     1     110.765 130.640 138.468  0.00  0.00    +0.000 A 
ATOM     18  C   UNL     1     111.386 131.826 137.298  0.00  0.00    +0.000 A 
ATOM     19  C   UNL     1     110.770 132.078 137.899  0.00  0.00    +0.000 A 
ATOM     20  C   UNL     1     110.458 131.480 138.487  0.00  0.00    +0.000 A 
ENDROOT
BRANCH   8  22
ATOM     21  O   UNL     1     114.185 123.871 137.237  0.00  0.00    +0.000 OA
ATOM     22  C   UNL     1     113.366 126.206 137.253  0.00  0.00    +0.000 A 
ATOM     23  C   UNL     1     112.941 125.623 136.851  0.00  0.00    +0.000 A 
ATOM     24  C   UNL     1     114.062 126.010 137.649  0.00  0.00    +0.000 A 
ATOM     25  C   UNL     1     113.215 124.844 136.846  0.00  0.00    +0.000 A 
ATOM     26  C   UNL     1     114.335 125.232 137.644  0.00  0.00    +0.000 A 
ATOM     27  C   UNL     1     113.912 124.648 137.242  0.00  0.00    +0.000 A 
BRANCH  25  28
ATOM     28  O   UNL     1     112.791 124.261 136.445  0.00  0.00    +0.000 OA
ATOM     29  C   UNL     1     111.966 124.266 136.460  0.00  0.00    +0.000 C 
ENDBRANCH  25  28
ENDBRANCH   8  22
BRANCH  15  30
ATOM     30  O   UNL     1     110.815 129.287 138.942  0.00  0.00    +0.000 OA
ATOM     31  C   UNL     1     110.522 128.740 139.485  0.00  0.00    +0.000 C 
ENDBRANCH  15  30
TORSDOF 3
ENDMDL
MODEL 10
REMARK VINA RESULT:      -8.8      9.148     10.273
REMARK  Name = 44257051
REMARK  3 active torsions:
REMARK  status: ('A' for Active; 'I' for Inactive)
REMARK    1  A    between atoms: O_3  and  C_18
REMARK    2  A    between atoms: O_5  and  C_27
REMARK    3  A    between atoms: C_11  and  C_20
REMARK                            x       y       z     vdW  Elec       q    Type
REMARK                         _______ _______ _______ _____ _____    ______ ____
ROOT
ATOM      1  O   UNL     1     112.110 127.300 137.957  0.00  0.00    +0.000 OA
ATOM      2  O   UNL     1     112.481 128.029 135.872  0.00  0.00    +0.000 OA
ATOM      3  O   UNL     1     114.979 131.454 141.145  0.00  0.00    +0.000 OA
ATOM      4  C   UNL     1     112.911 128.524 138.014  0.00  0.00    +0.000 A 
ATOM      5  C   UNL     1     113.309 129.100 138.450  0.00  0.00    +0.000 A 
ATOM      6  C   UNL     1     112.905 128.580 137.157  0.00  0.00    +0.000 C 
ATOM      7  C   UNL     1     112.493 127.984 136.696  0.00  0.00    +0.000 C 
ATOM      8  C   UNL     1     112.092 127.339 137.099  0.00  0.00    +0.000 C 
ATOM      9  C   UNL     1     113.705 129.740 138.036  0.00  0.00    +0.000 C 
ATOM     10  C   UNL     1     113.322 129.057 139.275  0.00  0.00    +0.000 A 
ATOM     11  C   UNL     1     112.527 127.905 138.401  0.00  0.00    +0.000 A 
ATOM     12  C   UNL     1     114.121 130.344 138.486  0.00  0.00    +0.000 C 
ATOM     13  C   UNL     1     113.733 129.651 139.741  0.00  0.00    +0.000 A 
ATOM     14  C   UNL     1     114.135 130.298 139.343  0.00  0.00    +0.000 A 
ATOM     15  C   UNL     1     112.938 128.438 139.661  0.00  0.00    +0.000 A 
ATOM     16  C   UNL     1     112.541 127.862 139.224  0.00  0.00    +0.000 A 
ATOM     17  C   UNL     1     113.736 129.587 140.634  0.00  0.00    +0.000 A 
ATOM     18  C   UNL     1     114.568 130.926 139.811  0.00  0.00    +0.000 A 
ATOM     19  C   UNL     1     114.582 130.879 140.706  0.00  0.00    +0.000 A 
ATOM     20  C   UNL     1     114.163 130.205 141.119  0.00  0.00    +0.000 A 
ENDROOT
BRANCH   8  22
ATOM     21  O   UNL     1     110.501 125.029 135.362  0.00  0.00    +0.000 OA
ATOM     22  C   UNL     1     111.694 126.761 136.664  0.00  0.00    +0.000 A 
ATOM     23  C   UNL     1     112.044 126.024 136.542  0.00  0.00    +0.000 A 
ATOM     24  C   UNL     1     110.948 126.921 136.353  0.00  0.00    +0.000 A 
ATOM     25  C   UNL     1     111.646 125.446 136.107  0.00  0.00    +0.000 A 
ATOM     26  C   UNL     1     110.549 126.343 135.919  0.00  0.00    +0.000 A 
ATOM     27  C   UNL     1     110.898 125.606 135.796  0.00  0.00    +0.000 A 
BRANCH  25  28
ATOM     28  O   UNL     1     111.995 124.709 135.984  0.00  0.00    +0.000 OA
ATOM     29  C   UNL     1     112.490 124.386 136.559  0.00  0.00    +0.000 C 
ENDBRANCH  25  28
ENDBRANCH   8  22
BRANCH  15  30
ATOM     30  O   UNL     1     112.951 128.395 140.486  0.00  0.00    +0.000 OA
ATOM     31  C   UNL     1     112.579 127.768 140.871  0.00  0.00    +0.000 C 
ENDBRANCH  15  30
TORSDOF 3
ENDMDL
