MODEL 1
REMARK VINA RESULT:      -8.8      0.000      0.000
REMARK  Name = 42608083
REMARK  6 active torsions:
REMARK  status: ('A' for Active; 'I' for Inactive)
REMARK    1  A    between atoms: O_2  and  C_16
REMARK    2  A    between atoms: O_2  and  C_18
REMARK    3  A    between atoms: O_8  and  C_23
REMARK    4  A    between atoms: O_11  and  C_31
REMARK    5  A    between atoms: C_15  and  C_17
REMARK    6  A    between atoms: C_19  and  C_20
REMARK                            x       y       z     vdW  Elec       q    Type
REMARK                         _______ _______ _______ _____ _____    ______ ____
ROOT
ATOM      1  C   UNL     1     112.145 125.944 136.506  0.00  0.00    +0.000 A 
ATOM      2  C   UNL     1     113.085 127.013 136.627  0.00  0.00    +0.000 A 
ATOM      3  C   UNL     1     112.307 126.752 136.540  0.00  0.00    +0.000 A 
ATOM      4  C   UNL     1     112.761 125.397 136.558  0.00  0.00    +0.000 A 
ATOM      5  C   UNL     1     113.701 126.467 136.679  0.00  0.00    +0.000 A 
ATOM      6  C   UNL     1     113.538 125.658 136.645  0.00  0.00    +0.000 A 
ENDROOT
BRANCH   2  10
ATOM      7  O   UNL     1     113.235 128.215 137.387  0.00  0.00    +0.000 OA
ATOM      8  O   UNL     1     113.759 129.460 135.314  0.00  0.00    +0.000 OA
ATOM      9  O   UNL     1     113.916 130.687 136.057  0.00  0.00    +0.000 OA
ATOM     10  C   UNL     1     113.247 127.822 136.662  0.00  0.00    +0.000 C 
ATOM     11  C   UNL     1     113.422 128.237 135.970  0.00  0.00    +0.000 C 
ATOM     12  C   UNL     1     113.584 129.046 136.005  0.00  0.00    +0.000 C 
ATOM     13  C   UNL     1     113.572 129.438 136.730  0.00  0.00    +0.000 A 
ATOM     14  C   UNL     1     113.397 129.022 137.421  0.00  0.00    +0.000 A 
ATOM     15  C   UNL     1     113.742 130.280 136.753  0.00  0.00    +0.000 A 
ATOM     16  C   UNL     1     113.381 129.420 138.182  0.00  0.00    +0.000 A 
ATOM     17  C   UNL     1     113.549 130.262 138.225  0.00  0.00    +0.000 A 
ATOM     18  C   UNL     1     113.731 130.695 137.505  0.00  0.00    +0.000 A 
BRANCH  17  19
ATOM     19  O   UNL     1     113.535 130.652 138.952  0.00  0.00    +0.000 OA
ATOM     20  C   UNL     1     114.186 130.606 139.457  0.00  0.00    +0.000 C 
ENDBRANCH  17  19
ENDBRANCH   2  10
BRANCH   4  21
ATOM     21  O   UNL     1     112.599 124.589 136.524  0.00  0.00    +0.000 OA
ATOM     22  C   UNL     1     113.216 124.042 136.557  0.00  0.00    +0.000 C 
ENDBRANCH   4  21
BRANCH   1  23
ATOM     23  O   UNL     1     111.368 125.683 136.419  0.00  0.00    +0.000 OA
BRANCH  23  32
ATOM     24  O   UNL     1     110.899 125.872 137.756  0.00  0.00    +0.000 OA
ATOM     25  O   UNL     1     108.805 126.860 136.883  0.00  0.00    +0.000 OA
ATOM     26  O   UNL     1     109.035 126.720 138.511  0.00  0.00    +0.000 OA
ATOM     27  O   UNL     1     109.971 126.341 135.837  0.00  0.00    +0.000 OA
ATOM     28  C   UNL     1     109.503 126.531 137.174  0.00  0.00    +0.000 C 
ATOM     29  C   UNL     1     109.618 126.461 137.987  0.00  0.00    +0.000 C 
ATOM     30  C   UNL     1     110.086 126.271 136.651  0.00  0.00    +0.000 C 
ATOM     31  C   UNL     1     110.316 126.131 138.278  0.00  0.00    +0.000 C 
ATOM     32  C   UNL     1     110.784 125.942 136.942  0.00  0.00    +0.000 C 
BRANCH  31  34
ATOM     33  O   UNL     1     110.766 125.374 139.404  0.00  0.00    +0.000 OA
ATOM     34  C   UNL     1     110.431 126.061 139.093  0.00  0.00    +0.000 C 
ENDBRANCH  31  34
ENDBRANCH  23  32
ENDBRANCH   1  23
TORSDOF 6
ENDMDL
MODEL 2
REMARK VINA RESULT:      -8.7      1.524      5.000
REMARK  Name = 42608083
REMARK  6 active torsions:
REMARK  status: ('A' for Active; 'I' for Inactive)
REMARK    1  A    between atoms: O_2  and  C_16
REMARK    2  A    between atoms: O_2  and  C_18
REMARK    3  A    between atoms: O_8  and  C_23
REMARK    4  A    between atoms: O_11  and  C_31
REMARK    5  A    between atoms: C_15  and  C_17
REMARK    6  A    between atoms: C_19  and  C_20
REMARK                            x       y       z     vdW  Elec       q    Type
REMARK                         _______ _______ _______ _____ _____    ______ ____
ROOT
ATOM      1  C   UNL     1     114.084 129.878 136.586  0.00  0.00    +0.000 A 
ATOM      2  C   UNL     1     113.691 128.617 136.041  0.00  0.00    +0.000 A 
ATOM      3  C   UNL     1     113.717 129.145 136.675  0.00  0.00    +0.000 A 
ATOM      4  C   UNL     1     114.425 130.084 135.863  0.00  0.00    +0.000 A 
ATOM      5  C   UNL     1     114.032 128.822 135.319  0.00  0.00    +0.000 A 
ATOM      6  C   UNL     1     114.399 129.556 135.230  0.00  0.00    +0.000 A 
ENDROOT
BRANCH   2  10
ATOM      7  O   UNL     1     112.537 127.785 135.901  0.00  0.00    +0.000 OA
ATOM      8  O   UNL     1     113.796 125.880 136.855  0.00  0.00    +0.000 OA
ATOM      9  O   UNL     1     112.646 125.018 136.725  0.00  0.00    +0.000 OA
ATOM     10  C   UNL     1     113.324 127.883 136.130  0.00  0.00    +0.000 C 
ATOM     11  C   UNL     1     113.744 127.249 136.448  0.00  0.00    +0.000 C 
ATOM     12  C   UNL     1     113.376 126.514 136.537  0.00  0.00    +0.000 C 
ATOM     13  C   UNL     1     112.590 126.416 136.308  0.00  0.00    +0.000 A 
ATOM     14  C   UNL     1     112.171 127.052 135.990  0.00  0.00    +0.000 A 
ATOM     15  C   UNL     1     112.219 125.648 136.406  0.00  0.00    +0.000 A 
ATOM     16  C   UNL     1     111.351 126.962 135.748  0.00  0.00    +0.000 A 
ATOM     17  C   UNL     1     110.963 126.200 135.838  0.00  0.00    +0.000 A 
ATOM     18  C   UNL     1     111.400 125.539 136.169  0.00  0.00    +0.000 A 
BRANCH  17  19
ATOM     19  O   UNL     1     110.176 126.105 135.608  0.00  0.00    +0.000 OA
ATOM     20  C   UNL     1     109.997 125.888 134.833  0.00  0.00    +0.000 C 
ENDBRANCH  17  19
ENDBRANCH   2  10
BRANCH   4  21
ATOM     21  O   UNL     1     114.792 130.817 135.774  0.00  0.00    +0.000 OA
ATOM     22  C   UNL     1     115.314 130.945 135.148  0.00  0.00    +0.000 C 
ENDBRANCH   4  21
BRANCH   1  23
ATOM     23  O   UNL     1     114.110 130.406 137.219  0.00  0.00    +0.000 OA
BRANCH  23  32
ATOM     24  O   UNL     1     112.742 130.818 137.264  0.00  0.00    +0.000 OA
ATOM     25  O   UNL     1     112.740 130.542 139.724  0.00  0.00    +0.000 OA
ATOM     26  O   UNL     1     111.373 131.045 138.949  0.00  0.00    +0.000 OA
ATOM     27  O   UNL     1     114.109 130.222 138.859  0.00  0.00    +0.000 OA
ATOM     28  C   UNL     1     112.741 130.634 138.904  0.00  0.00    +0.000 C 
ATOM     29  C   UNL     1     112.058 130.885 138.517  0.00  0.00    +0.000 C 
ATOM     30  C   UNL     1     113.426 130.474 138.472  0.00  0.00    +0.000 C 
ATOM     31  C   UNL     1     112.059 130.977 137.697  0.00  0.00    +0.000 C 
ATOM     32  C   UNL     1     113.426 130.566 137.652  0.00  0.00    +0.000 C 
BRANCH  31  34
ATOM     33  O   UNL     1     111.413 131.850 136.768  0.00  0.00    +0.000 OA
ATOM     34  C   UNL     1     111.375 131.229 137.310  0.00  0.00    +0.000 C 
ENDBRANCH  31  34
ENDBRANCH  23  32
ENDBRANCH   1  23
TORSDOF 6
ENDMDL
MODEL 3
REMARK VINA RESULT:      -8.6      2.350      3.652
REMARK  Name = 42608083
REMARK  6 active torsions:
REMARK  status: ('A' for Active; 'I' for Inactive)
REMARK    1  A    between atoms: O_2  and  C_16
REMARK    2  A    between atoms: O_2  and  C_18
REMARK    3  A    between atoms: O_8  and  C_23
REMARK    4  A    between atoms: O_11  and  C_31
REMARK    5  A    between atoms: C_15  and  C_17
REMARK    6  A    between atoms: C_19  and  C_20
REMARK                            x       y       z     vdW  Elec       q    Type
REMARK                         _______ _______ _______ _____ _____    ______ ____
ROOT
ATOM      1  C   UNL     1     111.021 125.307 137.580  0.00  0.00    +0.000 A 
ATOM      2  C   UNL     1     110.488 126.186 136.588  0.00  0.00    +0.000 A 
ATOM      3  C   UNL     1     110.608 125.993 137.381  0.00  0.00    +0.000 A 
ATOM      4  C   UNL     1     111.314 124.814 136.986  0.00  0.00    +0.000 A 
ATOM      5  C   UNL     1     110.780 125.694 135.994  0.00  0.00    +0.000 A 
ATOM      6  C   UNL     1     111.193 125.007 136.193  0.00  0.00    +0.000 A 
ENDROOT
BRANCH   2  10
ATOM      7  O   UNL     1     110.477 127.588 136.311  0.00  0.00    +0.000 OA
ATOM      8  O   UNL     1     108.031 127.497 135.945  0.00  0.00    +0.000 OA
ATOM      9  O   UNL     1     107.992 128.911 135.661  0.00  0.00    +0.000 OA
ATOM     10  C   UNL     1     110.075 126.872 136.388  0.00  0.00    +0.000 C 
ATOM     11  C   UNL     1     109.259 126.841 136.267  0.00  0.00    +0.000 C 
ATOM     12  C   UNL     1     108.846 127.528 136.067  0.00  0.00    +0.000 C 
ATOM     13  C   UNL     1     109.248 128.244 135.989  0.00  0.00    +0.000 A 
ATOM     14  C   UNL     1     110.064 128.273 136.111  0.00  0.00    +0.000 A 
ATOM     15  C   UNL     1     108.807 128.950 135.782  0.00  0.00    +0.000 A 
ATOM     16  C   UNL     1     110.494 129.013 136.034  0.00  0.00    +0.000 A 
ATOM     17  C   UNL     1     110.070 129.731 135.826  0.00  0.00    +0.000 A 
ATOM     18  C   UNL     1     109.220 129.699 135.699  0.00  0.00    +0.000 A 
BRANCH  17  19
ATOM     19  O   UNL     1     110.474 130.446 135.749  0.00  0.00    +0.000 OA
ATOM     20  C   UNL     1     110.645 130.897 136.418  0.00  0.00    +0.000 C 
ENDBRANCH  17  19
ENDBRANCH   2  10
BRANCH   4  21
ATOM     21  O   UNL     1     111.726 124.129 137.185  0.00  0.00    +0.000 OA
ATOM     22  C   UNL     1     111.979 123.612 136.593  0.00  0.00    +0.000 C 
ENDBRANCH   4  21
BRANCH   1  23
ATOM     23  O   UNL     1     111.142 125.114 138.372  0.00  0.00    +0.000 OA
BRANCH  23  32
ATOM     24  O   UNL     1     112.187 126.020 138.730  0.00  0.00    +0.000 OA
ATOM     25  O   UNL     1     110.936 126.661 140.767  0.00  0.00    +0.000 OA
ATOM     26  O   UNL     1     112.399 127.354 140.445  0.00  0.00    +0.000 OA
ATOM     27  O   UNL     1     110.308 125.541 139.731  0.00  0.00    +0.000 OA
ATOM     28  C   UNL     1     111.353 126.447 140.088  0.00  0.00    +0.000 C 
ATOM     29  C   UNL     1     112.084 126.793 139.927  0.00  0.00    +0.000 C 
ATOM     30  C   UNL     1     111.038 125.887 139.570  0.00  0.00    +0.000 C 
ATOM     31  C   UNL     1     112.501 126.580 139.248  0.00  0.00    +0.000 C 
ATOM     32  C   UNL     1     111.455 125.674 138.891  0.00  0.00    +0.000 C 
BRANCH  31  34
ATOM     33  O   UNL     1     113.856 126.463 138.809  0.00  0.00    +0.000 OA
ATOM     34  C   UNL     1     113.233 126.927 139.087  0.00  0.00    +0.000 C 
ENDBRANCH  31  34
ENDBRANCH  23  32
ENDBRANCH   1  23
TORSDOF 6
ENDMDL
MODEL 4
REMARK VINA RESULT:      -8.4      1.538      4.911
REMARK  Name = 42608083
REMARK  6 active torsions:
REMARK  status: ('A' for Active; 'I' for Inactive)
REMARK    1  A    between atoms: O_2  and  C_16
REMARK    2  A    between atoms: O_2  and  C_18
REMARK    3  A    between atoms: O_8  and  C_23
REMARK    4  A    between atoms: O_11  and  C_31
REMARK    5  A    between atoms: C_15  and  C_17
REMARK    6  A    between atoms: C_19  and  C_20
REMARK                            x       y       z     vdW  Elec       q    Type
REMARK                         _______ _______ _______ _____ _____    ______ ____
ROOT
ATOM      1  C   UNL     1     113.893 129.764 136.742  0.00  0.00    +0.000 A 
ATOM      2  C   UNL     1     113.363 128.630 136.054  0.00  0.00    +0.000 A 
ATOM      3  C   UNL     1     113.414 129.093 136.735  0.00  0.00    +0.000 A 
ATOM      4  C   UNL     1     114.321 129.973 136.068  0.00  0.00    +0.000 A 
ATOM      5  C   UNL     1     113.790 128.838 135.380  0.00  0.00    +0.000 A 
ATOM      6  C   UNL     1     114.270 129.510 135.387  0.00  0.00    +0.000 A 
ENDROOT
BRANCH   2  10
ATOM      7  O   UNL     1     113.132 127.269 136.426  0.00  0.00    +0.000 OA
ATOM      8  O   UNL     1     110.948 127.322 135.263  0.00  0.00    +0.000 OA
ATOM      9  O   UNL     1     110.690 125.949 135.626  0.00  0.00    +0.000 OA
ATOM     10  C   UNL     1     112.883 127.958 136.046  0.00  0.00    +0.000 C 
ATOM     11  C   UNL     1     112.155 127.976 135.658  0.00  0.00    +0.000 C 
ATOM     12  C   UNL     1     111.676 127.304 135.651  0.00  0.00    +0.000 C 
ATOM     13  C   UNL     1     111.924 126.615 136.031  0.00  0.00    +0.000 A 
ATOM     14  C   UNL     1     112.653 126.598 136.418  0.00  0.00    +0.000 A 
ATOM     15  C   UNL     1     111.417 125.923 136.016  0.00  0.00    +0.000 A 
ATOM     16  C   UNL     1     112.923 125.887 136.817  0.00  0.00    +0.000 A 
ATOM     17  C   UNL     1     112.428 125.184 136.813  0.00  0.00    +0.000 A 
ATOM     18  C   UNL     1     111.670 125.202 136.409  0.00  0.00    +0.000 A 
BRANCH  17  19
ATOM     19  O   UNL     1     112.680 124.496 137.194  0.00  0.00    +0.000 OA
ATOM     20  C   UNL     1     113.102 123.924 136.776  0.00  0.00    +0.000 C 
ENDBRANCH  17  19
ENDBRANCH   2  10
BRANCH   4  21
ATOM     21  O   UNL     1     114.800 130.644 136.075  0.00  0.00    +0.000 OA
ATOM     22  C   UNL     1     115.342 130.772 135.466  0.00  0.00    +0.000 C 
ENDBRANCH   4  21
BRANCH   1  23
ATOM     23  O   UNL     1     113.944 130.226 137.423  0.00  0.00    +0.000 OA
BRANCH  23  32
ATOM     24  O   UNL     1     112.663 130.858 137.391  0.00  0.00    +0.000 OA
ATOM     25  O   UNL     1     112.384 130.416 139.810  0.00  0.00    +0.000 OA
ATOM     26  O   UNL     1     111.195 131.195 138.971  0.00  0.00    +0.000 OA
ATOM     27  O   UNL     1     113.758 129.932 139.036  0.00  0.00    +0.000 OA
ATOM     28  C   UNL     1     112.477 130.563 139.004  0.00  0.00    +0.000 C 
ATOM     29  C   UNL     1     111.883 130.953 138.585  0.00  0.00    +0.000 C 
ATOM     30  C   UNL     1     113.164 130.321 138.617  0.00  0.00    +0.000 C 
ATOM     31  C   UNL     1     111.976 131.100 137.778  0.00  0.00    +0.000 C 
ATOM     32  C   UNL     1     113.257 130.468 137.811  0.00  0.00    +0.000 C 
BRANCH  31  34
ATOM     33  O   UNL     1     111.566 132.151 136.901  0.00  0.00    +0.000 OA
ATOM     34  C   UNL     1     111.381 131.490 137.359  0.00  0.00    +0.000 C 
ENDBRANCH  31  34
ENDBRANCH  23  32
ENDBRANCH   1  23
TORSDOF 6
ENDMDL
MODEL 5
REMARK VINA RESULT:      -8.4      2.039      5.047
REMARK  Name = 42608083
REMARK  6 active torsions:
REMARK  status: ('A' for Active; 'I' for Inactive)
REMARK    1  A    between atoms: O_2  and  C_16
REMARK    2  A    between atoms: O_2  and  C_18
REMARK    3  A    between atoms: O_8  and  C_23
REMARK    4  A    between atoms: O_11  and  C_31
REMARK    5  A    between atoms: C_15  and  C_17
REMARK    6  A    between atoms: C_19  and  C_20
REMARK                            x       y       z     vdW  Elec       q    Type
REMARK                         _______ _______ _______ _____ _____    ______ ____
ROOT
ATOM      1  C   UNL     1     112.301 128.289 139.885  0.00  0.00    +0.000 A 
ATOM      2  C   UNL     1     112.872 127.028 139.533  0.00  0.00    +0.000 A 
ATOM      3  C   UNL     1     112.510 127.735 139.311  0.00  0.00    +0.000 A 
ATOM      4  C   UNL     1     112.453 128.136 140.681  0.00  0.00    +0.000 A 
ATOM      5  C   UNL     1     113.025 126.874 140.329  0.00  0.00    +0.000 A 
ATOM      6  C   UNL     1     112.815 127.428 140.903  0.00  0.00    +0.000 A 
ENDROOT
BRANCH   2  10
ATOM      7  O   UNL     1     112.497 126.100 138.512  0.00  0.00    +0.000 OA
ATOM      8  O   UNL     1     114.881 125.557 138.129  0.00  0.00    +0.000 OA
ATOM      9  O   UNL     1     114.530 124.615 137.095  0.00  0.00    +0.000 OA
ATOM     10  C   UNL     1     113.082 126.473 138.958  0.00  0.00    +0.000 C 
ATOM     11  C   UNL     1     113.877 126.292 138.831  0.00  0.00    +0.000 C 
ATOM     12  C   UNL     1     114.086 125.738 138.256  0.00  0.00    +0.000 C 
ATOM     13  C   UNL     1     113.501 125.365 137.810  0.00  0.00    +0.000 A 
ATOM     14  C   UNL     1     112.707 125.546 137.938  0.00  0.00    +0.000 A 
ATOM     15  C   UNL     1     113.732 124.790 137.216  0.00  0.00    +0.000 A 
ATOM     16  C   UNL     1     112.089 125.165 137.480  0.00  0.00    +0.000 A 
ATOM     17  C   UNL     1     112.300 124.586 136.880  0.00  0.00    +0.000 A 
ATOM     18  C   UNL     1     113.128 124.398 136.747  0.00  0.00    +0.000 A 
BRANCH  17  19
ATOM     19  O   UNL     1     111.713 124.215 136.435  0.00  0.00    +0.000 OA
ATOM     20  C   UNL     1     111.292 124.642 135.869  0.00  0.00    +0.000 C 
ENDBRANCH  17  19
ENDBRANCH   2  10
BRANCH   4  21
ATOM     21  O   UNL     1     112.244 128.689 141.255  0.00  0.00    +0.000 OA
ATOM     22  C   UNL     1     112.249 128.479 142.053  0.00  0.00    +0.000 C 
ENDBRANCH   4  21
BRANCH   1  23
ATOM     23  O   UNL     1     111.939 128.996 139.663  0.00  0.00    +0.000 OA
BRANCH  23  32
ATOM     24  O   UNL     1     113.065 129.766 139.237  0.00  0.00    +0.000 OA
ATOM     25  O   UNL     1     111.850 130.402 137.176  0.00  0.00    +0.000 OA
ATOM     26  O   UNL     1     113.380 130.960 137.437  0.00  0.00    +0.000 OA
ATOM     27  O   UNL     1     111.129 129.420 138.289  0.00  0.00    +0.000 OA
ATOM     28  C   UNL     1     112.255 130.190 137.863  0.00  0.00    +0.000 C 
ATOM     29  C   UNL     1     113.019 130.469 137.993  0.00  0.00    +0.000 C 
ATOM     30  C   UNL     1     111.894 129.699 138.419  0.00  0.00    +0.000 C 
ATOM     31  C   UNL     1     113.424 130.257 138.680  0.00  0.00    +0.000 C 
ATOM     32  C   UNL     1     112.299 129.487 139.106  0.00  0.00    +0.000 C 
BRANCH  31  34
ATOM     33  O   UNL     1     114.398 130.839 139.549  0.00  0.00    +0.000 OA
ATOM     34  C   UNL     1     114.190 130.536 138.810  0.00  0.00    +0.000 C 
ENDBRANCH  31  34
ENDBRANCH  23  32
ENDBRANCH   1  23
TORSDOF 6
ENDMDL
MODEL 6
REMARK VINA RESULT:      -8.4      1.788      4.764
REMARK  Name = 42608083
REMARK  6 active torsions:
REMARK  status: ('A' for Active; 'I' for Inactive)
REMARK    1  A    between atoms: O_2  and  C_16
REMARK    2  A    between atoms: O_2  and  C_18
REMARK    3  A    between atoms: O_8  and  C_23
REMARK    4  A    between atoms: O_11  and  C_31
REMARK    5  A    between atoms: C_15  and  C_17
REMARK    6  A    between atoms: C_19  and  C_20
REMARK                            x       y       z     vdW  Elec       q    Type
REMARK                         _______ _______ _______ _____ _____    ______ ____
ROOT
ATOM      1  C   UNL     1     110.973 128.805 136.206  0.00  0.00    +0.000 A 
ATOM      2  C   UNL     1     111.296 127.487 135.759  0.00  0.00    +0.000 A 
ATOM      3  C   UNL     1     111.243 128.043 136.367  0.00  0.00    +0.000 A 
ATOM      4  C   UNL     1     110.755 129.012 135.437  0.00  0.00    +0.000 A 
ATOM      5  C   UNL     1     111.079 127.693 134.991  0.00  0.00    +0.000 A 
ATOM      6  C   UNL     1     110.808 128.457 134.830  0.00  0.00    +0.000 A 
ENDROOT
BRANCH   2  10
ATOM      7  O   UNL     1     112.355 126.601 136.131  0.00  0.00    +0.000 OA
ATOM      8  O   UNL     1     110.801 124.681 135.981  0.00  0.00    +0.000 OA
ATOM      9  O   UNL     1     111.852 123.765 136.354  0.00  0.00    +0.000 OA
ATOM     10  C   UNL     1     111.567 126.724 135.920  0.00  0.00    +0.000 C 
ATOM     11  C   UNL     1     111.049 126.084 135.870  0.00  0.00    +0.000 C 
ATOM     12  C   UNL     1     111.319 125.321 136.031  0.00  0.00    +0.000 C 
ATOM     13  C   UNL     1     112.108 125.198 136.241  0.00  0.00    +0.000 A 
ATOM     14  C   UNL     1     112.625 125.839 136.291  0.00  0.00    +0.000 A 
ATOM     15  C   UNL     1     112.377 124.400 136.406  0.00  0.00    +0.000 A 
ATOM     16  C   UNL     1     113.448 125.724 136.510  0.00  0.00    +0.000 A 
ATOM     17  C   UNL     1     113.736 124.932 136.678  0.00  0.00    +0.000 A 
ATOM     18  C   UNL     1     113.196 124.266 136.626  0.00  0.00    +0.000 A 
BRANCH  17  19
ATOM     19  O   UNL     1     114.525 124.813 136.889  0.00  0.00    +0.000 OA
ATOM     20  C   UNL     1     114.763 124.919 137.671  0.00  0.00    +0.000 C 
ENDBRANCH  17  19
ENDBRANCH   2  10
BRANCH   4  21
ATOM     21  O   UNL     1     110.485 129.774 135.277  0.00  0.00    +0.000 OA
ATOM     22  C   UNL     1     110.015 129.915 134.613  0.00  0.00    +0.000 C 
ENDBRANCH   4  21
BRANCH   1  23
ATOM     23  O   UNL     1     110.920 129.360 136.813  0.00  0.00    +0.000 OA
BRANCH  23  32
ATOM     24  O   UNL     1     112.300 129.707 136.945  0.00  0.00    +0.000 OA
ATOM     25  O   UNL     1     112.093 129.594 139.409  0.00  0.00    +0.000 OA
ATOM     26  O   UNL     1     113.542 129.978 138.720  0.00  0.00    +0.000 OA
ATOM     27  O   UNL     1     110.781 129.285 138.456  0.00  0.00    +0.000 OA
ATOM     28  C   UNL     1     112.162 129.631 138.588  0.00  0.00    +0.000 C 
ATOM     29  C   UNL     1     112.886 129.823 138.244  0.00  0.00    +0.000 C 
ATOM     30  C   UNL     1     111.506 129.477 138.112  0.00  0.00    +0.000 C 
ATOM     31  C   UNL     1     112.955 129.861 137.422  0.00  0.00    +0.000 C 
ATOM     32  C   UNL     1     111.575 129.514 137.291  0.00  0.00    +0.000 C 
BRANCH  31  34
ATOM     33  O   UNL     1     113.711 130.605 136.465  0.00  0.00    +0.000 OA
ATOM     34  C   UNL     1     113.680 130.053 137.077  0.00  0.00    +0.000 C 
ENDBRANCH  31  34
ENDBRANCH  23  32
ENDBRANCH   1  23
TORSDOF 6
ENDMDL
MODEL 7
REMARK VINA RESULT:      -8.4      2.645      4.448
REMARK  Name = 42608083
REMARK  6 active torsions:
REMARK  status: ('A' for Active; 'I' for Inactive)
REMARK    1  A    between atoms: O_2  and  C_16
REMARK    2  A    between atoms: O_2  and  C_18
REMARK    3  A    between atoms: O_8  and  C_23
REMARK    4  A    between atoms: O_11  and  C_31
REMARK    5  A    between atoms: C_15  and  C_17
REMARK    6  A    between atoms: C_19  and  C_20
REMARK                            x       y       z     vdW  Elec       q    Type
REMARK                         _______ _______ _______ _____ _____    ______ ____
ROOT
ATOM      1  C   UNL     1     112.276 126.533 140.172  0.00  0.00    +0.000 A 
ATOM      2  C   UNL     1     112.427 126.227 138.785  0.00  0.00    +0.000 A 
ATOM      3  C   UNL     1     111.960 126.252 139.465  0.00  0.00    +0.000 A 
ATOM      4  C   UNL     1     113.059 126.791 140.201  0.00  0.00    +0.000 A 
ATOM      5  C   UNL     1     113.210 126.484 138.813  0.00  0.00    +0.000 A 
ATOM      6  C   UNL     1     113.526 126.767 139.521  0.00  0.00    +0.000 A 
ENDROOT
BRANCH   2  10
ATOM      7  O   UNL     1     111.789 126.472 137.530  0.00  0.00    +0.000 OA
ATOM      8  O   UNL     1     111.806 124.045 137.047  0.00  0.00    +0.000 OA
ATOM      9  O   UNL     1     111.162 124.264 135.775  0.00  0.00    +0.000 OA
ATOM     10  C   UNL     1     112.110 125.945 138.076  0.00  0.00    +0.000 C 
ATOM     11  C   UNL     1     112.117 125.136 137.916  0.00  0.00    +0.000 C 
ATOM     12  C   UNL     1     111.800 124.854 137.208  0.00  0.00    +0.000 C 
ATOM     13  C   UNL     1     111.478 125.381 136.661  0.00  0.00    +0.000 A 
ATOM     14  C   UNL     1     111.473 126.190 136.822  0.00  0.00    +0.000 A 
ATOM     15  C   UNL     1     111.152 125.075 135.927  0.00  0.00    +0.000 A 
ATOM     16  C   UNL     1     111.140 126.749 136.261  0.00  0.00    +0.000 A 
ATOM     17  C   UNL     1     110.809 126.462 135.521  0.00  0.00    +0.000 A 
ATOM     18  C   UNL     1     110.816 125.619 135.354  0.00  0.00    +0.000 A 
BRANCH  17  19
ATOM     19  O   UNL     1     110.488 126.991 134.976  0.00  0.00    +0.000 OA
ATOM     20  C   UNL     1     109.698 127.219 135.039  0.00  0.00    +0.000 C 
ENDBRANCH  17  19
ENDBRANCH   2  10
BRANCH   4  21
ATOM     21  O   UNL     1     113.376 127.073 140.908  0.00  0.00    +0.000 OA
ATOM     22  C   UNL     1     114.188 127.198 140.977  0.00  0.00    +0.000 C 
ENDBRANCH   4  21
BRANCH   1  23
ATOM     23  O   UNL     1     111.809 126.558 140.852  0.00  0.00    +0.000 OA
BRANCH  23  32
ATOM     24  O   UNL     1     110.940 127.640 140.510  0.00  0.00    +0.000 OA
ATOM     25  O   UNL     1     109.002 126.347 141.347  0.00  0.00    +0.000 OA
ATOM     26  O   UNL     1     108.779 127.860 140.727  0.00  0.00    +0.000 OA
ATOM     27  O   UNL     1     110.517 125.696 141.410  0.00  0.00    +0.000 OA
ATOM     28  C   UNL     1     109.648 126.778 141.068  0.00  0.00    +0.000 C 
ATOM     29  C   UNL     1     109.537 127.534 140.758  0.00  0.00    +0.000 C 
ATOM     30  C   UNL     1     110.406 126.452 141.100  0.00  0.00    +0.000 C 
ATOM     31  C   UNL     1     110.183 127.965 140.479  0.00  0.00    +0.000 C 
ATOM     32  C   UNL     1     111.051 126.883 140.821  0.00  0.00    +0.000 C 
BRANCH  31  34
ATOM     33  O   UNL     1     110.589 129.331 140.373  0.00  0.00    +0.000 OA
ATOM     34  C   UNL     1     110.071 128.722 140.169  0.00  0.00    +0.000 C 
ENDBRANCH  31  34
ENDBRANCH  23  32
ENDBRANCH   1  23
TORSDOF 6
ENDMDL
MODEL 8
REMARK VINA RESULT:      -8.4      9.920     13.022
REMARK  Name = 42608083
REMARK  6 active torsions:
REMARK  status: ('A' for Active; 'I' for Inactive)
REMARK    1  A    between atoms: O_2  and  C_16
REMARK    2  A    between atoms: O_2  and  C_18
REMARK    3  A    between atoms: O_8  and  C_23
REMARK    4  A    between atoms: O_11  and  C_31
REMARK    5  A    between atoms: C_15  and  C_17
REMARK    6  A    between atoms: C_19  and  C_20
REMARK                            x       y       z     vdW  Elec       q    Type
REMARK                         _______ _______ _______ _____ _____    ______ ____
ROOT
ATOM      1  C   UNL     1     106.558 125.058 146.948  0.00  0.00    +0.000 A 
ATOM      2  C   UNL     1     105.528 125.289 147.909  0.00  0.00    +0.000 A 
ATOM      3  C   UNL     1     105.758 125.129 147.133  0.00  0.00    +0.000 A 
ATOM      4  C   UNL     1     107.129 125.146 147.537  0.00  0.00    +0.000 A 
ATOM      5  C   UNL     1     106.097 125.377 148.500  0.00  0.00    +0.000 A 
ATOM      6  C   UNL     1     106.898 125.305 148.313  0.00  0.00    +0.000 A 
ENDROOT
BRANCH   2  10
ATOM      7  O   UNL     1     104.422 126.090 148.332  0.00  0.00    +0.000 OA
ATOM      8  O   UNL     1     102.935 124.117 148.181  0.00  0.00    +0.000 OA
ATOM      9  O   UNL     1     101.802 124.903 148.606  0.00  0.00    +0.000 OA
ATOM     10  C   UNL     1     104.727 125.361 148.096  0.00  0.00    +0.000 C 
ATOM     11  C   UNL     1     104.232 124.703 148.045  0.00  0.00    +0.000 C 
ATOM     12  C   UNL     1     103.430 124.775 148.231  0.00  0.00    +0.000 C 
ATOM     13  C   UNL     1     103.126 125.504 148.468  0.00  0.00    +0.000 A 
ATOM     14  C   UNL     1     103.622 126.161 148.518  0.00  0.00    +0.000 A 
ATOM     15  C   UNL     1     102.291 125.566 148.659  0.00  0.00    +0.000 A 
ATOM     16  C   UNL     1     103.316 126.926 148.763  0.00  0.00    +0.000 A 
ATOM     17  C   UNL     1     102.483 127.007 148.959  0.00  0.00    +0.000 A 
ATOM     18  C   UNL     1     101.967 126.322 148.906  0.00  0.00    +0.000 A 
BRANCH  17  19
ATOM     19  O   UNL     1     102.181 127.738 149.195  0.00  0.00    +0.000 OA
ATOM     20  C   UNL     1     101.991 128.308 148.630  0.00  0.00    +0.000 C 
ENDBRANCH  17  19
ENDBRANCH   2  10
BRANCH   4  21
ATOM     21  O   UNL     1     107.929 125.074 147.352  0.00  0.00    +0.000 OA
ATOM     22  C   UNL     1     108.486 124.983 147.953  0.00  0.00    +0.000 C 
ENDBRANCH   4  21
BRANCH   1  23
ATOM     23  O   UNL     1     106.789 124.898 146.172  0.00  0.00    +0.000 OA
BRANCH  23  32
ATOM     24  O   UNL     1     106.598 126.175 145.559  0.00  0.00    +0.000 OA
ATOM     25  O   UNL     1     105.410 125.093 143.676  0.00  0.00    +0.000 OA
ATOM     26  O   UNL     1     105.614 126.730 143.691  0.00  0.00    +0.000 OA
ATOM     27  O   UNL     1     105.997 124.177 144.917  0.00  0.00    +0.000 OA
ATOM     28  C   UNL     1     105.806 125.454 144.304  0.00  0.00    +0.000 C 
ATOM     29  C   UNL     1     105.908 126.271 144.311  0.00  0.00    +0.000 C 
ATOM     30  C   UNL     1     106.099 124.995 144.924  0.00  0.00    +0.000 C 
ATOM     31  C   UNL     1     106.304 126.632 144.938  0.00  0.00    +0.000 C 
ATOM     32  C   UNL     1     106.495 125.356 145.551  0.00  0.00    +0.000 C 
BRANCH  31  34
ATOM     33  O   UNL     1     107.138 127.773 145.150  0.00  0.00    +0.000 OA
ATOM     34  C   UNL     1     106.406 127.451 144.946  0.00  0.00    +0.000 C 
ENDBRANCH  31  34
ENDBRANCH  23  32
ENDBRANCH   1  23
TORSDOF 6
ENDMDL
MODEL 9
REMARK VINA RESULT:      -8.3      2.126      3.713
REMARK  Name = 42608083
REMARK  6 active torsions:
REMARK  status: ('A' for Active; 'I' for Inactive)
REMARK    1  A    between atoms: O_2  and  C_16
REMARK    2  A    between atoms: O_2  and  C_18
REMARK    3  A    between atoms: O_8  and  C_23
REMARK    4  A    between atoms: O_11  and  C_31
REMARK    5  A    between atoms: C_15  and  C_17
REMARK    6  A    between atoms: C_19  and  C_20
REMARK                            x       y       z     vdW  Elec       q    Type
REMARK                         _______ _______ _______ _____ _____    ______ ____
ROOT
ATOM      1  C   UNL     1     113.481 126.443 137.027  0.00  0.00    +0.000 A 
ATOM      2  C   UNL     1     113.412 126.339 138.450  0.00  0.00    +0.000 A 
ATOM      3  C   UNL     1     113.171 126.698 137.747  0.00  0.00    +0.000 A 
ATOM      4  C   UNL     1     114.032 125.829 137.008  0.00  0.00    +0.000 A 
ATOM      5  C   UNL     1     113.963 125.725 138.433  0.00  0.00    +0.000 A 
ATOM      6  C   UNL     1     114.273 125.470 137.711  0.00  0.00    +0.000 A 
ENDROOT
BRANCH   2  10
ATOM      7  O   UNL     1     112.336 126.380 139.390  0.00  0.00    +0.000 OA
ATOM      8  O   UNL     1     113.705 127.787 140.896  0.00  0.00    +0.000 OA
ATOM      9  O   UNL     1     112.635 127.844 141.862  0.00  0.00    +0.000 OA
ATOM     10  C   UNL     1     113.102 126.594 139.171  0.00  0.00    +0.000 C 
ATOM     11  C   UNL     1     113.559 127.063 139.673  0.00  0.00    +0.000 C 
ATOM     12  C   UNL     1     113.248 127.318 140.395  0.00  0.00    +0.000 C 
ATOM     13  C   UNL     1     112.482 127.104 140.613  0.00  0.00    +0.000 A 
ATOM     14  C   UNL     1     112.026 126.634 140.110  0.00  0.00    +0.000 A 
ATOM     15  C   UNL     1     112.171 127.375 141.366  0.00  0.00    +0.000 A 
ATOM     16  C   UNL     1     111.227 126.405 140.327  0.00  0.00    +0.000 A 
ATOM     17  C   UNL     1     110.899 126.667 141.077  0.00  0.00    +0.000 A 
ATOM     18  C   UNL     1     111.374 127.156 141.600  0.00  0.00    +0.000 A 
BRANCH  17  19
ATOM     19  O   UNL     1     110.132 126.451 141.293  0.00  0.00    +0.000 OA
ATOM     20  C   UNL     1     109.502 126.961 141.141  0.00  0.00    +0.000 C 
ENDBRANCH  17  19
ENDBRANCH   2  10
BRANCH   4  21
ATOM     21  O   UNL     1     114.342 125.574 136.288  0.00  0.00    +0.000 OA
ATOM     22  C   UNL     1     115.006 125.084 136.274  0.00  0.00    +0.000 C 
ENDBRANCH   4  21
BRANCH   1  23
ATOM     23  O   UNL     1     113.240 126.802 136.324  0.00  0.00    +0.000 OA
BRANCH  23  32
ATOM     24  O   UNL     1     111.954 126.199 136.165  0.00  0.00    +0.000 OA
ATOM     25  O   UNL     1     110.991 128.405 135.590  0.00  0.00    +0.000 OA
ATOM     26  O   UNL     1     110.026 127.066 135.623  0.00  0.00    +0.000 OA
ATOM     27  O   UNL     1     112.598 128.272 135.941  0.00  0.00    +0.000 OA
ATOM     28  C   UNL     1     111.312 127.669 135.782  0.00  0.00    +0.000 C 
ATOM     29  C   UNL     1     110.830 127.001 135.798  0.00  0.00    +0.000 C 
ATOM     30  C   UNL     1     112.116 127.604 135.957  0.00  0.00    +0.000 C 
ATOM     31  C   UNL     1     111.151 126.265 135.990  0.00  0.00    +0.000 C 
ATOM     32  C   UNL     1     112.437 126.869 136.149  0.00  0.00    +0.000 C 
BRANCH  31  34
ATOM     33  O   UNL     1     110.940 124.885 135.687  0.00  0.00    +0.000 OA
ATOM     34  C   UNL     1     110.669 125.596 136.006  0.00  0.00    +0.000 C 
ENDBRANCH  31  34
ENDBRANCH  23  32
ENDBRANCH   1  23
TORSDOF 6
ENDMDL
MODEL 10
REMARK VINA RESULT:      -8.3      1.973      3.593
REMARK  Name = 42608083
REMARK  6 active torsions:
REMARK  status: ('A' for Active; 'I' for Inactive)
REMARK    1  A    between atoms: O_2  and  C_16
REMARK    2  A    between atoms: O_2  and  C_18
REMARK    3  A    between atoms: O_8  and  C_23
REMARK    4  A    between atoms: O_11  and  C_31
REMARK    5  A    between atoms: C_15  and  C_17
REMARK    6  A    between atoms: C_19  and  C_20
REMARK                            x       y       z     vdW  Elec       q    Type
REMARK                         _______ _______ _______ _____ _____    ______ ____
ROOT
ATOM      1  C   UNL     1     113.186 126.344 137.376  0.00  0.00    +0.000 A 
ATOM      2  C   UNL     1     113.455 126.712 138.729  0.00  0.00    +0.000 A 
ATOM      3  C   UNL     1     113.027 126.817 138.032  0.00  0.00    +0.000 A 
ATOM      4  C   UNL     1     113.773 125.765 137.415  0.00  0.00    +0.000 A 
ATOM      5  C   UNL     1     114.042 126.134 138.770  0.00  0.00    +0.000 A 
ATOM      6  C   UNL     1     114.201 125.660 138.113  0.00  0.00    +0.000 A 
ENDROOT
BRANCH   2  10
ATOM      7  O   UNL     1     113.551 127.970 139.401  0.00  0.00    +0.000 OA
ATOM      8  O   UNL     1     112.309 127.035 141.327  0.00  0.00    +0.000 OA
ATOM      9  O   UNL     1     112.392 128.294 142.028  0.00  0.00    +0.000 OA
ATOM     10  C   UNL     1     113.296 127.185 139.387  0.00  0.00    +0.000 C 
ATOM     11  C   UNL     1     112.882 126.873 140.028  0.00  0.00    +0.000 C 
ATOM     12  C   UNL     1     112.723 127.347 140.686  0.00  0.00    +0.000 C 
ATOM     13  C   UNL     1     112.978 128.131 140.701  0.00  0.00    +0.000 A 
ATOM     14  C   UNL     1     113.392 128.442 140.058  0.00  0.00    +0.000 A 
ATOM     15  C   UNL     1     112.807 128.614 141.390  0.00  0.00    +0.000 A 
ATOM     16  C   UNL     1     113.663 129.258 140.062  0.00  0.00    +0.000 A 
ATOM     17  C   UNL     1     113.501 129.756 140.743  0.00  0.00    +0.000 A 
ATOM     18  C   UNL     1     113.069 129.431 141.412  0.00  0.00    +0.000 A 
BRANCH  17  19
ATOM     19  O   UNL     1     113.757 130.540 140.755  0.00  0.00    +0.000 OA
ATOM     20  C   UNL     1     114.537 130.716 140.956  0.00  0.00    +0.000 C 
ENDBRANCH  17  19
ENDBRANCH   2  10
BRANCH   4  21
ATOM     21  O   UNL     1     113.932 125.292 136.759  0.00  0.00    +0.000 OA
ATOM     22  C   UNL     1     114.425 124.635 136.833  0.00  0.00    +0.000 C 
ENDBRANCH   4  21
BRANCH   1  23
ATOM     23  O   UNL     1     112.758 126.449 136.678  0.00  0.00    +0.000 OA
BRANCH  23  32
ATOM     24  O   UNL     1     113.368 127.650 136.201  0.00  0.00    +0.000 OA
ATOM     25  O   UNL     1     111.137 128.555 135.627  0.00  0.00    +0.000 OA
ATOM     26  O   UNL     1     112.491 129.454 135.342  0.00  0.00    +0.000 OA
ATOM     27  O   UNL     1     111.270 127.052 136.296  0.00  0.00    +0.000 OA
ATOM     28  C   UNL     1     111.881 128.253 135.819  0.00  0.00    +0.000 C 
ATOM     29  C   UNL     1     112.557 128.703 135.676  0.00  0.00    +0.000 C 
ATOM     30  C   UNL     1     111.947 127.502 136.153  0.00  0.00    +0.000 C 
ATOM     31  C   UNL     1     113.300 128.401 135.867  0.00  0.00    +0.000 C 
ATOM     32  C   UNL     1     112.690 127.200 136.344  0.00  0.00    +0.000 C 
BRANCH  31  34
ATOM     33  O   UNL     1     114.641 128.499 135.383  0.00  0.00    +0.000 OA
ATOM     34  C   UNL     1     113.978 128.851 135.724  0.00  0.00    +0.000 C 
ENDBRANCH  31  34
ENDBRANCH  23  32
ENDBRANCH   1  23
TORSDOF 6
ENDMDL
