MODEL 1
REMARK VINA RESULT:      -9.9      0.000      0.000
REMARK  Name = 131752184
REMARK  3 active torsions:
REMARK  status: ('A' for Active; 'I' for Inactive)
REMARK    1  A    between atoms: C_12  and  C_17
REMARK    2  A    between atoms: C_16  and  C_23
REMARK    3  A    between atoms: C_21  and  C_27
REMARK                            x       y       z     vdW  Elec       q    Type
REMARK                         _______ _______ _______ _____ _____    ______ ____
ROOT
ATOM      1  O   UNL     1     105.409 125.120 147.742  0.00  0.00    +0.000 OA
ATOM      2  O   UNL     1     104.498 124.287 149.612  0.00  0.00    +0.000 OA
ATOM      3  O   UNL     1     108.176 125.443 147.010  0.00  0.00    +0.000 OA
ATOM      4  O   UNL     1     107.519 124.309 149.550  0.00  0.00    +0.000 OA
ATOM      5  C   UNL     1     106.807 125.277 147.385  0.00  0.00    +0.000 A 
ATOM      6  C   UNL     1     106.242 125.033 147.934  0.00  0.00    +0.000 A 
ATOM      7  C   UNL     1     106.479 124.711 148.655  0.00  0.00    +0.000 A 
ATOM      8  C   UNL     1     105.062 124.532 149.061  0.00  0.00    +0.000 C 
ATOM      9  C   UNL     1     104.815 124.868 148.310  0.00  0.00    +0.000 C 
ATOM     10  C   UNL     1     105.899 124.453 149.235  0.00  0.00    +0.000 C 
ATOM     11  C   UNL     1     107.610 125.199 147.559  0.00  0.00    +0.000 A 
ATOM     12  C   UNL     1     107.281 124.632 148.828  0.00  0.00    +0.000 A 
ATOM     13  C   UNL     1     107.847 124.876 148.280  0.00  0.00    +0.000 A 
ENDROOT
BRANCH   5  18
ATOM     14  O   UNL     1     106.353 125.104 146.042  0.00  0.00    +0.000 OA
ATOM     15  O   UNL     1     106.770 126.915 147.188  0.00  0.00    +0.000 OA
ATOM     16  O   UNL     1     106.296 127.560 145.745  0.00  0.00    +0.000 OA
ATOM     17  O   UNL     1     105.860 126.568 144.500  0.00  0.00    +0.000 OA
ATOM     18  C   UNL     1     106.571 125.600 146.665  0.00  0.00    +0.000 C 
ATOM     19  C   UNL     1     106.551 126.418 146.565  0.00  0.00    +0.000 C 
ATOM     20  C   UNL     1     106.315 126.741 145.844  0.00  0.00    +0.000 C 
ATOM     21  C   UNL     1     106.097 126.245 145.222  0.00  0.00    +0.000 C 
ATOM     22  C   UNL     1     106.116 125.427 145.321  0.00  0.00    +0.000 C 
BRANCH  22  24
ATOM     23  O   UNL     1     106.231 124.177 144.637  0.00  0.00    +0.000 OA
ATOM     24  C   UNL     1     105.898 124.930 144.699  0.00  0.00    +0.000 C 
ENDBRANCH  22  24
ENDBRANCH   5  18
BRANCH   9  27
ATOM     25  O   UNL     1     102.423 123.833 147.135  0.00  0.00    +0.000 OA
ATOM     26  O   UNL     1     101.606 125.187 147.607  0.00  0.00    +0.000 OA
ATOM     27  C   UNL     1     104.013 124.948 148.134  0.00  0.00    +0.000 A 
ATOM     28  C   UNL     1     103.619 124.351 147.723  0.00  0.00    +0.000 A 
ATOM     29  C   UNL     1     103.604 125.624 148.370  0.00  0.00    +0.000 A 
ATOM     30  C   UNL     1     102.816 124.430 147.547  0.00  0.00    +0.000 A 
ATOM     31  C   UNL     1     102.801 125.704 148.194  0.00  0.00    +0.000 A 
ATOM     32  C   UNL     1     102.408 125.107 147.783  0.00  0.00    +0.000 A 
ENDBRANCH   9  27
TORSDOF 3
ENDMDL
MODEL 2
REMARK VINA RESULT:      -9.7     11.043     13.616
REMARK  Name = 131752184
REMARK  3 active torsions:
REMARK  status: ('A' for Active; 'I' for Inactive)
REMARK    1  A    between atoms: C_12  and  C_17
REMARK    2  A    between atoms: C_16  and  C_23
REMARK    3  A    between atoms: C_21  and  C_27
REMARK                            x       y       z     vdW  Elec       q    Type
REMARK                         _______ _______ _______ _____ _____    ______ ____
ROOT
ATOM      1  O   UNL     1     112.158 127.096 136.190  0.00  0.00    +0.000 OA
ATOM      2  O   UNL     1     111.143 128.427 134.701  0.00  0.00    +0.000 OA
ATOM      3  O   UNL     1     111.690 124.325 136.826  0.00  0.00    +0.000 OA
ATOM      4  O   UNL     1     110.103 125.592 134.814  0.00  0.00    +0.000 OA
ATOM      5  C   UNL     1     111.912 125.699 136.501  0.00  0.00    +0.000 A 
ATOM      6  C   UNL     1     111.721 126.368 136.058  0.00  0.00    +0.000 A 
ATOM      7  C   UNL     1     111.118 126.332 135.495  0.00  0.00    +0.000 A 
ATOM      8  C   UNL     1     111.336 127.759 135.146  0.00  0.00    +0.000 C 
ATOM      9  C   UNL     1     111.964 127.796 135.732  0.00  0.00    +0.000 C 
ATOM     10  C   UNL     1     110.911 127.023 135.027  0.00  0.00    +0.000 C 
ATOM     11  C   UNL     1     111.500 124.995 136.382  0.00  0.00    +0.000 A 
ATOM     12  C   UNL     1     110.707 125.628 135.377  0.00  0.00    +0.000 A 
ATOM     13  C   UNL     1     110.897 124.959 135.820  0.00  0.00    +0.000 A 
ENDROOT
BRANCH   5  18
ATOM     14  O   UNL     1     112.361 126.038 137.814  0.00  0.00    +0.000 OA
ATOM     15  O   UNL     1     113.426 125.164 136.122  0.00  0.00    +0.000 OA
ATOM     16  O   UNL     1     114.631 125.235 137.246  0.00  0.00    +0.000 OA
ATOM     17  O   UNL     1     114.324 125.842 138.750  0.00  0.00    +0.000 OA
ATOM     18  C   UNL     1     112.514 125.735 137.063  0.00  0.00    +0.000 C 
ATOM     19  C   UNL     1     113.271 125.467 136.874  0.00  0.00    +0.000 C 
ATOM     20  C   UNL     1     113.874 125.503 137.436  0.00  0.00    +0.000 C 
ATOM     21  C   UNL     1     113.720 125.806 138.187  0.00  0.00    +0.000 C 
ATOM     22  C   UNL     1     112.964 126.074 138.376  0.00  0.00    +0.000 C 
BRANCH  22  24
ATOM     23  O   UNL     1     112.139 126.129 139.543  0.00  0.00    +0.000 OA
ATOM     24  C   UNL     1     112.809 126.377 139.128  0.00  0.00    +0.000 C 
ENDBRANCH  22  24
ENDBRANCH   5  18
BRANCH   9  27
ATOM     25  O   UNL     1     114.216 129.469 135.180  0.00  0.00    +0.000 OA
ATOM     26  O   UNL     1     113.621 130.610 136.214  0.00  0.00    +0.000 OA
ATOM     27  C   UNL     1     112.378 128.500 135.852  0.00  0.00    +0.000 A 
ATOM     28  C   UNL     1     113.089 128.633 135.456  0.00  0.00    +0.000 A 
ATOM     29  C   UNL     1     112.081 129.070 136.368  0.00  0.00    +0.000 A 
ATOM     30  C   UNL     1     113.504 129.336 135.576  0.00  0.00    +0.000 A 
ATOM     31  C   UNL     1     112.495 129.773 136.489  0.00  0.00    +0.000 A 
ATOM     32  C   UNL     1     113.207 129.907 136.093  0.00  0.00    +0.000 A 
ENDBRANCH   9  27
TORSDOF 3
ENDMDL
MODEL 3
REMARK VINA RESULT:      -9.5     10.722     13.147
REMARK  Name = 131752184
REMARK  3 active torsions:
REMARK  status: ('A' for Active; 'I' for Inactive)
REMARK    1  A    between atoms: C_12  and  C_17
REMARK    2  A    between atoms: C_16  and  C_23
REMARK    3  A    between atoms: C_21  and  C_27
REMARK                            x       y       z     vdW  Elec       q    Type
REMARK                         _______ _______ _______ _____ _____    ______ ____
ROOT
ATOM      1  O   UNL     1     112.509 126.587 136.615  0.00  0.00    +0.000 OA
ATOM      2  O   UNL     1     114.633 127.202 136.259  0.00  0.00    +0.000 OA
ATOM      3  O   UNL     1     111.385 123.973 137.066  0.00  0.00    +0.000 OA
ATOM      4  O   UNL     1     114.202 124.239 136.658  0.00  0.00    +0.000 OA
ATOM      5  C   UNL     1     111.955 125.263 136.841  0.00  0.00    +0.000 A 
ATOM      6  C   UNL     1     112.615 125.738 136.698  0.00  0.00    +0.000 A 
ATOM      7  C   UNL     1     113.363 125.396 136.637  0.00  0.00    +0.000 A 
ATOM      8  C   UNL     1     113.971 126.731 136.402  0.00  0.00    +0.000 C 
ATOM      9  C   UNL     1     113.192 127.086 136.466  0.00  0.00    +0.000 C 
ATOM     10  C   UNL     1     114.058 125.880 136.489  0.00  0.00    +0.000 C 
ATOM     11  C   UNL     1     112.045 124.448 136.923  0.00  0.00    +0.000 A 
ATOM     12  C   UNL     1     113.452 124.581 136.719  0.00  0.00    +0.000 A 
ATOM     13  C   UNL     1     112.793 124.106 136.862  0.00  0.00    +0.000 A 
ENDROOT
BRANCH   5  18
ATOM     14  O   UNL     1     110.776 125.778 136.221  0.00  0.00    +0.000 OA
ATOM     15  O   UNL     1     111.321 125.598 138.326  0.00  0.00    +0.000 OA
ATOM     16  O   UNL     1     109.823 126.281 138.448  0.00  0.00    +0.000 OA
ATOM     17  O   UNL     1     108.961 126.629 137.085  0.00  0.00    +0.000 OA
ATOM     18  C   UNL     1     111.207 125.604 136.902  0.00  0.00    +0.000 C 
ATOM     19  C   UNL     1     110.889 125.772 137.644  0.00  0.00    +0.000 C 
ATOM     20  C   UNL     1     110.141 126.114 137.705  0.00  0.00    +0.000 C 
ATOM     21  C   UNL     1     109.710 126.287 137.024  0.00  0.00    +0.000 C 
ATOM     22  C   UNL     1     110.027 126.120 136.282  0.00  0.00    +0.000 C 
BRANCH  22  24
ATOM     23  O   UNL     1     109.708 125.843 134.916  0.00  0.00    +0.000 OA
ATOM     24  C   UNL     1     109.597 126.293 135.599  0.00  0.00    +0.000 C 
ENDBRANCH  22  24
ENDBRANCH   5  18
BRANCH   9  27
ATOM     25  O   UNL     1     112.677 129.367 134.821  0.00  0.00    +0.000 OA
ATOM     26  O   UNL     1     112.824 130.349 136.139  0.00  0.00    +0.000 OA
ATOM     27  C   UNL     1     113.100 127.902 136.384  0.00  0.00    +0.000 A 
ATOM     28  C   UNL     1     112.935 128.226 135.644  0.00  0.00    +0.000 A 
ATOM     29  C   UNL     1     113.173 128.393 137.042  0.00  0.00    +0.000 A 
ATOM     30  C   UNL     1     112.842 129.042 135.561  0.00  0.00    +0.000 A 
ATOM     31  C   UNL     1     113.081 129.209 136.960  0.00  0.00    +0.000 A 
ATOM     32  C   UNL     1     112.916 129.534 136.220  0.00  0.00    +0.000 A 
ENDBRANCH   9  27
TORSDOF 3
ENDMDL
MODEL 4
REMARK VINA RESULT:      -9.5     11.220     12.986
REMARK  Name = 131752184
REMARK  3 active torsions:
REMARK  status: ('A' for Active; 'I' for Inactive)
REMARK    1  A    between atoms: C_12  and  C_17
REMARK    2  A    between atoms: C_16  and  C_23
REMARK    3  A    between atoms: C_21  and  C_27
REMARK                            x       y       z     vdW  Elec       q    Type
REMARK                         _______ _______ _______ _____ _____    ______ ____
ROOT
ATOM      1  O   UNL     1     111.755 127.607 136.252  0.00  0.00    +0.000 OA
ATOM      2  O   UNL     1     111.480 129.517 135.115  0.00  0.00    +0.000 OA
ATOM      3  O   UNL     1     114.168 126.211 136.979  0.00  0.00    +0.000 OA
ATOM      4  O   UNL     1     114.349 128.652 135.502  0.00  0.00    +0.000 OA
ATOM      5  C   UNL     1     112.979 126.913 136.612  0.00  0.00    +0.000 A 
ATOM      6  C   UNL     1     112.614 127.554 136.244  0.00  0.00    +0.000 A 
ATOM      7  C   UNL     1     113.070 128.133 135.874  0.00  0.00    +0.000 A 
ATOM      8  C   UNL     1     111.843 128.875 135.485  0.00  0.00    +0.000 C 
ATOM      9  C   UNL     1     111.368 128.272 135.870  0.00  0.00    +0.000 C 
ATOM     10  C   UNL     1     112.700 128.806 135.486  0.00  0.00    +0.000 C 
ATOM     11  C   UNL     1     113.802 126.852 136.610  0.00  0.00    +0.000 A 
ATOM     12  C   UNL     1     113.892 128.072 135.872  0.00  0.00    +0.000 A 
ATOM     13  C   UNL     1     114.258 127.432 136.241  0.00  0.00    +0.000 A 
ENDROOT
BRANCH   5  18
ATOM     14  O   UNL     1     112.200 125.719 136.539  0.00  0.00    +0.000 OA
ATOM     15  O   UNL     1     112.715 126.986 138.239  0.00  0.00    +0.000 OA
ATOM     16  O   UNL     1     111.802 125.828 138.978  0.00  0.00    +0.000 OA
ATOM     17  O   UNL     1     111.154 124.596 138.092  0.00  0.00    +0.000 OA
ATOM     18  C   UNL     1     112.524 126.334 136.982  0.00  0.00    +0.000 C 
ATOM     19  C   UNL     1     112.391 126.370 137.795  0.00  0.00    +0.000 C 
ATOM     20  C   UNL     1     111.934 125.791 138.165  0.00  0.00    +0.000 C 
ATOM     21  C   UNL     1     111.611 125.176 137.721  0.00  0.00    +0.000 C 
ATOM     22  C   UNL     1     111.743 125.139 136.908  0.00  0.00    +0.000 C 
BRANCH  22  24
ATOM     23  O   UNL     1     111.100 124.678 135.718  0.00  0.00    +0.000 OA
ATOM     24  C   UNL     1     111.420 124.524 136.464  0.00  0.00    +0.000 C 
ENDBRANCH  22  24
ENDBRANCH   5  18
BRANCH   9  27
ATOM     25  O   UNL     1     108.952 129.116 137.141  0.00  0.00    +0.000 OA
ATOM     26  O   UNL     1     108.076 128.508 135.882  0.00  0.00    +0.000 OA
ATOM     27  C   UNL     1     110.545 128.331 135.872  0.00  0.00    +0.000 A 
ATOM     28  C   UNL     1     110.160 128.694 136.505  0.00  0.00    +0.000 A 
ATOM     29  C   UNL     1     110.107 128.027 135.243  0.00  0.00    +0.000 A 
ATOM     30  C   UNL     1     109.337 128.753 136.509  0.00  0.00    +0.000 A 
ATOM     31  C   UNL     1     109.285 128.086 135.246  0.00  0.00    +0.000 A 
ATOM     32  C   UNL     1     108.899 128.449 135.879  0.00  0.00    +0.000 A 
ENDBRANCH   9  27
TORSDOF 3
ENDMDL
MODEL 5
REMARK VINA RESULT:      -9.4     11.828     12.875
REMARK  Name = 131752184
REMARK  3 active torsions:
REMARK  status: ('A' for Active; 'I' for Inactive)
REMARK    1  A    between atoms: C_12  and  C_17
REMARK    2  A    between atoms: C_16  and  C_23
REMARK    3  A    between atoms: C_21  and  C_27
REMARK                            x       y       z     vdW  Elec       q    Type
REMARK                         _______ _______ _______ _____ _____    ______ ____
ROOT
ATOM      1  O   UNL     1     111.340 126.593 136.211  0.00  0.00    +0.000 OA
ATOM      2  O   UNL     1     109.698 125.677 134.992  0.00  0.00    +0.000 OA
ATOM      3  O   UNL     1     113.594 125.359 137.513  0.00  0.00    +0.000 OA
ATOM      4  O   UNL     1     111.751 123.732 136.055  0.00  0.00    +0.000 OA
ATOM      5  C   UNL     1     112.472 125.959 136.863  0.00  0.00    +0.000 A 
ATOM      6  C   UNL     1     111.791 125.887 136.403  0.00  0.00    +0.000 A 
ATOM      7  C   UNL     1     111.551 125.145 136.134  0.00  0.00    +0.000 A 
ATOM      8  C   UNL     1     110.379 125.752 135.452  0.00  0.00    +0.000 C 
ATOM      9  C   UNL     1     110.629 126.525 135.732  0.00  0.00    +0.000 C 
ATOM     10  C   UNL     1     110.842 125.057 135.654  0.00  0.00    +0.000 C 
ATOM     11  C   UNL     1     112.912 125.288 137.053  0.00  0.00    +0.000 A 
ATOM     12  C   UNL     1     111.991 124.475 136.324  0.00  0.00    +0.000 A 
ATOM     13  C   UNL     1     112.672 124.546 136.784  0.00  0.00    +0.000 A 
ENDROOT
BRANCH   5  18
ATOM     14  O   UNL     1     113.131 127.204 136.632  0.00  0.00    +0.000 OA
ATOM     15  O   UNL     1     112.113 126.433 138.401  0.00  0.00    +0.000 OA
ATOM     16  O   UNL     1     112.593 127.917 138.939  0.00  0.00    +0.000 OA
ATOM     17  O   UNL     1     113.433 128.926 137.939  0.00  0.00    +0.000 OA
ATOM     18  C   UNL     1     112.712 126.700 137.131  0.00  0.00    +0.000 C 
ATOM     19  C   UNL     1     112.533 126.938 137.900  0.00  0.00    +0.000 C 
ATOM     20  C   UNL     1     112.773 127.680 138.170  0.00  0.00    +0.000 C 
ATOM     21  C   UNL     1     113.192 128.184 137.669  0.00  0.00    +0.000 C 
ATOM     22  C   UNL     1     113.371 127.946 136.901  0.00  0.00    +0.000 C 
BRANCH  22  24
ATOM     23  O   UNL     1     114.207 128.140 135.757  0.00  0.00    +0.000 OA
ATOM     24  C   UNL     1     113.791 128.450 136.400  0.00  0.00    +0.000 C 
ENDBRANCH  22  24
ENDBRANCH   5  18
BRANCH   9  27
ATOM     25  O   UNL     1     108.539 128.372 136.356  0.00  0.00    +0.000 OA
ATOM     26  O   UNL     1     108.872 129.214 134.976  0.00  0.00    +0.000 OA
ATOM     27  C   UNL     1     110.190 127.197 135.543  0.00  0.00    +0.000 A 
ATOM     28  C   UNL     1     109.584 127.448 136.044  0.00  0.00    +0.000 A 
ATOM     29  C   UNL     1     110.356 127.618 134.854  0.00  0.00    +0.000 A 
ATOM     30  C   UNL     1     109.144 128.121 135.855  0.00  0.00    +0.000 A 
ATOM     31  C   UNL     1     109.917 128.290 134.665  0.00  0.00    +0.000 A 
ATOM     32  C   UNL     1     109.311 128.542 135.165  0.00  0.00    +0.000 A 
ENDBRANCH   9  27
TORSDOF 3
ENDMDL
MODEL 6
REMARK VINA RESULT:      -9.3     11.891     13.228
REMARK  Name = 131752184
REMARK  3 active torsions:
REMARK  status: ('A' for Active; 'I' for Inactive)
REMARK    1  A    between atoms: C_12  and  C_17
REMARK    2  A    between atoms: C_16  and  C_23
REMARK    3  A    between atoms: C_21  and  C_27
REMARK                            x       y       z     vdW  Elec       q    Type
REMARK                         _______ _______ _______ _____ _____    ______ ____
ROOT
ATOM      1  O   UNL     1     110.384 127.972 135.944  0.00  0.00    +0.000 OA
ATOM      2  O   UNL     1     108.585 126.646 135.789  0.00  0.00    +0.000 OA
ATOM      3  O   UNL     1     110.573 130.846 135.985  0.00  0.00    +0.000 OA
ATOM      4  O   UNL     1     108.004 129.610 135.770  0.00  0.00    +0.000 OA
ATOM      5  C   UNL     1     110.465 129.422 135.964  0.00  0.00    +0.000 A 
ATOM      6  C   UNL     1     110.001 128.741 135.921  0.00  0.00    +0.000 A 
ATOM      7  C   UNL     1     109.181 128.804 135.856  0.00  0.00    +0.000 A 
ATOM      8  C   UNL     1     109.052 127.325 135.832  0.00  0.00    +0.000 C 
ATOM      9  C   UNL     1     109.906 127.259 135.900  0.00  0.00    +0.000 C 
ATOM     10  C   UNL     1     108.687 128.102 135.810  0.00  0.00    +0.000 C 
ATOM     11  C   UNL     1     110.109 130.165 135.942  0.00  0.00    +0.000 A 
ATOM     12  C   UNL     1     108.825 129.547 135.834  0.00  0.00    +0.000 A 
ATOM     13  C   UNL     1     109.289 130.228 135.877  0.00  0.00    +0.000 A 
ENDROOT
BRANCH   5  18
ATOM     14  O   UNL     1     111.634 129.255 136.768  0.00  0.00    +0.000 OA
ATOM     15  O   UNL     1     111.407 129.503 134.612  0.00  0.00    +0.000 OA
ATOM     16  O   UNL     1     113.047 129.377 134.741  0.00  0.00    +0.000 OA
ATOM     17  O   UNL     1     113.746 129.170 136.223  0.00  0.00    +0.000 OA
ATOM     18  C   UNL     1     111.285 129.359 136.028  0.00  0.00    +0.000 C 
ATOM     19  C   UNL     1     111.756 129.399 135.353  0.00  0.00    +0.000 C 
ATOM     20  C   UNL     1     112.577 129.337 135.418  0.00  0.00    +0.000 C 
ATOM     21  C   UNL     1     112.925 129.233 136.158  0.00  0.00    +0.000 C 
ATOM     22  C   UNL     1     112.454 129.192 136.833  0.00  0.00    +0.000 C 
BRANCH  22  24
ATOM     23  O   UNL     1     112.374 129.264 138.259  0.00  0.00    +0.000 OA
ATOM     24  C   UNL     1     112.802 129.088 137.574  0.00  0.00    +0.000 C 
ENDBRANCH  22  24
ENDBRANCH   5  18
BRANCH   9  27
ATOM     25  O   UNL     1     111.001 125.082 137.394  0.00  0.00    +0.000 OA
ATOM     26  O   UNL     1     111.342 124.289 135.988  0.00  0.00    +0.000 OA
ATOM     27  C   UNL     1     110.265 126.517 135.922  0.00  0.00    +0.000 A 
ATOM     28  C   UNL     1     110.453 126.171 136.647  0.00  0.00    +0.000 A 
ATOM     29  C   UNL     1     110.436 126.120 135.219  0.00  0.00    +0.000 A 
ATOM     30  C   UNL     1     110.812 125.428 136.669  0.00  0.00    +0.000 A 
ATOM     31  C   UNL     1     110.794 125.377 135.241  0.00  0.00    +0.000 A 
ATOM     32  C   UNL     1     110.983 125.031 135.966  0.00  0.00    +0.000 A 
ENDBRANCH   9  27
TORSDOF 3
ENDMDL
