MODEL 1
REMARK VINA RESULT:     -10.6      0.000      0.000
REMARK  Name = 44257812
REMARK  6 active torsions:
REMARK  status: ('A' for Active; 'I' for Inactive)
REMARK    1  A    between atoms: O_1  and  C_15
REMARK    2  A    between atoms: O_1  and  C_18
REMARK    3  A    between atoms: O_5  and  C_20
REMARK    4  A    between atoms: O_5  and  C_27
REMARK    5  A    between atoms: C_21  and  C_25
REMARK    6  A    between atoms: C_34  and  C_36
REMARK                            x       y       z     vdW  Elec       q    Type
REMARK                         _______ _______ _______ _____ _____    ______ ____
ROOT
ATOM      1  O   UNL     1     106.269 128.697 142.224  0.00  0.00    +0.000 OA
ATOM      2  O   UNL     1     107.643 126.680 142.632  0.00  0.00    +0.000 OA
ATOM      3  O   UNL     1     108.343 128.047 142.030  0.00  0.00    +0.000 OA
ATOM      4  C   UNL     1     106.376 127.341 142.661  0.00  0.00    +0.000 C 
ATOM      5  C   UNL     1     107.185 127.352 142.496  0.00  0.00    +0.000 C 
ATOM      6  C   UNL     1     107.535 128.036 142.195  0.00  0.00    +0.000 C 
ATOM      7  C   UNL     1     105.918 128.014 142.525  0.00  0.00    +0.000 C 
ATOM      8  C   UNL     1     107.077 128.709 142.059  0.00  0.00    +0.000 C 
ENDROOT
BRANCH   8  10
ATOM      9  O   UNL     1     107.246 129.646 140.994  0.00  0.00    +0.000 OA
ATOM     10  C   UNL     1     107.427 129.392 141.758  0.00  0.00    +0.000 C 
ENDBRANCH   8  10
BRANCH   4  11
ATOM     11  O   UNL     1     106.027 126.658 142.962  0.00  0.00    +0.000 OA
BRANCH  11  16
ATOM     12  O   UNL     1     106.306 127.059 144.306  0.00  0.00    +0.000 OA
ATOM     13  O   UNL     1     105.804 125.104 143.473  0.00  0.00    +0.000 OA
ATOM     14  O   UNL     1     105.972 124.729 145.070  0.00  0.00    +0.000 OA
ATOM     15  O   UNL     1     106.362 125.906 146.158  0.00  0.00    +0.000 OA
ATOM     16  C   UNL     1     106.111 126.470 143.762  0.00  0.00    +0.000 C 
ATOM     17  C   UNL     1     105.999 125.693 144.016  0.00  0.00    +0.000 C 
ATOM     18  C   UNL     1     106.083 125.505 144.816  0.00  0.00    +0.000 C 
ATOM     19  C   UNL     1     106.278 126.094 145.360  0.00  0.00    +0.000 C 
ATOM     20  C   UNL     1     106.390 126.871 145.104  0.00  0.00    +0.000 C 
ATOM     21  C   UNL     1     106.585 127.459 145.648  0.00  0.00    +0.000 C 
ENDBRANCH  11  16
ENDBRANCH   4  11
BRANCH   7  22
ATOM     22  O   UNL     1     105.111 128.003 142.690  0.00  0.00    +0.000 OA
BRANCH  22  26
ATOM     23  O   UNL     1     103.244 130.104 141.927  0.00  0.00    +0.000 OA
ATOM     24  O   UNL     1     103.686 127.875 140.144  0.00  0.00    +0.000 OA
ATOM     25  O   UNL     1     102.769 128.933 139.799  0.00  0.00    +0.000 OA
ATOM     26  C   UNL     1     104.575 128.323 142.151  0.00  0.00    +0.000 A 
ATOM     27  C   UNL     1     104.178 129.066 142.324  0.00  0.00    +0.000 A 
ATOM     28  C   UNL     1     104.410 127.917 141.412  0.00  0.00    +0.000 A 
ATOM     29  C   UNL     1     103.622 129.391 141.756  0.00  0.00    +0.000 A 
ATOM     30  C   UNL     1     103.850 128.258 140.856  0.00  0.00    +0.000 A 
ATOM     31  C   UNL     1     103.464 129.001 141.047  0.00  0.00    +0.000 A 
ATOM     32  C   UNL     1     102.927 129.323 140.509  0.00  0.00    +0.000 A 
ATOM     33  C   UNL     1     102.708 130.427 141.390  0.00  0.00    +0.000 A 
ATOM     34  C   UNL     1     102.549 130.036 140.680  0.00  0.00    +0.000 A 
BRANCH  33  36
ATOM     35  O   UNL     1     101.195 133.278 142.076  0.00  0.00    +0.000 OA
ATOM     36  C   UNL     1     102.329 131.140 141.561  0.00  0.00    +0.000 A 
ATOM     37  C   UNL     1     102.703 131.856 141.393  0.00  0.00    +0.000 A 
ATOM     38  C   UNL     1     101.577 131.136 141.901  0.00  0.00    +0.000 A 
ATOM     39  C   UNL     1     102.325 132.568 141.565  0.00  0.00    +0.000 A 
ATOM     40  C   UNL     1     101.199 131.849 142.073  0.00  0.00    +0.000 A 
ATOM     41  C   UNL     1     101.573 132.565 141.905  0.00  0.00    +0.000 A 
ENDBRANCH  33  36
ENDBRANCH  22  26
ENDBRANCH   7  22
TORSDOF 6
ENDMDL
MODEL 2
REMARK VINA RESULT:     -10.5      7.365     10.570
REMARK  Name = 44257812
REMARK  6 active torsions:
REMARK  status: ('A' for Active; 'I' for Inactive)
REMARK    1  A    between atoms: O_1  and  C_15
REMARK    2  A    between atoms: O_1  and  C_18
REMARK    3  A    between atoms: O_5  and  C_20
REMARK    4  A    between atoms: O_5  and  C_27
REMARK    5  A    between atoms: C_21  and  C_25
REMARK    6  A    between atoms: C_34  and  C_36
REMARK                            x       y       z     vdW  Elec       q    Type
REMARK                         _______ _______ _______ _____ _____    ______ ____
ROOT
ATOM      1  O   UNL     1     110.609 129.353 135.901  0.00  0.00    +0.000 OA
ATOM      2  O   UNL     1     108.588 129.845 137.243  0.00  0.00    +0.000 OA
ATOM      3  O   UNL     1     108.438 129.315 135.689  0.00  0.00    +0.000 OA
ATOM      4  C   UNL     1     110.012 129.782 137.126  0.00  0.00    +0.000 C 
ATOM      5  C   UNL     1     109.262 129.681 136.796  0.00  0.00    +0.000 C 
ATOM      6  C   UNL     1     109.187 129.416 136.018  0.00  0.00    +0.000 C 
ATOM      7  C   UNL     1     110.685 129.618 136.679  0.00  0.00    +0.000 C 
ATOM      8  C   UNL     1     109.860 129.252 135.571  0.00  0.00    +0.000 C 
ENDROOT
BRANCH   8  10
ATOM      9  O   UNL     1     109.923 128.194 134.612  0.00  0.00    +0.000 OA
ATOM     10  C   UNL     1     109.785 128.987 134.794  0.00  0.00    +0.000 C 
ENDBRANCH   8  10
BRANCH   4  11
ATOM     11  O   UNL     1     110.087 130.047 137.904  0.00  0.00    +0.000 OA
BRANCH  11  16
ATOM     12  O   UNL     1     110.088 131.401 137.444  0.00  0.00    +0.000 OA
ATOM     13  O   UNL     1     110.108 130.578 139.466  0.00  0.00    +0.000 OA
ATOM     14  O   UNL     1     110.119 132.196 139.787  0.00  0.00    +0.000 OA
ATOM     15  O   UNL     1     110.111 133.284 138.546  0.00  0.00    +0.000 OA
ATOM     16  C   UNL     1     110.093 130.857 138.064  0.00  0.00    +0.000 C 
ATOM     17  C   UNL     1     110.103 131.122 138.845  0.00  0.00    +0.000 C 
ATOM     18  C   UNL     1     110.109 131.932 139.006  0.00  0.00    +0.000 C 
ATOM     19  C   UNL     1     110.105 132.475 138.385  0.00  0.00    +0.000 C 
ATOM     20  C   UNL     1     110.094 132.209 137.604  0.00  0.00    +0.000 C 
ATOM     21  C   UNL     1     110.090 132.753 136.984  0.00  0.00    +0.000 C 
ENDBRANCH  11  16
ENDBRANCH   4  11
BRANCH   7  22
ATOM     22  O   UNL     1     111.434 129.719 137.009  0.00  0.00    +0.000 OA
BRANCH  22  26
ATOM     23  O   UNL     1     112.944 127.233 136.851  0.00  0.00    +0.000 OA
ATOM     24  O   UNL     1     113.855 129.550 135.385  0.00  0.00    +0.000 OA
ATOM     25  O   UNL     1     114.578 128.303 135.330  0.00  0.00    +0.000 OA
ATOM     26  C   UNL     1     112.074 129.288 136.718  0.00  0.00    +0.000 A 
ATOM     27  C   UNL     1     112.179 128.464 136.941  0.00  0.00    +0.000 A 
ATOM     28  C   UNL     1     112.642 129.658 136.190  0.00  0.00    +0.000 A 
ATOM     29  C   UNL     1     112.849 128.023 136.633  0.00  0.00    +0.000 A 
ATOM     30  C   UNL     1     113.306 129.202 135.892  0.00  0.00    +0.000 A 
ATOM     31  C   UNL     1     113.393 128.380 136.126  0.00  0.00    +0.000 A 
ATOM     32  C   UNL     1     114.033 127.946 135.837  0.00  0.00    +0.000 A 
ATOM     33  C   UNL     1     113.584 126.799 136.561  0.00  0.00    +0.000 A 
ATOM     34  C   UNL     1     114.128 127.156 136.054  0.00  0.00    +0.000 A 
BRANCH  33  36
ATOM     35  O   UNL     1     113.966 123.639 137.432  0.00  0.00    +0.000 OA
ATOM     36  C   UNL     1     113.679 126.009 136.779  0.00  0.00    +0.000 A 
ATOM     37  C   UNL     1     113.218 125.425 136.423  0.00  0.00    +0.000 A 
ATOM     38  C   UNL     1     114.236 125.804 137.353  0.00  0.00    +0.000 A 
ATOM     39  C   UNL     1     113.314 124.635 136.640  0.00  0.00    +0.000 A 
ATOM     40  C   UNL     1     114.331 125.014 137.570  0.00  0.00    +0.000 A 
ATOM     41  C   UNL     1     113.870 124.430 137.214  0.00  0.00    +0.000 A 
ENDBRANCH  33  36
ENDBRANCH  22  26
ENDBRANCH   7  22
TORSDOF 6
ENDMDL
MODEL 3
REMARK VINA RESULT:     -10.3      6.953     10.175
REMARK  Name = 44257812
REMARK  6 active torsions:
REMARK  status: ('A' for Active; 'I' for Inactive)
REMARK    1  A    between atoms: O_1  and  C_15
REMARK    2  A    between atoms: O_1  and  C_18
REMARK    3  A    between atoms: O_5  and  C_20
REMARK    4  A    between atoms: O_5  and  C_27
REMARK    5  A    between atoms: C_21  and  C_25
REMARK    6  A    between atoms: C_34  and  C_36
REMARK                            x       y       z     vdW  Elec       q    Type
REMARK                         _______ _______ _______ _____ _____    ______ ____
ROOT
ATOM      1  O   UNL     1     111.183 129.853 138.104  0.00  0.00    +0.000 OA
ATOM      2  O   UNL     1     108.770 130.177 138.552  0.00  0.00    +0.000 OA
ATOM      3  O   UNL     1     109.864 130.324 139.777  0.00  0.00    +0.000 OA
ATOM      4  C   UNL     1     109.832 129.887 137.639  0.00  0.00    +0.000 C 
ATOM      5  C   UNL     1     109.574 130.069 138.402  0.00  0.00    +0.000 C 
ATOM      6  C   UNL     1     110.122 130.143 139.015  0.00  0.00    +0.000 C 
ATOM      7  C   UNL     1     110.636 129.779 137.490  0.00  0.00    +0.000 C 
ATOM      8  C   UNL     1     110.926 130.035 138.866  0.00  0.00    +0.000 C 
ENDROOT
BRANCH   8  10
ATOM      9  O   UNL     1     112.055 130.691 139.445  0.00  0.00    +0.000 OA
ATOM     10  C   UNL     1     111.472 130.108 139.479  0.00  0.00    +0.000 C 
ENDBRANCH   8  10
BRANCH   4  11
ATOM     11  O   UNL     1     109.285 129.814 137.027  0.00  0.00    +0.000 OA
BRANCH  11  16
ATOM     12  O   UNL     1     109.441 131.193 136.686  0.00  0.00    +0.000 OA
ATOM     13  O   UNL     1     107.912 129.744 136.114  0.00  0.00    +0.000 OA
ATOM     14  O   UNL     1     107.382 131.088 135.317  0.00  0.00    +0.000 OA
ATOM     15  O   UNL     1     108.225 132.502 135.433  0.00  0.00    +0.000 OA
ATOM     16  C   UNL     1     109.020 130.486 136.628  0.00  0.00    +0.000 C 
ATOM     17  C   UNL     1     108.333 130.451 136.172  0.00  0.00    +0.000 C 
ATOM     18  C   UNL     1     108.068 131.123 135.773  0.00  0.00    +0.000 C 
ATOM     19  C   UNL     1     108.490 131.830 135.831  0.00  0.00    +0.000 C 
ATOM     20  C   UNL     1     109.176 131.865 136.287  0.00  0.00    +0.000 C 
ATOM     21  C   UNL     1     109.598 132.571 136.345  0.00  0.00    +0.000 C 
ENDBRANCH  11  16
ENDBRANCH   4  11
BRANCH   7  22
ATOM     22  O   UNL     1     110.893 129.598 136.728  0.00  0.00    +0.000 OA
BRANCH  22  26
ATOM     23  O   UNL     1     111.903 126.865 136.698  0.00  0.00    +0.000 OA
ATOM     24  O   UNL     1     113.690 129.051 136.085  0.00  0.00    +0.000 OA
ATOM     25  O   UNL     1     114.155 127.686 136.080  0.00  0.00    +0.000 OA
ATOM     26  C   UNL     1     111.514 129.065 136.618  0.00  0.00    +0.000 A 
ATOM     27  C   UNL     1     111.383 128.221 136.718  0.00  0.00    +0.000 A 
ATOM     28  C   UNL     1     112.296 129.349 136.404  0.00  0.00    +0.000 A 
ATOM     29  C   UNL     1     112.035 127.674 136.601  0.00  0.00    +0.000 A 
ATOM     30  C   UNL     1     112.935 128.787 136.291  0.00  0.00    +0.000 A 
ATOM     31  C   UNL     1     112.785 127.948 136.395  0.00  0.00    +0.000 A 
ATOM     32  C   UNL     1     113.404 127.413 136.286  0.00  0.00    +0.000 A 
ATOM     33  C   UNL     1     112.521 126.330 136.589  0.00  0.00    +0.000 A 
ATOM     34  C   UNL     1     113.272 126.604 136.383  0.00  0.00    +0.000 A 
BRANCH  33  36
ATOM     35  O   UNL     1     111.994 123.096 136.976  0.00  0.00    +0.000 OA
ATOM     36  C   UNL     1     112.389 125.522 136.685  0.00  0.00    +0.000 A 
ATOM     37  C   UNL     1     111.828 125.137 136.219  0.00  0.00    +0.000 A 
ATOM     38  C   UNL     1     112.819 125.099 137.249  0.00  0.00    +0.000 A 
ATOM     39  C   UNL     1     111.697 124.328 136.316  0.00  0.00    +0.000 A 
ATOM     40  C   UNL     1     112.687 124.290 137.346  0.00  0.00    +0.000 A 
ATOM     41  C   UNL     1     112.126 123.905 136.879  0.00  0.00    +0.000 A 
ENDBRANCH  33  36
ENDBRANCH  22  26
ENDBRANCH   7  22
TORSDOF 6
ENDMDL
MODEL 4
REMARK VINA RESULT:     -10.3      3.503      5.933
REMARK  Name = 44257812
REMARK  6 active torsions:
REMARK  status: ('A' for Active; 'I' for Inactive)
REMARK    1  A    between atoms: O_1  and  C_15
REMARK    2  A    between atoms: O_1  and  C_18
REMARK    3  A    between atoms: O_5  and  C_20
REMARK    4  A    between atoms: O_5  and  C_27
REMARK    5  A    between atoms: C_21  and  C_25
REMARK    6  A    between atoms: C_34  and  C_36
REMARK                            x       y       z     vdW  Elec       q    Type
REMARK                         _______ _______ _______ _____ _____    ______ ____
ROOT
ATOM      1  O   UNL     1     106.382 126.659 141.370  0.00  0.00    +0.000 OA
ATOM      2  O   UNL     1     108.396 127.341 142.636  0.00  0.00    +0.000 OA
ATOM      3  O   UNL     1     106.968 128.131 142.870  0.00  0.00    +0.000 OA
ATOM      4  C   UNL     1     107.767 126.490 141.674  0.00  0.00    +0.000 C 
ATOM      5  C   UNL     1     107.724 127.113 142.214  0.00  0.00    +0.000 C 
ATOM      6  C   UNL     1     107.010 127.509 142.331  0.00  0.00    +0.000 C 
ATOM      7  C   UNL     1     107.096 126.263 141.252  0.00  0.00    +0.000 C 
ATOM      8  C   UNL     1     106.338 127.281 141.909  0.00  0.00    +0.000 C 
ENDROOT
BRANCH   8  10
ATOM      9  O   UNL     1     105.210 127.982 141.381  0.00  0.00    +0.000 OA
ATOM     10  C   UNL     1     105.625 127.677 142.026  0.00  0.00    +0.000 C 
ENDBRANCH   8  10
BRANCH   4  11
ATOM     11  O   UNL     1     108.482 126.095 141.558  0.00  0.00    +0.000 OA
BRANCH  11  16
ATOM     12  O   UNL     1     108.873 127.079 140.597  0.00  0.00    +0.000 OA
ATOM     13  O   UNL     1     109.975 125.400 141.453  0.00  0.00    +0.000 OA
ATOM     14  O   UNL     1     111.112 126.036 140.441  0.00  0.00    +0.000 OA
ATOM     15  O   UNL     1     110.756 127.367 139.532  0.00  0.00    +0.000 OA
ATOM     16  C   UNL     1     109.051 126.413 141.051  0.00  0.00    +0.000 C 
ATOM     17  C   UNL     1     109.797 126.066 140.999  0.00  0.00    +0.000 C 
ATOM     18  C   UNL     1     110.366 126.384 140.492  0.00  0.00    +0.000 C 
ATOM     19  C   UNL     1     110.188 127.049 140.038  0.00  0.00    +0.000 C 
ATOM     20  C   UNL     1     109.441 127.396 140.091  0.00  0.00    +0.000 C 
ATOM     21  C   UNL     1     109.263 128.062 139.637  0.00  0.00    +0.000 C 
ENDBRANCH  11  16
ENDBRANCH   4  11
BRANCH   7  22
ATOM     22  O   UNL     1     107.139 125.640 140.714  0.00  0.00    +0.000 OA
BRANCH  22  26
ATOM     23  O   UNL     1     104.938 124.329 139.327  0.00  0.00    +0.000 OA
ATOM     24  O   UNL     1     105.682 123.446 141.976  0.00  0.00    +0.000 OA
ATOM     25  O   UNL     1     104.597 122.820 141.260  0.00  0.00    +0.000 OA
ATOM     26  C   UNL     1     106.544 125.069 140.695  0.00  0.00    +0.000 A 
ATOM     27  C   UNL     1     106.038 124.994 140.004  0.00  0.00    +0.000 A 
ATOM     28  C   UNL     1     106.425 124.545 141.365  0.00  0.00    +0.000 A 
ATOM     29  C   UNL     1     105.420 124.397 139.993  0.00  0.00    +0.000 A 
ATOM     30  C   UNL     1     105.803 123.954 141.336  0.00  0.00    +0.000 A 
ATOM     31  C   UNL     1     105.307 123.894 140.637  0.00  0.00    +0.000 A 
ATOM     32  C   UNL     1     104.711 123.324 140.616  0.00  0.00    +0.000 A 
ATOM     33  C   UNL     1     104.342 123.759 139.306  0.00  0.00    +0.000 A 
ATOM     34  C   UNL     1     104.229 123.256 139.950  0.00  0.00    +0.000 A 
BRANCH  33  36
ATOM     35  O   UNL     1     102.411 123.490 136.643  0.00  0.00    +0.000 OA
ATOM     36  C   UNL     1     103.859 123.692 138.640  0.00  0.00    +0.000 A 
ATOM     37  C   UNL     1     104.171 123.407 137.931  0.00  0.00    +0.000 A 
ATOM     38  C   UNL     1     103.064 123.910 138.684  0.00  0.00    +0.000 A 
ATOM     39  C   UNL     1     103.688 123.340 137.266  0.00  0.00    +0.000 A 
ATOM     40  C   UNL     1     102.582 123.842 138.018  0.00  0.00    +0.000 A 
ATOM     41  C   UNL     1     102.894 123.557 137.309  0.00  0.00    +0.000 A 
ENDBRANCH  33  36
ENDBRANCH  22  26
ENDBRANCH   7  22
TORSDOF 6
ENDMDL
MODEL 5
REMARK VINA RESULT:     -10.2      6.377      8.265
REMARK  Name = 44257812
REMARK  6 active torsions:
REMARK  status: ('A' for Active; 'I' for Inactive)
REMARK    1  A    between atoms: O_1  and  C_15
REMARK    2  A    between atoms: O_1  and  C_18
REMARK    3  A    between atoms: O_5  and  C_20
REMARK    4  A    between atoms: O_5  and  C_27
REMARK    5  A    between atoms: C_21  and  C_25
REMARK    6  A    between atoms: C_34  and  C_36
REMARK                            x       y       z     vdW  Elec       q    Type
REMARK                         _______ _______ _______ _____ _____    ______ ____
ROOT
ATOM      1  O   UNL     1     109.887 126.633 138.208  0.00  0.00    +0.000 OA
ATOM      2  O   UNL     1     112.022 125.987 139.280  0.00  0.00    +0.000 OA
ATOM      3  O   UNL     1     110.601 125.814 140.100  0.00  0.00    +0.000 OA
ATOM      4  C   UNL     1     111.309 126.505 138.154  0.00  0.00    +0.000 C 
ATOM      5  C   UNL     1     111.310 126.203 138.923  0.00  0.00    +0.000 C 
ATOM      6  C   UNL     1     110.600 126.116 139.332  0.00  0.00    +0.000 C 
ATOM      7  C   UNL     1     110.597 126.720 137.797  0.00  0.00    +0.000 C 
ATOM      8  C   UNL     1     109.888 126.332 138.975  0.00  0.00    +0.000 C 
ENDROOT
BRANCH   8  10
ATOM      9  O   UNL     1     108.504 125.976 138.992  0.00  0.00    +0.000 OA
ATOM     10  C   UNL     1     109.178 126.245 139.385  0.00  0.00    +0.000 C 
ENDBRANCH   8  10
BRANCH   4  11
ATOM     11  O   UNL     1     112.020 126.591 137.745  0.00  0.00    +0.000 OA
BRANCH  11  16
ATOM     12  O   UNL     1     111.915 125.260 137.235  0.00  0.00    +0.000 OA
ATOM     13  O   UNL     1     113.601 126.646 137.277  0.00  0.00    +0.000 OA
ATOM     14  O   UNL     1     114.287 125.343 136.533  0.00  0.00    +0.000 OA
ATOM     15  O   UNL     1     113.392 123.984 136.258  0.00  0.00    +0.000 OA
ATOM     16  C   UNL     1     112.363 125.939 137.373  0.00  0.00    +0.000 C 
ATOM     17  C   UNL     1     113.154 125.967 137.139  0.00  0.00    +0.000 C 
ATOM     18  C   UNL     1     113.497 125.315 136.767  0.00  0.00    +0.000 C 
ATOM     19  C   UNL     1     113.049 124.635 136.629  0.00  0.00    +0.000 C 
ATOM     20  C   UNL     1     112.258 124.609 136.864  0.00  0.00    +0.000 C 
ATOM     21  C   UNL     1     111.811 123.929 136.726  0.00  0.00    +0.000 C 
ENDBRANCH  11  16
ENDBRANCH   4  11
BRANCH   7  22
ATOM     22  O   UNL     1     110.597 127.022 137.030  0.00  0.00    +0.000 OA
BRANCH  22  26
ATOM     23  O   UNL     1     110.020 129.874 137.181  0.00  0.00    +0.000 OA
ATOM     24  O   UNL     1     108.234 128.134 135.722  0.00  0.00    +0.000 OA
ATOM     25  O   UNL     1     107.980 129.551 135.817  0.00  0.00    +0.000 OA
ATOM     26  C   UNL     1     110.117 127.667 136.841  0.00  0.00    +0.000 A 
ATOM     27  C   UNL     1     110.323 128.455 137.116  0.00  0.00    +0.000 A 
ATOM     28  C   UNL     1     109.409 127.555 136.368  0.00  0.00    +0.000 A 
ATOM     29  C   UNL     1     109.818 129.120 136.914  0.00  0.00    +0.000 A 
ATOM     30  C   UNL     1     108.916 128.232 136.176  0.00  0.00    +0.000 A 
ATOM     31  C   UNL     1     109.138 129.012 136.460  0.00  0.00    +0.000 A 
ATOM     32  C   UNL     1     108.660 129.658 136.272  0.00  0.00    +0.000 A 
ATOM     33  C   UNL     1     109.543 130.520 136.994  0.00  0.00    +0.000 A 
ATOM     34  C   UNL     1     108.863 130.412 136.539  0.00  0.00    +0.000 A 
BRANCH  33  36
ATOM     35  O   UNL     1     110.353 133.535 138.060  0.00  0.00    +0.000 OA
ATOM     36  C   UNL     1     109.745 131.274 137.261  0.00  0.00    +0.000 A 
ATOM     37  C   UNL     1     109.453 131.548 137.981  0.00  0.00    +0.000 A 
ATOM     38  C   UNL     1     110.240 131.753 136.806  0.00  0.00    +0.000 A 
ATOM     39  C   UNL     1     109.656 132.302 138.247  0.00  0.00    +0.000 A 
ATOM     40  C   UNL     1     110.443 132.507 137.073  0.00  0.00    +0.000 A 
ATOM     41  C   UNL     1     110.151 132.781 137.794  0.00  0.00    +0.000 A 
ENDBRANCH  33  36
ENDBRANCH  22  26
ENDBRANCH   7  22
TORSDOF 6
ENDMDL
MODEL 6
REMARK VINA RESULT:     -10.2      6.650      9.835
REMARK  Name = 44257812
REMARK  6 active torsions:
REMARK  status: ('A' for Active; 'I' for Inactive)
REMARK    1  A    between atoms: O_1  and  C_15
REMARK    2  A    between atoms: O_1  and  C_18
REMARK    3  A    between atoms: O_5  and  C_20
REMARK    4  A    between atoms: O_5  and  C_27
REMARK    5  A    between atoms: C_21  and  C_25
REMARK    6  A    between atoms: C_34  and  C_36
REMARK                            x       y       z     vdW  Elec       q    Type
REMARK                         _______ _______ _______ _____ _____    ______ ____
ROOT
ATOM      1  O   UNL     1     109.654 128.681 136.629  0.00  0.00    +0.000 OA
ATOM      2  O   UNL     1     108.149 130.643 136.751  0.00  0.00    +0.000 OA
ATOM      3  O   UNL     1     108.002 129.566 135.510  0.00  0.00    +0.000 OA
ATOM      4  C   UNL     1     109.227 129.873 137.290  0.00  0.00    +0.000 C 
ATOM      5  C   UNL     1     108.651 129.989 136.710  0.00  0.00    +0.000 C 
ATOM      6  C   UNL     1     108.577 129.450 136.090  0.00  0.00    +0.000 C 
ATOM      7  C   UNL     1     109.728 129.220 137.250  0.00  0.00    +0.000 C 
ATOM      8  C   UNL     1     109.079 128.796 136.049  0.00  0.00    +0.000 C 
ENDROOT
BRANCH   8  10
ATOM      9  O   UNL     1     109.632 128.142 134.906  0.00  0.00    +0.000 OA
ATOM     10  C   UNL     1     109.005 128.258 135.429  0.00  0.00    +0.000 C 
ENDBRANCH   8  10
BRANCH   4  11
ATOM     11  O   UNL     1     109.300 130.412 137.911  0.00  0.00    +0.000 OA
BRANCH  11  16
ATOM     12  O   UNL     1     110.219 131.198 137.147  0.00  0.00    +0.000 OA
ATOM     13  O   UNL     1     109.140 131.649 138.991  0.00  0.00    +0.000 OA
ATOM     14  O   UNL     1     109.979 133.053 138.768  0.00  0.00    +0.000 OA
ATOM     15  O   UNL     1     110.978 133.219 137.465  0.00  0.00    +0.000 OA
ATOM     16  C   UNL     1     109.720 131.115 137.799  0.00  0.00    +0.000 C 
ATOM     17  C   UNL     1     109.640 131.733 138.339  0.00  0.00    +0.000 C 
ATOM     18  C   UNL     1     110.059 132.435 138.228  0.00  0.00    +0.000 C 
ATOM     19  C   UNL     1     110.559 132.518 137.576  0.00  0.00    +0.000 C 
ATOM     20  C   UNL     1     110.638 131.899 137.036  0.00  0.00    +0.000 C 
ATOM     21  C   UNL     1     111.137 131.982 136.385  0.00  0.00    +0.000 C 
ENDBRANCH  11  16
ENDBRANCH   4  11
BRANCH   7  22
ATOM     22  O   UNL     1     110.303 129.105 137.829  0.00  0.00    +0.000 OA
BRANCH  22  26
ATOM     23  O   UNL     1     112.122 126.829 137.811  0.00  0.00    +0.000 OA
ATOM     24  O   UNL     1     109.675 126.685 139.340  0.00  0.00    +0.000 OA
ATOM     25  O   UNL     1     110.599 125.578 139.308  0.00  0.00    +0.000 OA
ATOM     26  C   UNL     1     110.495 128.340 138.073  0.00  0.00    +0.000 A 
ATOM     27  C   UNL     1     111.227 127.973 137.809  0.00  0.00    +0.000 A 
ATOM     28  C   UNL     1     109.967 127.905 138.593  0.00  0.00    +0.000 A 
ATOM     29  C   UNL     1     111.419 127.177 138.068  0.00  0.00    +0.000 A 
ATOM     30  C   UNL     1     110.176 127.110 138.841  0.00  0.00    +0.000 A 
ATOM     31  C   UNL     1     110.911 126.760 138.567  0.00  0.00    +0.000 A 
ATOM     32  C   UNL     1     111.106 125.996 138.809  0.00  0.00    +0.000 A 
ATOM     33  C   UNL     1     112.317 126.065 138.053  0.00  0.00    +0.000 A 
ATOM     34  C   UNL     1     111.809 125.648 138.552  0.00  0.00    +0.000 A 
BRANCH  33  36
ATOM     35  O   UNL     1     115.129 124.677 137.027  0.00  0.00    +0.000 OA
ATOM     36  C   UNL     1     113.020 125.718 137.796  0.00  0.00    +0.000 A 
ATOM     37  C   UNL     1     113.029 125.269 137.104  0.00  0.00    +0.000 A 
ATOM     38  C   UNL     1     113.713 125.821 138.232  0.00  0.00    +0.000 A 
ATOM     39  C   UNL     1     113.732 124.922 136.848  0.00  0.00    +0.000 A 
ATOM     40  C   UNL     1     114.416 125.473 137.975  0.00  0.00    +0.000 A 
ATOM     41  C   UNL     1     114.426 125.024 137.283  0.00  0.00    +0.000 A 
ENDBRANCH  33  36
ENDBRANCH  22  26
ENDBRANCH   7  22
TORSDOF 6
ENDMDL
MODEL 7
REMARK VINA RESULT:     -10.1      6.838     10.388
REMARK  Name = 44257812
REMARK  6 active torsions:
REMARK  status: ('A' for Active; 'I' for Inactive)
REMARK    1  A    between atoms: O_1  and  C_15
REMARK    2  A    between atoms: O_1  and  C_18
REMARK    3  A    between atoms: O_5  and  C_20
REMARK    4  A    between atoms: O_5  and  C_27
REMARK    5  A    between atoms: C_21  and  C_25
REMARK    6  A    between atoms: C_34  and  C_36
REMARK                            x       y       z     vdW  Elec       q    Type
REMARK                         _______ _______ _______ _____ _____    ______ ____
ROOT
ATOM      1  O   UNL     1     112.875 130.130 138.709  0.00  0.00    +0.000 OA
ATOM      2  O   UNL     1     110.987 130.294 140.301  0.00  0.00    +0.000 OA
ATOM      3  O   UNL     1     112.532 130.525 140.828  0.00  0.00    +0.000 OA
ATOM      4  C   UNL     1     111.473 130.069 138.975  0.00  0.00    +0.000 C 
ATOM      5  C   UNL     1     111.616 130.239 139.770  0.00  0.00    +0.000 C 
ATOM      6  C   UNL     1     112.389 130.355 140.033  0.00  0.00    +0.000 C 
ATOM      7  C   UNL     1     112.102 130.015 138.444  0.00  0.00    +0.000 C 
ATOM      8  C   UNL     1     113.019 130.301 139.503  0.00  0.00    +0.000 C 
ENDROOT
BRANCH   8  10
ATOM      9  O   UNL     1     114.268 130.989 139.411  0.00  0.00    +0.000 OA
ATOM     10  C   UNL     1     113.791 130.416 139.766  0.00  0.00    +0.000 C 
ENDBRANCH   8  10
BRANCH   4  11
ATOM     11  O   UNL     1     110.699 129.953 138.712  0.00  0.00    +0.000 OA
BRANCH  11  16
ATOM     12  O   UNL     1     110.574 131.340 138.386  0.00  0.00    +0.000 OA
ATOM     13  O   UNL     1     109.063 129.779 138.599  0.00  0.00    +0.000 OA
ATOM     14  O   UNL     1     108.119 131.078 138.217  0.00  0.00    +0.000 OA
ATOM     15  O   UNL     1     108.813 132.551 137.948  0.00  0.00    +0.000 OA
ATOM     16  C   UNL     1     110.228 130.603 138.521  0.00  0.00    +0.000 C 
ATOM     17  C   UNL     1     109.409 130.516 138.464  0.00  0.00    +0.000 C 
ATOM     18  C   UNL     1     108.937 131.166 138.273  0.00  0.00    +0.000 C 
ATOM     19  C   UNL     1     109.284 131.902 138.139  0.00  0.00    +0.000 C 
ATOM     20  C   UNL     1     110.103 131.988 138.196  0.00  0.00    +0.000 C 
ATOM     21  C   UNL     1     110.450 132.725 138.061  0.00  0.00    +0.000 C 
ENDBRANCH  11  16
ENDBRANCH   4  11
BRANCH   7  22
ATOM     22  O   UNL     1     111.958 129.844 137.651  0.00  0.00    +0.000 OA
BRANCH  22  26
ATOM     23  O   UNL     1     113.051 127.212 137.047  0.00  0.00    +0.000 OA
ATOM     24  O   UNL     1     114.086 129.534 135.674  0.00  0.00    +0.000 OA
ATOM     25  O   UNL     1     114.603 128.216 135.400  0.00  0.00    +0.000 OA
ATOM     26  C   UNL     1     112.483 129.367 137.230  0.00  0.00    +0.000 A 
ATOM     27  C   UNL     1     112.495 128.517 137.360  0.00  0.00    +0.000 A 
ATOM     28  C   UNL     1     113.022 129.714 136.658  0.00  0.00    +0.000 A 
ATOM     29  C   UNL     1     113.044 128.027 136.917  0.00  0.00    +0.000 A 
ATOM     30  C   UNL     1     113.565 129.209 136.225  0.00  0.00    +0.000 A 
ATOM     31  C   UNL     1     113.562 128.362 136.369  0.00  0.00    +0.000 A 
ATOM     32  C   UNL     1     114.085 127.882 135.949  0.00  0.00    +0.000 A 
ATOM     33  C   UNL     1     113.574 126.732 136.627  0.00  0.00    +0.000 A 
ATOM     34  C   UNL     1     114.092 127.067 136.079  0.00  0.00    +0.000 A 
BRANCH  33  36
ATOM     35  O   UNL     1     113.601 123.473 137.145  0.00  0.00    +0.000 OA
ATOM     36  C   UNL     1     113.581 125.917 136.757  0.00  0.00    +0.000 A 
ATOM     37  C   UNL     1     112.974 125.447 136.455  0.00  0.00    +0.000 A 
ATOM     38  C   UNL     1     114.195 125.574 137.188  0.00  0.00    +0.000 A 
ATOM     39  C   UNL     1     112.981 124.633 136.584  0.00  0.00    +0.000 A 
ATOM     40  C   UNL     1     114.201 124.759 137.317  0.00  0.00    +0.000 A 
ATOM     41  C   UNL     1     113.594 124.288 137.015  0.00  0.00    +0.000 A 
ENDBRANCH  33  36
ENDBRANCH  22  26
ENDBRANCH   7  22
TORSDOF 6
ENDMDL
MODEL 8
REMARK VINA RESULT:     -10.1      7.985     10.569
REMARK  Name = 44257812
REMARK  6 active torsions:
REMARK  status: ('A' for Active; 'I' for Inactive)
REMARK    1  A    between atoms: O_1  and  C_15
REMARK    2  A    between atoms: O_1  and  C_18
REMARK    3  A    between atoms: O_5  and  C_20
REMARK    4  A    between atoms: O_5  and  C_27
REMARK    5  A    between atoms: C_21  and  C_25
REMARK    6  A    between atoms: C_34  and  C_36
REMARK                            x       y       z     vdW  Elec       q    Type
REMARK                         _______ _______ _______ _____ _____    ______ ____
ROOT
ATOM      1  O   UNL     1     113.121 129.826 137.031  0.00  0.00    +0.000 OA
ATOM      2  O   UNL     1     112.746 132.268 137.191  0.00  0.00    +0.000 OA
ATOM      3  O   UNL     1     113.946 131.678 136.225  0.00  0.00    +0.000 OA
ATOM      4  C   UNL     1     112.396 130.934 137.568  0.00  0.00    +0.000 C 
ATOM      5  C   UNL     1     112.871 131.454 137.138  0.00  0.00    +0.000 C 
ATOM      6  C   UNL     1     113.471 131.159 136.655  0.00  0.00    +0.000 C 
ATOM      7  C   UNL     1     112.521 130.120 137.515  0.00  0.00    +0.000 C 
ATOM      8  C   UNL     1     113.596 130.345 136.602  0.00  0.00    +0.000 C 
ENDROOT
BRANCH   8  10
ATOM      9  O   UNL     1     114.011 129.558 135.483  0.00  0.00    +0.000 OA
ATOM     10  C   UNL     1     114.196 130.051 136.118  0.00  0.00    +0.000 C 
ENDBRANCH   8  10
BRANCH   4  11
ATOM     11  O   UNL     1     111.796 131.229 138.052  0.00  0.00    +0.000 OA
BRANCH  11  16
ATOM     12  O   UNL     1     110.873 131.185 136.961  0.00  0.00    +0.000 OA
ATOM     13  O   UNL     1     110.717 132.118 138.928  0.00  0.00    +0.000 OA
ATOM     14  O   UNL     1     109.255 132.518 138.275  0.00  0.00    +0.000 OA
ATOM     15  O   UNL     1     108.872 132.029 136.746  0.00  0.00    +0.000 OA
ATOM     16  C   UNL     1     111.065 131.429 137.725  0.00  0.00    +0.000 C 
ATOM     17  C   UNL     1     110.526 131.874 138.163  0.00  0.00    +0.000 C 
ATOM     18  C   UNL     1     109.794 132.074 137.837  0.00  0.00    +0.000 C 
ATOM     19  C   UNL     1     109.603 131.829 137.072  0.00  0.00    +0.000 C 
ATOM     20  C   UNL     1     110.143 131.385 136.635  0.00  0.00    +0.000 C 
ATOM     21  C   UNL     1     109.952 131.140 135.870  0.00  0.00    +0.000 C 
ENDBRANCH  11  16
ENDBRANCH   4  11
BRANCH   7  22
ATOM     22  O   UNL     1     112.046 129.602 137.945  0.00  0.00    +0.000 OA
BRANCH  22  26
ATOM     23  O   UNL     1     112.385 126.718 137.715  0.00  0.00    +0.000 OA
ATOM     24  O   UNL     1     113.632 128.128 139.906  0.00  0.00    +0.000 OA
ATOM     25  O   UNL     1     113.779 126.701 139.760  0.00  0.00    +0.000 OA
ATOM     26  C   UNL     1     112.360 128.893 138.228  0.00  0.00    +0.000 A 
ATOM     27  C   UNL     1     112.205 128.155 137.814  0.00  0.00    +0.000 A 
ATOM     28  C   UNL     1     112.844 128.887 138.938  0.00  0.00    +0.000 A 
ATOM     29  C   UNL     1     112.537 127.422 138.116  0.00  0.00    +0.000 A 
ATOM     30  C   UNL     1     113.166 128.144 139.225  0.00  0.00    +0.000 A 
ATOM     31  C   UNL     1     113.001 127.417 138.798  0.00  0.00    +0.000 A 
ATOM     32  C   UNL     1     113.314 126.707 139.078  0.00  0.00    +0.000 A 
ATOM     33  C   UNL     1     112.698 126.008 137.995  0.00  0.00    +0.000 A 
ATOM     34  C   UNL     1     113.162 126.002 138.677  0.00  0.00    +0.000 A 
BRANCH  33  36
ATOM     35  O   UNL     1     112.090 123.189 136.391  0.00  0.00    +0.000 OA
ATOM     36  C   UNL     1     112.546 125.303 137.594  0.00  0.00    +0.000 A 
ATOM     37  C   UNL     1     113.120 124.979 137.098  0.00  0.00    +0.000 A 
ATOM     38  C   UNL     1     111.819 124.923 137.689  0.00  0.00    +0.000 A 
ATOM     39  C   UNL     1     112.967 124.274 136.697  0.00  0.00    +0.000 A 
ATOM     40  C   UNL     1     111.668 124.218 137.288  0.00  0.00    +0.000 A 
ATOM     41  C   UNL     1     112.242 123.894 136.792  0.00  0.00    +0.000 A 
ENDBRANCH  33  36
ENDBRANCH  22  26
ENDBRANCH   7  22
TORSDOF 6
ENDMDL
MODEL 9
REMARK VINA RESULT:     -10.1      7.602      9.797
REMARK  Name = 44257812
REMARK  6 active torsions:
REMARK  status: ('A' for Active; 'I' for Inactive)
REMARK    1  A    between atoms: O_1  and  C_15
REMARK    2  A    between atoms: O_1  and  C_18
REMARK    3  A    between atoms: O_5  and  C_20
REMARK    4  A    between atoms: O_5  and  C_27
REMARK    5  A    between atoms: C_21  and  C_25
REMARK    6  A    between atoms: C_34  and  C_36
REMARK                            x       y       z     vdW  Elec       q    Type
REMARK                         _______ _______ _______ _____ _____    ______ ____
ROOT
ATOM      1  O   UNL     1     112.555 126.220 137.615  0.00  0.00    +0.000 OA
ATOM      2  O   UNL     1     110.953 124.981 136.192  0.00  0.00    +0.000 OA
ATOM      3  O   UNL     1     112.551 124.574 136.182  0.00  0.00    +0.000 OA
ATOM      4  C   UNL     1     111.221 126.011 137.146  0.00  0.00    +0.000 C 
ATOM      5  C   UNL     1     111.487 125.394 136.666  0.00  0.00    +0.000 C 
ATOM      6  C   UNL     1     112.286 125.191 136.662  0.00  0.00    +0.000 C 
ATOM      7  C   UNL     1     111.755 126.424 137.621  0.00  0.00    +0.000 C 
ATOM      8  C   UNL     1     112.820 125.604 137.136  0.00  0.00    +0.000 C 
ENDROOT
BRANCH   8  10
ATOM      9  O   UNL     1     114.188 125.962 136.927  0.00  0.00    +0.000 OA
ATOM     10  C   UNL     1     113.619 125.400 137.131  0.00  0.00    +0.000 C 
ENDBRANCH   8  10
BRANCH   4  11
ATOM     11  O   UNL     1     110.422 126.215 137.151  0.00  0.00    +0.000 OA
BRANCH  11  16
ATOM     12  O   UNL     1     110.638 127.086 136.038  0.00  0.00    +0.000 OA
ATOM     13  O   UNL     1     108.829 126.644 137.178  0.00  0.00    +0.000 OA
ATOM     14  O   UNL     1     108.248 127.730 136.079  0.00  0.00    +0.000 OA
ATOM     15  O   UNL     1     109.261 128.386 134.954  0.00  0.00    +0.000 OA
ATOM     16  C   UNL     1     110.132 126.758 136.601  0.00  0.00    +0.000 C 
ATOM     17  C   UNL     1     109.335 126.972 136.615  0.00  0.00    +0.000 C 
ATOM     18  C   UNL     1     109.045 127.516 136.065  0.00  0.00    +0.000 C 
ATOM     19  C   UNL     1     109.551 127.844 135.503  0.00  0.00    +0.000 C 
ATOM     20  C   UNL     1     110.348 127.628 135.490  0.00  0.00    +0.000 C 
ATOM     21  C   UNL     1     110.854 127.956 134.927  0.00  0.00    +0.000 C 
ENDBRANCH  11  16
ENDBRANCH   4  11
BRANCH   7  22
ATOM     22  O   UNL     1     111.490 127.040 138.100  0.00  0.00    +0.000 OA
BRANCH  22  26
ATOM     23  O   UNL     1     113.117 128.712 139.844  0.00  0.00    +0.000 OA
ATOM     24  O   UNL     1     112.057 126.217 140.844  0.00  0.00    +0.000 OA
ATOM     25  O   UNL     1     112.866 127.069 141.680  0.00  0.00    +0.000 OA
ATOM     26  C   UNL     1     111.846 127.177 138.831  0.00  0.00    +0.000 A 
ATOM     27  C   UNL     1     112.308 127.891 138.961  0.00  0.00    +0.000 A 
ATOM     28  C   UNL     1     111.760 126.608 139.468  0.00  0.00    +0.000 A 
ATOM     29  C   UNL     1     112.676 128.025 139.726  0.00  0.00    +0.000 A 
ATOM     30  C   UNL     1     112.135 126.759 140.226  0.00  0.00    +0.000 A 
ATOM     31  C   UNL     1     112.592 127.477 140.337  0.00  0.00    +0.000 A 
ATOM     32  C   UNL     1     112.950 127.617 141.067  0.00  0.00    +0.000 A 
ATOM     33  C   UNL     1     113.475 128.851 140.575  0.00  0.00    +0.000 A 
ATOM     34  C   UNL     1     113.391 128.304 141.186  0.00  0.00    +0.000 A 
BRANCH  33  36
ATOM     35  O   UNL     1     115.240 131.598 141.050  0.00  0.00    +0.000 OA
ATOM     36  C   UNL     1     113.916 129.538 140.693  0.00  0.00    +0.000 A 
ATOM     37  C   UNL     1     114.680 129.596 140.386  0.00  0.00    +0.000 A 
ATOM     38  C   UNL     1     113.593 130.167 141.120  0.00  0.00    +0.000 A 
ATOM     39  C   UNL     1     115.120 130.283 140.505  0.00  0.00    +0.000 A 
ATOM     40  C   UNL     1     114.035 130.854 141.238  0.00  0.00    +0.000 A 
ATOM     41  C   UNL     1     114.798 130.911 140.931  0.00  0.00    +0.000 A 
ENDBRANCH  33  36
ENDBRANCH  22  26
ENDBRANCH   7  22
TORSDOF 6
ENDMDL
MODEL 10
REMARK VINA RESULT:     -10.1      7.919      9.027
REMARK  Name = 44257812
REMARK  6 active torsions:
REMARK  status: ('A' for Active; 'I' for Inactive)
REMARK    1  A    between atoms: O_1  and  C_15
REMARK    2  A    between atoms: O_1  and  C_18
REMARK    3  A    between atoms: O_5  and  C_20
REMARK    4  A    between atoms: O_5  and  C_27
REMARK    5  A    between atoms: C_21  and  C_25
REMARK    6  A    between atoms: C_34  and  C_36
REMARK                            x       y       z     vdW  Elec       q    Type
REMARK                         _______ _______ _______ _____ _____    ______ ____
ROOT
ATOM      1  O   UNL     1     112.743 128.861 136.202  0.00  0.00    +0.000 OA
ATOM      2  O   UNL     1     114.001 126.774 136.632  0.00  0.00    +0.000 OA
ATOM      3  O   UNL     1     114.580 127.879 135.553  0.00  0.00    +0.000 OA
ATOM      4  C   UNL     1     112.872 127.613 136.885  0.00  0.00    +0.000 C 
ATOM      5  C   UNL     1     113.582 127.470 136.488  0.00  0.00    +0.000 C 
ATOM      6  C   UNL     1     113.871 128.023 135.949  0.00  0.00    +0.000 C 
ATOM      7  C   UNL     1     112.452 128.309 136.742  0.00  0.00    +0.000 C 
ATOM      8  C   UNL     1     113.451 128.719 135.806  0.00  0.00    +0.000 C 
ENDROOT
BRANCH   8  10
ATOM      9  O   UNL     1     113.287 129.487 134.612  0.00  0.00    +0.000 OA
ATOM     10  C   UNL     1     113.741 129.271 135.267  0.00  0.00    +0.000 C 
ENDBRANCH   8  10
BRANCH   4  11
ATOM     11  O   UNL     1     112.583 127.060 137.424  0.00  0.00    +0.000 OA
BRANCH  11  16
ATOM     12  O   UNL     1     111.835 126.398 136.401  0.00  0.00    +0.000 OA
ATOM     13  O   UNL     1     112.436 125.731 138.391  0.00  0.00    +0.000 OA
ATOM     14  O   UNL     1     111.615 124.405 137.851  0.00  0.00    +0.000 OA
ATOM     15  O   UNL     1     110.941 124.408 136.345  0.00  0.00    +0.000 OA
ATOM     16  C   UNL     1     112.172 126.397 137.154  0.00  0.00    +0.000 C 
ATOM     17  C   UNL     1     112.099 125.732 137.638  0.00  0.00    +0.000 C 
ATOM     18  C   UNL     1     111.688 125.069 137.367  0.00  0.00    +0.000 C 
ATOM     19  C   UNL     1     111.351 125.071 136.614  0.00  0.00    +0.000 C 
ATOM     20  C   UNL     1     111.425 125.736 136.132  0.00  0.00    +0.000 C 
ATOM     21  C   UNL     1     111.088 125.738 135.378  0.00  0.00    +0.000 C 
ENDBRANCH  11  16
ENDBRANCH   4  11
BRANCH   7  22
ATOM     22  O   UNL     1     111.744 128.452 137.138  0.00  0.00    +0.000 OA
BRANCH  22  26
ATOM     23  O   UNL     1     109.873 130.548 136.369  0.00  0.00    +0.000 OA
ATOM     24  O   UNL     1     111.880 131.095 138.373  0.00  0.00    +0.000 OA
ATOM     25  O   UNL     1     110.938 132.109 137.968  0.00  0.00    +0.000 OA
ATOM     26  C   UNL     1     111.462 129.223 137.215  0.00  0.00    +0.000 A 
ATOM     27  C   UNL     1     110.797 129.491 136.740  0.00  0.00    +0.000 A 
ATOM     28  C   UNL     1     111.832 129.766 137.770  0.00  0.00    +0.000 A 
ATOM     29  C   UNL     1     110.511 130.297 136.827  0.00  0.00    +0.000 A 
ATOM     30  C   UNL     1     111.532 130.567 137.843  0.00  0.00    +0.000 A 
ATOM     31  C   UNL     1     110.866 130.817 137.360  0.00  0.00    +0.000 A 
ATOM     32  C   UNL     1     110.583 131.588 137.435  0.00  0.00    +0.000 A 
ATOM     33  C   UNL     1     109.589 131.319 136.444  0.00  0.00    +0.000 A 
ATOM     34  C   UNL     1     109.944 131.839 136.977  0.00  0.00    +0.000 A 
BRANCH  33  36
ATOM     35  O   UNL     1     107.035 132.323 134.612  0.00  0.00    +0.000 OA
ATOM     36  C   UNL     1     108.951 131.570 135.986  0.00  0.00    +0.000 A 
ATOM     37  C   UNL     1     109.083 131.928 135.254  0.00  0.00    +0.000 A 
ATOM     38  C   UNL     1     108.179 131.463 136.260  0.00  0.00    +0.000 A 
ATOM     39  C   UNL     1     108.444 132.179 134.797  0.00  0.00    +0.000 A 
ATOM     40  C   UNL     1     107.541 131.714 135.802  0.00  0.00    +0.000 A 
ATOM     41  C   UNL     1     107.673 132.072 135.070  0.00  0.00    +0.000 A 
ENDBRANCH  33  36
ENDBRANCH  22  26
ENDBRANCH   7  22
TORSDOF 6
ENDMDL
