MODEL 1
REMARK VINA RESULT:      -9.7      0.000      0.000
REMARK  Name = 131752278
REMARK  5 active torsions:
REMARK  status: ('A' for Active; 'I' for Inactive)
REMARK    1  A    between atoms: O_2  and  C_19
REMARK    2  A    between atoms: O_2  and  C_22
REMARK    3  A    between atoms: O_13  and  C_37
REMARK    4  A    between atoms: C_20  and  C_21
REMARK    5  A    between atoms: C_23  and  C_27
REMARK                            x       y       z     vdW  Elec       q    Type
REMARK                         _______ _______ _______ _____ _____    ______ ____
ROOT
ATOM      1  O   UNL     1     103.568 126.482 147.690  0.00  0.00    +0.000 OA
ATOM      2  O   UNL     1     104.343 129.337 149.187  0.00  0.00    +0.000 OA
ATOM      3  O   UNL     1     103.337 129.358 148.319  0.00  0.00    +0.000 OA
ATOM      4  O   UNL     1     105.484 126.450 149.346  0.00  0.00    +0.000 OA
ATOM      5  O   UNL     1     105.279 127.860 149.574  0.00  0.00    +0.000 OA
ATOM      6  C   UNL     1     104.635 125.731 148.400  0.00  0.00    +0.000 A 
ATOM      7  C   UNL     1     103.984 125.745 147.839  0.00  0.00    +0.000 A 
ATOM      8  C   UNL     1     104.860 126.454 148.805  0.00  0.00    +0.000 A 
ATOM      9  C   UNL     1     104.433 127.181 148.643  0.00  0.00    +0.000 A 
ATOM     10  C   UNL     1     103.808 127.196 148.104  0.00  0.00    +0.000 A 
ATOM     11  C   UNL     1     104.654 127.873 149.035  0.00  0.00    +0.000 A 
ATOM     12  C   UNL     1     104.252 128.578 148.889  0.00  0.00    +0.000 A 
ATOM     13  C   UNL     1     103.406 127.900 147.958  0.00  0.00    +0.000 A 
ATOM     14  C   UNL     1     103.627 128.591 148.350  0.00  0.00    +0.000 A 
ATOM     15  C   UNL     1     103.779 129.817 148.835  0.00  0.00    +0.000 C 
ENDROOT
BRANCH   7  18
ATOM     16  O   UNL     1     104.023 124.106 145.497  0.00  0.00    +0.000 OA
ATOM     17  O   UNL     1     102.602 123.243 147.822  0.00  0.00    +0.000 OA
ATOM     18  C   UNL     1     103.760 125.055 147.446  0.00  0.00    +0.000 A 
ATOM     19  C   UNL     1     103.293 124.494 147.830  0.00  0.00    +0.000 A 
ATOM     20  C   UNL     1     104.003 124.926 146.668  0.00  0.00    +0.000 A 
ATOM     21  C   UNL     1     103.780 124.236 146.275  0.00  0.00    +0.000 A 
ATOM     22  C   UNL     1     103.069 123.805 147.437  0.00  0.00    +0.000 A 
ATOM     23  C   UNL     1     103.312 123.675 146.659  0.00  0.00    +0.000 A 
BRANCH  23  24
ATOM     24  O   UNL     1     103.089 122.985 146.266  0.00  0.00    +0.000 OA
ATOM     25  C   UNL     1     102.400 122.973 145.812  0.00  0.00    +0.000 C 
ENDBRANCH  23  24
ENDBRANCH   7  18
BRANCH   6  26
ATOM     26  O   UNL     1     105.040 125.027 148.549  0.00  0.00    +0.000 OA
BRANCH  26  34
ATOM     27  O   UNL     1     106.189 125.359 147.768  0.00  0.00    +0.000 OA
ATOM     28  O   UNL     1     107.625 124.112 149.350  0.00  0.00    +0.000 OA
ATOM     29  O   UNL     1     105.997 124.195 149.604  0.00  0.00    +0.000 OA
ATOM     30  O   UNL     1     108.295 124.859 148.042  0.00  0.00    +0.000 OA
ATOM     31  C   UNL     1     107.147 124.527 148.823  0.00  0.00    +0.000 C 
ATOM     32  C   UNL     1     106.332 124.569 148.950  0.00  0.00    +0.000 C 
ATOM     33  C   UNL     1     107.481 124.901 148.168  0.00  0.00    +0.000 C 
ATOM     34  C   UNL     1     105.853 124.985 148.422  0.00  0.00    +0.000 C 
ATOM     35  C   UNL     1     107.002 125.317 147.641  0.00  0.00    +0.000 C 
BRANCH  35  38
ATOM     36  O   UNL     1     107.334 125.318 146.251  0.00  0.00    +0.000 OA
ATOM     37  O   UNL     1     107.677 126.438 147.068  0.00  0.00    +0.000 OA
ATOM     38  C   UNL     1     107.338 125.691 146.987  0.00  0.00    +0.000 C 
ENDBRANCH  35  38
ENDBRANCH  26  34
ENDBRANCH   6  26
TORSDOF 5
ENDMDL
MODEL 2
REMARK VINA RESULT:      -9.5     10.573     12.879
REMARK  Name = 131752278
REMARK  5 active torsions:
REMARK  status: ('A' for Active; 'I' for Inactive)
REMARK    1  A    between atoms: O_2  and  C_19
REMARK    2  A    between atoms: O_2  and  C_22
REMARK    3  A    between atoms: O_13  and  C_37
REMARK    4  A    between atoms: C_20  and  C_21
REMARK    5  A    between atoms: C_23  and  C_27
REMARK                            x       y       z     vdW  Elec       q    Type
REMARK                         _______ _______ _______ _____ _____    ______ ____
ROOT
ATOM      1  O   UNL     1     110.556 126.519 136.087  0.00  0.00    +0.000 OA
ATOM      2  O   UNL     1     111.845 123.791 137.462  0.00  0.00    +0.000 OA
ATOM      3  O   UNL     1     111.849 123.864 136.136  0.00  0.00    +0.000 OA
ATOM      4  O   UNL     1     110.552 126.372 138.615  0.00  0.00    +0.000 OA
ATOM      5  O   UNL     1     111.185 125.079 138.517  0.00  0.00    +0.000 OA
ATOM      6  C   UNL     1     110.224 127.119 137.405  0.00  0.00    +0.000 A 
ATOM      7  C   UNL     1     110.227 127.166 136.546  0.00  0.00    +0.000 A 
ATOM      8  C   UNL     1     110.551 126.425 137.792  0.00  0.00    +0.000 A 
ATOM      9  C   UNL     1     110.876 125.788 137.316  0.00  0.00    +0.000 A 
ATOM     10  C   UNL     1     110.879 125.832 136.492  0.00  0.00    +0.000 A 
ATOM     11  C   UNL     1     111.188 125.124 137.694  0.00  0.00    +0.000 A 
ATOM     12  C   UNL     1     111.503 124.505 137.248  0.00  0.00    +0.000 A 
ATOM     13  C   UNL     1     111.193 125.214 136.047  0.00  0.00    +0.000 A 
ATOM     14  C   UNL     1     111.505 124.550 136.425  0.00  0.00    +0.000 A 
ATOM     15  C   UNL     1     112.058 123.396 136.776  0.00  0.00    +0.000 C 
ENDROOT
BRANCH   7  18
ATOM     16  O   UNL     1     107.972 128.728 135.744  0.00  0.00    +0.000 OA
ATOM     17  O   UNL     1     110.614 129.580 135.065  0.00  0.00    +0.000 OA
ATOM     18  C   UNL     1     109.916 127.828 136.166  0.00  0.00    +0.000 A 
ATOM     19  C   UNL     1     110.421 128.373 135.805  0.00  0.00    +0.000 A 
ATOM     20  C   UNL     1     109.099 127.947 136.145  0.00  0.00    +0.000 A 
ATOM     21  C   UNL     1     108.788 128.609 135.765  0.00  0.00    +0.000 A 
ATOM     22  C   UNL     1     110.109 129.035 135.425  0.00  0.00    +0.000 A 
ATOM     23  C   UNL     1     109.293 129.154 135.404  0.00  0.00    +0.000 A 
BRANCH  23  24
ATOM     24  O   UNL     1     108.982 129.816 135.024  0.00  0.00    +0.000 OA
ATOM     25  C   UNL     1     108.908 130.530 135.432  0.00  0.00    +0.000 C 
ENDBRANCH  23  24
ENDBRANCH   7  18
BRANCH   6  26
ATOM     26  O   UNL     1     109.910 127.736 137.853  0.00  0.00    +0.000 OA
BRANCH  26  34
ATOM     27  O   UNL     1     111.186 128.268 138.215  0.00  0.00    +0.000 OA
ATOM     28  O   UNL     1     110.232 129.113 140.336  0.00  0.00    +0.000 OA
ATOM     29  O   UNL     1     109.274 128.299 139.268  0.00  0.00    +0.000 OA
ATOM     30  O   UNL     1     111.825 129.363 139.991  0.00  0.00    +0.000 OA
ATOM     31  C   UNL     1     110.550 128.831 139.630  0.00  0.00    +0.000 C 
ATOM     32  C   UNL     1     110.070 128.424 139.094  0.00  0.00    +0.000 C 
ATOM     33  C   UNL     1     111.346 128.956 139.456  0.00  0.00    +0.000 C 
ATOM     34  C   UNL     1     110.389 128.143 138.387  0.00  0.00    +0.000 C 
ATOM     35  C   UNL     1     111.664 128.674 138.749  0.00  0.00    +0.000 C 
BRANCH  35  38
ATOM     36  O   UNL     1     113.035 128.292 138.883  0.00  0.00    +0.000 OA
ATOM     37  O   UNL     1     112.685 129.433 138.098  0.00  0.00    +0.000 OA
ATOM     38  C   UNL     1     112.461 128.800 138.577  0.00  0.00    +0.000 C 
ENDBRANCH  35  38
ENDBRANCH  26  34
ENDBRANCH   6  26
TORSDOF 5
ENDMDL
MODEL 3
REMARK VINA RESULT:      -9.4     11.780     14.090
REMARK  Name = 131752278
REMARK  5 active torsions:
REMARK  status: ('A' for Active; 'I' for Inactive)
REMARK    1  A    between atoms: O_2  and  C_19
REMARK    2  A    between atoms: O_2  and  C_22
REMARK    3  A    between atoms: O_13  and  C_37
REMARK    4  A    between atoms: C_20  and  C_21
REMARK    5  A    between atoms: C_23  and  C_27
REMARK                            x       y       z     vdW  Elec       q    Type
REMARK                         _______ _______ _______ _____ _____    ______ ____
ROOT
ATOM      1  O   UNL     1     113.289 127.784 136.035  0.00  0.00    +0.000 OA
ATOM      2  O   UNL     1     114.576 130.818 135.677  0.00  0.00    +0.000 OA
ATOM      3  O   UNL     1     115.162 129.827 135.015  0.00  0.00    +0.000 OA
ATOM      4  O   UNL     1     112.178 129.681 137.293  0.00  0.00    +0.000 OA
ATOM      5  O   UNL     1     113.148 130.589 136.733  0.00  0.00    +0.000 OA
ATOM      6  C   UNL     1     112.226 128.260 136.957  0.00  0.00    +0.000 A 
ATOM      7  C   UNL     1     112.606 127.618 136.529  0.00  0.00    +0.000 A 
ATOM      8  C   UNL     1     112.536 129.058 136.885  0.00  0.00    +0.000 A 
ATOM      9  C   UNL     1     113.220 129.205 136.387  0.00  0.00    +0.000 A 
ATOM     10  C   UNL     1     113.585 128.589 135.976  0.00  0.00    +0.000 A 
ATOM     11  C   UNL     1     113.512 129.973 136.322  0.00  0.00    +0.000 A 
ATOM     12  C   UNL     1     114.169 130.127 135.847  0.00  0.00    +0.000 A 
ATOM     13  C   UNL     1     114.240 128.743 135.501  0.00  0.00    +0.000 A 
ATOM     14  C   UNL     1     114.533 129.511 135.436  0.00  0.00    +0.000 A 
ATOM     15  C   UNL     1     115.189 130.633 135.164  0.00  0.00    +0.000 C 
ENDROOT
BRANCH   7  18
ATOM     16  O   UNL     1     111.137 125.429 135.427  0.00  0.00    +0.000 OA
ATOM     17  O   UNL     1     112.334 125.190 138.011  0.00  0.00    +0.000 OA
ATOM     18  C   UNL     1     112.316 126.849 136.592  0.00  0.00    +0.000 A 
ATOM     19  C   UNL     1     112.470 126.404 137.270  0.00  0.00    +0.000 A 
ATOM     20  C   UNL     1     111.871 126.524 135.978  0.00  0.00    +0.000 A 
ATOM     21  C   UNL     1     111.581 125.754 136.041  0.00  0.00    +0.000 A 
ATOM     22  C   UNL     1     112.180 125.635 137.333  0.00  0.00    +0.000 A 
ATOM     23  C   UNL     1     111.735 125.309 136.719  0.00  0.00    +0.000 A 
BRANCH  23  24
ATOM     24  O   UNL     1     111.445 124.540 136.782  0.00  0.00    +0.000 OA
ATOM     25  C   UNL     1     111.909 123.902 136.540  0.00  0.00    +0.000 C 
ENDBRANCH  23  24
ENDBRANCH   7  18
BRANCH   6  26
ATOM     26  O   UNL     1     111.569 128.110 137.434  0.00  0.00    +0.000 OA
BRANCH  26  34
ATOM     27  O   UNL     1     110.627 128.629 136.492  0.00  0.00    +0.000 OA
ATOM     28  O   UNL     1     109.137 129.297 138.351  0.00  0.00    +0.000 OA
ATOM     29  O   UNL     1     110.576 128.556 138.673  0.00  0.00    +0.000 OA
ATOM     30  O   UNL     1     108.692 129.592 136.791  0.00  0.00    +0.000 OA
ATOM     31  C   UNL     1     109.634 129.074 137.732  0.00  0.00    +0.000 C 
ATOM     32  C   UNL     1     110.354 128.703 137.893  0.00  0.00    +0.000 C 
ATOM     33  C   UNL     1     109.412 129.222 136.951  0.00  0.00    +0.000 C 
ATOM     34  C   UNL     1     110.851 128.481 137.273  0.00  0.00    +0.000 C 
ATOM     35  C   UNL     1     109.909 128.999 136.332  0.00  0.00    +0.000 C 
BRANCH  35  38
ATOM     36  O   UNL     1     109.838 129.883 135.211  0.00  0.00    +0.000 OA
ATOM     37  O   UNL     1     109.311 128.558 135.111  0.00  0.00    +0.000 OA
ATOM     38  C   UNL     1     109.686 129.147 135.552  0.00  0.00    +0.000 C 
ENDBRANCH  35  38
ENDBRANCH  26  34
ENDBRANCH   6  26
TORSDOF 5
ENDMDL
MODEL 4
REMARK VINA RESULT:      -9.4     11.043     13.387
REMARK  Name = 131752278
REMARK  5 active torsions:
REMARK  status: ('A' for Active; 'I' for Inactive)
REMARK    1  A    between atoms: O_2  and  C_19
REMARK    2  A    between atoms: O_2  and  C_22
REMARK    3  A    between atoms: O_13  and  C_37
REMARK    4  A    between atoms: C_20  and  C_21
REMARK    5  A    between atoms: C_23  and  C_27
REMARK                            x       y       z     vdW  Elec       q    Type
REMARK                         _______ _______ _______ _____ _____    ______ ____
ROOT
ATOM      1  O   UNL     1     113.446 127.289 136.244  0.00  0.00    +0.000 OA
ATOM      2  O   UNL     1     114.018 130.550 136.402  0.00  0.00    +0.000 OA
ATOM      3  O   UNL     1     114.645 129.868 135.451  0.00  0.00    +0.000 OA
ATOM      4  O   UNL     1     112.254 128.597 138.055  0.00  0.00    +0.000 OA
ATOM      5  O   UNL     1     112.898 129.797 137.580  0.00  0.00    +0.000 OA
ATOM      6  C   UNL     1     112.513 127.318 137.399  0.00  0.00    +0.000 A 
ATOM      7  C   UNL     1     112.919 126.877 136.783  0.00  0.00    +0.000 A 
ATOM      8  C   UNL     1     112.640 128.165 137.467  0.00  0.00    +0.000 A 
ATOM      9  C   UNL     1     113.170 128.560 136.919  0.00  0.00    +0.000 A 
ATOM     10  C   UNL     1     113.560 128.136 136.327  0.00  0.00    +0.000 A 
ATOM     11  C   UNL     1     113.288 129.373 136.989  0.00  0.00    +0.000 A 
ATOM     12  C   UNL     1     113.795 129.764 136.468  0.00  0.00    +0.000 A 
ATOM     13  C   UNL     1     114.067 128.527 135.807  0.00  0.00    +0.000 A 
ATOM     14  C   UNL     1     114.184 129.340 135.877  0.00  0.00    +0.000 A 
ATOM     15  C   UNL     1     114.542 130.615 135.775  0.00  0.00    +0.000 C 
ENDROOT
BRANCH   7  18
ATOM     16  O   UNL     1     111.287 124.670 135.987  0.00  0.00    +0.000 OA
ATOM     17  O   UNL     1     113.858 124.202 137.145  0.00  0.00    +0.000 OA
ATOM     18  C   UNL     1     112.803 126.064 136.711  0.00  0.00    +0.000 A 
ATOM     19  C   UNL     1     113.388 125.539 136.964  0.00  0.00    +0.000 A 
ATOM     20  C   UNL     1     112.103 125.773 136.385  0.00  0.00    +0.000 A 
ATOM     21  C   UNL     1     111.987 124.960 136.313  0.00  0.00    +0.000 A 
ATOM     22  C   UNL     1     113.273 124.726 136.892  0.00  0.00    +0.000 A 
ATOM     23  C   UNL     1     112.572 124.436 136.566  0.00  0.00    +0.000 A 
BRANCH  23  24
ATOM     24  O   UNL     1     112.457 123.623 136.494  0.00  0.00    +0.000 OA
ATOM     25  C   UNL     1     112.064 123.206 137.088  0.00  0.00    +0.000 C 
ENDBRANCH  23  24
ENDBRANCH   7  18
BRANCH   6  26
ATOM     26  O   UNL     1     112.005 126.931 137.922  0.00  0.00    +0.000 OA
BRANCH  26  34
ATOM     27  O   UNL     1     112.944 126.994 138.997  0.00  0.00    +0.000 OA
ATOM     28  O   UNL     1     111.091 126.816 140.626  0.00  0.00    +0.000 OA
ATOM     29  O   UNL     1     110.769 126.812 139.009  0.00  0.00    +0.000 OA
ATOM     30  O   UNL     1     112.647 126.939 141.158  0.00  0.00    +0.000 OA
ATOM     31  C   UNL     1     111.708 126.875 140.084  0.00  0.00    +0.000 C 
ATOM     32  C   UNL     1     111.548 126.874 139.274  0.00  0.00    +0.000 C 
ATOM     33  C   UNL     1     112.487 126.937 140.349  0.00  0.00    +0.000 C 
ATOM     34  C   UNL     1     112.165 126.933 138.730  0.00  0.00    +0.000 C 
ATOM     35  C   UNL     1     113.105 126.996 139.805  0.00  0.00    +0.000 C 
BRANCH  35  38
ATOM     36  O   UNL     1     114.388 126.406 140.025  0.00  0.00    +0.000 OA
ATOM     37  O   UNL     1     114.157 127.770 140.384  0.00  0.00    +0.000 OA
ATOM     38  C   UNL     1     113.883 127.057 140.071  0.00  0.00    +0.000 C 
ENDBRANCH  35  38
ENDBRANCH  26  34
ENDBRANCH   6  26
TORSDOF 5
ENDMDL
MODEL 5
REMARK VINA RESULT:      -9.3     12.029     14.105
REMARK  Name = 131752278
REMARK  5 active torsions:
REMARK  status: ('A' for Active; 'I' for Inactive)
REMARK    1  A    between atoms: O_2  and  C_19
REMARK    2  A    between atoms: O_2  and  C_22
REMARK    3  A    between atoms: O_13  and  C_37
REMARK    4  A    between atoms: C_20  and  C_21
REMARK    5  A    between atoms: C_23  and  C_27
REMARK                            x       y       z     vdW  Elec       q    Type
REMARK                         _______ _______ _______ _____ _____    ______ ____
ROOT
ATOM      1  O   UNL     1     112.089 129.429 135.926  0.00  0.00    +0.000 OA
ATOM      2  O   UNL     1     115.092 130.824 136.096  0.00  0.00    +0.000 OA
ATOM      3  O   UNL     1     114.846 130.032 135.058  0.00  0.00    +0.000 OA
ATOM      4  O   UNL     1     112.564 130.941 137.901  0.00  0.00    +0.000 OA
ATOM      5  O   UNL     1     113.892 131.164 137.381  0.00  0.00    +0.000 OA
ATOM      6  C   UNL     1     111.635 130.070 137.187  0.00  0.00    +0.000 A 
ATOM      7  C   UNL     1     111.477 129.557 136.515  0.00  0.00    +0.000 A 
ATOM      8  C   UNL     1     112.403 130.447 137.260  0.00  0.00    +0.000 A 
ATOM      9  C   UNL     1     113.003 130.307 136.661  0.00  0.00    +0.000 A 
ATOM     10  C   UNL     1     112.852 129.814 136.016  0.00  0.00    +0.000 A 
ATOM     11  C   UNL     1     113.740 130.672 136.737  0.00  0.00    +0.000 A 
ATOM     12  C   UNL     1     114.324 130.545 136.169  0.00  0.00    +0.000 A 
ATOM     13  C   UNL     1     113.436 129.688 135.449  0.00  0.00    +0.000 A 
ATOM     14  C   UNL     1     114.172 130.052 135.524  0.00  0.00    +0.000 A 
ATOM     15  C   UNL     1     115.414 130.508 135.411  0.00  0.00    +0.000 C 
ENDROOT
BRANCH   7  18
ATOM     16  O   UNL     1     108.915 129.392 135.259  0.00  0.00    +0.000 OA
ATOM     17  O   UNL     1     109.628 127.525 137.303  0.00  0.00    +0.000 OA
ATOM     18  C   UNL     1     110.742 129.191 136.437  0.00  0.00    +0.000 A 
ATOM     19  C   UNL     1     110.552 128.541 136.909  0.00  0.00    +0.000 A 
ATOM     20  C   UNL     1     110.196 129.475 135.887  0.00  0.00    +0.000 A 
ATOM     21  C   UNL     1     109.461 129.109 135.809  0.00  0.00    +0.000 A 
ATOM     22  C   UNL     1     109.818 128.175 136.831  0.00  0.00    +0.000 A 
ATOM     23  C   UNL     1     109.271 128.458 136.281  0.00  0.00    +0.000 A 
BRANCH  23  24
ATOM     24  O   UNL     1     108.537 128.092 136.203  0.00  0.00    +0.000 OA
ATOM     25  C   UNL     1     108.467 127.395 135.768  0.00  0.00    +0.000 C 
ENDBRANCH  23  24
ENDBRANCH   7  18
BRANCH   6  26
ATOM     26  O   UNL     1     111.053 130.200 137.757  0.00  0.00    +0.000 OA
BRANCH  26  34
ATOM     27  O   UNL     1     110.715 131.508 137.291  0.00  0.00    +0.000 OA
ATOM     28  O   UNL     1     110.133 132.180 139.599  0.00  0.00    +0.000 OA
ATOM     29  O   UNL     1     110.664 130.648 139.297  0.00  0.00    +0.000 OA
ATOM     30  O   UNL     1     109.990 133.263 138.365  0.00  0.00    +0.000 OA
ATOM     31  C   UNL     1     110.327 131.956 138.830  0.00  0.00    +0.000 C 
ATOM     32  C   UNL     1     110.593 131.190 138.678  0.00  0.00    +0.000 C 
ATOM     33  C   UNL     1     110.256 132.498 138.212  0.00  0.00    +0.000 C 
ATOM     34  C   UNL     1     110.787 130.965 137.909  0.00  0.00    +0.000 C 
ATOM     35  C   UNL     1     110.450 132.273 137.442  0.00  0.00    +0.000 C 
BRANCH  35  38
ATOM     36  O   UNL     1     110.974 133.370 136.691  0.00  0.00    +0.000 OA
ATOM     37  O   UNL     1     109.711 132.802 136.341  0.00  0.00    +0.000 OA
ATOM     38  C   UNL     1     110.378 132.815 136.825  0.00  0.00    +0.000 C 
ENDBRANCH  35  38
ENDBRANCH  26  34
ENDBRANCH   6  26
TORSDOF 5
ENDMDL
MODEL 6
REMARK VINA RESULT:      -9.2     12.077     13.555
REMARK  Name = 131752278
REMARK  5 active torsions:
REMARK  status: ('A' for Active; 'I' for Inactive)
REMARK    1  A    between atoms: O_2  and  C_19
REMARK    2  A    between atoms: O_2  and  C_22
REMARK    3  A    between atoms: O_13  and  C_37
REMARK    4  A    between atoms: C_20  and  C_21
REMARK    5  A    between atoms: C_23  and  C_27
REMARK                            x       y       z     vdW  Elec       q    Type
REMARK                         _______ _______ _______ _____ _____    ______ ____
ROOT
ATOM      1  O   UNL     1     113.458 127.619 139.239  0.00  0.00    +0.000 OA
ATOM      2  O   UNL     1     113.375 130.643 140.595  0.00  0.00    +0.000 OA
ATOM      3  O   UNL     1     114.058 129.704 141.242  0.00  0.00    +0.000 OA
ATOM      4  O   UNL     1     112.159 129.413 138.013  0.00  0.00    +0.000 OA
ATOM      5  O   UNL     1     112.515 130.348 139.053  0.00  0.00    +0.000 OA
ATOM      6  C   UNL     1     112.621 128.030 138.083  0.00  0.00    +0.000 A 
ATOM      7  C   UNL     1     113.063 127.423 138.502  0.00  0.00    +0.000 A 
ATOM      8  C   UNL     1     112.580 128.824 138.408  0.00  0.00    +0.000 A 
ATOM      9  C   UNL     1     112.982 129.001 139.147  0.00  0.00    +0.000 A 
ATOM     10  C   UNL     1     113.406 128.418 139.549  0.00  0.00    +0.000 A 
ATOM     11  C   UNL     1     112.939 129.766 139.454  0.00  0.00    +0.000 A 
ATOM     12  C   UNL     1     113.320 129.948 140.163  0.00  0.00    +0.000 A 
ATOM     13  C   UNL     1     113.786 128.601 140.257  0.00  0.00    +0.000 A 
ATOM     14  C   UNL     1     113.744 129.365 140.564  0.00  0.00    +0.000 A 
ATOM     15  C   UNL     1     113.830 130.492 141.261  0.00  0.00    +0.000 C 
ENDROOT
BRANCH   7  18
ATOM     16  O   UNL     1     114.550 125.360 137.198  0.00  0.00    +0.000 OA
ATOM     17  O   UNL     1     111.841 124.893 137.978  0.00  0.00    +0.000 OA
ATOM     18  C   UNL     1     113.108 126.658 138.197  0.00  0.00    +0.000 A 
ATOM     19  C   UNL     1     112.452 126.158 138.240  0.00  0.00    +0.000 A 
ATOM     20  C   UNL     1     113.807 126.391 137.850  0.00  0.00    +0.000 A 
ATOM     21  C   UNL     1     113.851 125.627 137.545  0.00  0.00    +0.000 A 
ATOM     22  C   UNL     1     112.496 125.393 137.935  0.00  0.00    +0.000 A 
ATOM     23  C   UNL     1     113.196 125.126 137.588  0.00  0.00    +0.000 A 
BRANCH  23  24
ATOM     24  O   UNL     1     113.240 124.362 137.283  0.00  0.00    +0.000 OA
ATOM     25  C   UNL     1     113.063 124.222 136.490  0.00  0.00    +0.000 C 
ENDBRANCH  23  24
ENDBRANCH   7  18
BRANCH   6  26
ATOM     26  O   UNL     1     112.239 127.851 137.374  0.00  0.00    +0.000 OA
BRANCH  26  34
ATOM     27  O   UNL     1     113.226 128.467 136.544  0.00  0.00    +0.000 OA
ATOM     28  O   UNL     1     111.476 129.041 134.891  0.00  0.00    +0.000 OA
ATOM     29  O   UNL     1     111.072 128.234 136.272  0.00  0.00    +0.000 OA
ATOM     30  O   UNL     1     113.045 129.466 134.612  0.00  0.00    +0.000 OA
ATOM     31  C   UNL     1     112.059 128.850 135.442  0.00  0.00    +0.000 C 
ATOM     32  C   UNL     1     111.857 128.446 136.133  0.00  0.00    +0.000 C 
ATOM     33  C   UNL     1     112.844 129.062 135.303  0.00  0.00    +0.000 C 
ATOM     34  C   UNL     1     112.441 128.255 136.684  0.00  0.00    +0.000 C 
ATOM     35  C   UNL     1     113.427 128.871 135.854  0.00  0.00    +0.000 C 
BRANCH  35  38
ATOM     36  O   UNL     1     114.728 128.546 135.360  0.00  0.00    +0.000 OA
ATOM     37  O   UNL     1     114.480 129.833 135.929  0.00  0.00    +0.000 OA
ATOM     38  C   UNL     1     114.211 129.083 135.714  0.00  0.00    +0.000 C 
ENDBRANCH  35  38
ENDBRANCH  26  34
ENDBRANCH   6  26
TORSDOF 5
ENDMDL
MODEL 7
REMARK VINA RESULT:      -9.2     12.294     13.918
REMARK  Name = 131752278
REMARK  5 active torsions:
REMARK  status: ('A' for Active; 'I' for Inactive)
REMARK    1  A    between atoms: O_2  and  C_19
REMARK    2  A    between atoms: O_2  and  C_22
REMARK    3  A    between atoms: O_13  and  C_37
REMARK    4  A    between atoms: C_20  and  C_21
REMARK    5  A    between atoms: C_23  and  C_27
REMARK                            x       y       z     vdW  Elec       q    Type
REMARK                         _______ _______ _______ _____ _____    ______ ____
ROOT
ATOM      1  O   UNL     1     110.673 126.578 136.404  0.00  0.00    +0.000 OA
ATOM      2  O   UNL     1     112.901 124.143 136.728  0.00  0.00    +0.000 OA
ATOM      3  O   UNL     1     111.619 123.815 136.842  0.00  0.00    +0.000 OA
ATOM      4  O   UNL     1     113.119 127.196 136.187  0.00  0.00    +0.000 OA
ATOM      5  O   UNL     1     113.464 125.814 136.412  0.00  0.00    +0.000 OA
ATOM      6  C   UNL     1     111.718 127.609 136.178  0.00  0.00    +0.000 A 
ATOM      7  C   UNL     1     110.889 127.395 136.252  0.00  0.00    +0.000 A 
ATOM      8  C   UNL     1     112.320 127.001 136.257  0.00  0.00    +0.000 A 
ATOM      9  C   UNL     1     112.085 126.188 136.409  0.00  0.00    +0.000 A 
ATOM     10  C   UNL     1     111.289 125.983 136.480  0.00  0.00    +0.000 A 
ATOM     11  C   UNL     1     112.668 125.609 136.483  0.00  0.00    +0.000 A 
ATOM     12  C   UNL     1     112.456 124.825 136.629  0.00  0.00    +0.000 A 
ATOM     13  C   UNL     1     111.077 125.200 136.626  0.00  0.00    +0.000 A 
ATOM     14  C   UNL     1     111.660 124.621 136.700  0.00  0.00    +0.000 A 
ATOM     15  C   UNL     1     112.384 123.520 136.859  0.00  0.00    +0.000 C 
ENDROOT
BRANCH   7  18
ATOM     16  O   UNL     1     108.945 129.118 137.445  0.00  0.00    +0.000 OA
ATOM     17  O   UNL     1     109.322 129.135 134.612  0.00  0.00    +0.000 OA
ATOM     18  C   UNL     1     110.304 127.972 136.178  0.00  0.00    +0.000 A 
ATOM     19  C   UNL     1     110.105 128.265 135.432  0.00  0.00    +0.000 A 
ATOM     20  C   UNL     1     109.917 128.257 136.849  0.00  0.00    +0.000 A 
ATOM     21  C   UNL     1     109.332 128.833 136.774  0.00  0.00    +0.000 A 
ATOM     22  C   UNL     1     109.521 128.842 135.358  0.00  0.00    +0.000 A 
ATOM     23  C   UNL     1     109.134 129.126 136.029  0.00  0.00    +0.000 A 
BRANCH  23  24
ATOM     24  O   UNL     1     108.549 129.703 135.954  0.00  0.00    +0.000 OA
ATOM     25  C   UNL     1     108.745 130.501 136.025  0.00  0.00    +0.000 C 
ENDBRANCH  23  24
ENDBRANCH   7  18
BRANCH   6  26
ATOM     26  O   UNL     1     111.934 128.391 136.032  0.00  0.00    +0.000 OA
BRANCH  26  34
ATOM     27  O   UNL     1     112.331 128.646 137.381  0.00  0.00    +0.000 OA
ATOM     28  O   UNL     1     113.977 130.311 136.582  0.00  0.00    +0.000 OA
ATOM     29  O   UNL     1     113.032 129.502 135.499  0.00  0.00    +0.000 OA
ATOM     30  O   UNL     1     113.826 130.011 138.196  0.00  0.00    +0.000 OA
ATOM     31  C   UNL     1     113.429 129.757 136.848  0.00  0.00    +0.000 C 
ATOM     32  C   UNL     1     112.956 129.351 136.307  0.00  0.00    +0.000 C 
ATOM     33  C   UNL     1     113.353 129.606 137.656  0.00  0.00    +0.000 C 
ATOM     34  C   UNL     1     112.407 128.796 136.573  0.00  0.00    +0.000 C 
ATOM     35  C   UNL     1     112.804 129.051 137.922  0.00  0.00    +0.000 C 
BRANCH  35  38
ATOM     36  O   UNL     1     113.235 128.365 139.100  0.00  0.00    +0.000 OA
ATOM     37  O   UNL     1     112.144 129.286 139.167  0.00  0.00    +0.000 OA
ATOM     38  C   UNL     1     112.728 128.901 138.729  0.00  0.00    +0.000 C 
ENDBRANCH  35  38
ENDBRANCH  26  34
ENDBRANCH   6  26
TORSDOF 5
ENDMDL
MODEL 8
REMARK VINA RESULT:      -8.8     11.806     14.579
REMARK  Name = 131752278
REMARK  5 active torsions:
REMARK  status: ('A' for Active; 'I' for Inactive)
REMARK    1  A    between atoms: O_2  and  C_19
REMARK    2  A    between atoms: O_2  and  C_22
REMARK    3  A    between atoms: O_13  and  C_37
REMARK    4  A    between atoms: C_20  and  C_21
REMARK    5  A    between atoms: C_23  and  C_27
REMARK                            x       y       z     vdW  Elec       q    Type
REMARK                         _______ _______ _______ _____ _____    ______ ____
ROOT
ATOM      1  O   UNL     1     112.979 126.952 136.400  0.00  0.00    +0.000 OA
ATOM      2  O   UNL     1     111.535 123.972 136.562  0.00  0.00    +0.000 OA
ATOM      3  O   UNL     1     112.788 124.066 136.994  0.00  0.00    +0.000 OA
ATOM      4  O   UNL     1     110.591 126.765 135.578  0.00  0.00    +0.000 OA
ATOM      5  O   UNL     1     110.612 125.360 135.908  0.00  0.00    +0.000 OA
ATOM      6  C   UNL     1     111.771 127.591 135.816  0.00  0.00    +0.000 A 
ATOM      7  C   UNL     1     112.582 127.651 136.095  0.00  0.00    +0.000 A 
ATOM      8  C   UNL     1     111.369 126.832 135.844  0.00  0.00    +0.000 A 
ATOM      9  C   UNL     1     111.782 126.144 136.152  0.00  0.00    +0.000 A 
ATOM     10  C   UNL     1     112.560 126.202 136.420  0.00  0.00    +0.000 A 
ATOM     11  C   UNL     1     111.390 125.419 136.177  0.00  0.00    +0.000 A 
ATOM     12  C   UNL     1     111.776 124.751 136.470  0.00  0.00    +0.000 A 
ATOM     13  C   UNL     1     112.945 125.534 136.713  0.00  0.00    +0.000 A 
ATOM     14  C   UNL     1     112.554 124.809 136.738  0.00  0.00    +0.000 A 
ATOM     15  C   UNL     1     112.160 123.550 136.885  0.00  0.00    +0.000 C 
ENDROOT
BRANCH   7  18
ATOM     16  O   UNL     1     113.928 129.690 134.612  0.00  0.00    +0.000 OA
ATOM     17  O   UNL     1     113.602 129.958 137.439  0.00  0.00    +0.000 OA
ATOM     18  C   UNL     1     112.976 128.375 136.072  0.00  0.00    +0.000 A 
ATOM     19  C   UNL     1     113.092 128.805 136.767  0.00  0.00    +0.000 A 
ATOM     20  C   UNL     1     113.255 128.670 135.354  0.00  0.00    +0.000 A 
ATOM     21  C   UNL     1     113.649 129.394 135.330  0.00  0.00    +0.000 A 
ATOM     22  C   UNL     1     113.486 129.528 136.743  0.00  0.00    +0.000 A 
ATOM     23  C   UNL     1     113.765 129.824 136.025  0.00  0.00    +0.000 A 
BRANCH  23  24
ATOM     24  O   UNL     1     114.159 130.548 136.002  0.00  0.00    +0.000 OA
ATOM     25  C   UNL     1     114.983 130.572 136.042  0.00  0.00    +0.000 C 
ENDBRANCH  23  24
ENDBRANCH   7  18
BRANCH   6  26
ATOM     26  O   UNL     1     111.383 128.256 135.522  0.00  0.00    +0.000 OA
BRANCH  26  34
ATOM     27  O   UNL     1     110.608 128.467 136.704  0.00  0.00    +0.000 OA
ATOM     28  O   UNL     1     108.792 129.447 135.340  0.00  0.00    +0.000 OA
ATOM     29  O   UNL     1     110.171 128.910 134.612  0.00  0.00    +0.000 OA
ATOM     30  O   UNL     1     108.623 129.331 136.976  0.00  0.00    +0.000 OA
ATOM     31  C   UNL     1     109.397 129.121 135.794  0.00  0.00    +0.000 C 
ATOM     32  C   UNL     1     110.088 128.852 135.431  0.00  0.00    +0.000 C 
ATOM     33  C   UNL     1     109.313 129.062 136.613  0.00  0.00    +0.000 C 
ATOM     34  C   UNL     1     110.693 128.525 135.886  0.00  0.00    +0.000 C 
ATOM     35  C   UNL     1     109.919 128.735 137.068  0.00  0.00    +0.000 C 
BRANCH  35  38
ATOM     36  O   UNL     1     109.416 128.046 138.214  0.00  0.00    +0.000 OA
ATOM     37  O   UNL     1     110.168 129.251 138.377  0.00  0.00    +0.000 OA
ATOM     38  C   UNL     1     109.834 128.677 137.886  0.00  0.00    +0.000 C 
ENDBRANCH  35  38
ENDBRANCH  26  34
ENDBRANCH   6  26
TORSDOF 5
ENDMDL
