MODEL 1
REMARK VINA RESULT:      -8.4      0.000      0.000
REMARK  Name = 131834261
REMARK  3 active torsions:
REMARK  status: ('A' for Active; 'I' for Inactive)
REMARK    1  A    between atoms: S_1  and  C_19
REMARK    2  A    between atoms: O_5  and  C_23
REMARK    3  A    between atoms: C_10  and  C_14
REMARK                            x       y       z     vdW  Elec       q    Type
REMARK                         _______ _______ _______ _____ _____    ______ ____
ROOT
ATOM      1  O   UNL     1     104.787 124.804 139.963  0.00  0.00    +0.000 OA
ATOM      2  O   UNL     1     105.403 122.765 139.484  0.00  0.00    +0.000 OA
ATOM      3  O   UNL     1     107.027 124.072 141.634  0.00  0.00    +0.000 OA
ATOM      4  C   UNL     1     105.378 123.508 139.841  0.00  0.00    +0.000 C 
ATOM      5  C   UNL     1     104.812 124.060 139.606  0.00  0.00    +0.000 C 
ATOM      6  C   UNL     1     105.919 123.700 140.433  0.00  0.00    +0.000 C 
ATOM      7  C   UNL     1     105.895 124.443 140.790  0.00  0.00    +0.000 A 
ATOM      8  C   UNL     1     105.329 124.995 140.555  0.00  0.00    +0.000 A 
ATOM      9  C   UNL     1     106.465 124.631 141.406  0.00  0.00    +0.000 A 
ATOM     10  C   UNL     1     105.293 125.773 140.919  0.00  0.00    +0.000 A 
ATOM     11  C   UNL     1     105.854 125.978 141.536  0.00  0.00    +0.000 A 
ATOM     12  C   UNL     1     106.444 125.403 141.781  0.00  0.00    +0.000 A 
ENDROOT
BRANCH   5  14
ATOM     13  O   UNL     1     102.145 123.417 138.803  0.00  0.00    +0.000 OA
ATOM     14  C   UNL     1     104.270 123.869 139.014  0.00  0.00    +0.000 A 
ATOM     15  C   UNL     1     103.478 123.738 139.205  0.00  0.00    +0.000 A 
ATOM     16  C   UNL     1     104.521 123.809 138.229  0.00  0.00    +0.000 A 
ATOM     17  C   UNL     1     102.937 123.548 138.612  0.00  0.00    +0.000 A 
ATOM     18  C   UNL     1     103.979 123.618 137.638  0.00  0.00    +0.000 A 
ATOM     19  C   UNL     1     103.187 123.487 137.829  0.00  0.00    +0.000 A 
BRANCH  19  20
ATOM     20  O   UNL     1     102.646 123.296 137.236  0.00  0.00    +0.000 OA
ATOM     21  C   UNL     1     102.914 123.059 136.493  0.00  0.00    +0.000 C 
ENDBRANCH  19  20
ENDBRANCH   5  14
BRANCH  11  22
ATOM     22  S   UNL     1     105.826 126.723 141.891  0.00  0.00    +0.000 S 
ATOM     23  O   UNL     1     106.270 127.344 141.579  0.00  0.00    +0.000 OA
ATOM     24  O   UNL     1     105.355 126.846 142.557  0.00  0.00    +0.000 OA
ENDBRANCH  11  22
TORSDOF 3
ENDMDL
MODEL 2
REMARK VINA RESULT:      -8.1      7.782      8.496
REMARK  Name = 131834261
REMARK  3 active torsions:
REMARK  status: ('A' for Active; 'I' for Inactive)
REMARK    1  A    between atoms: S_1  and  C_19
REMARK    2  A    between atoms: O_5  and  C_23
REMARK    3  A    between atoms: C_10  and  C_14
REMARK                            x       y       z     vdW  Elec       q    Type
REMARK                         _______ _______ _______ _____ _____    ______ ____
ROOT
ATOM      1  O   UNL     1     111.981 126.299 136.212  0.00  0.00    +0.000 OA
ATOM      2  O   UNL     1     110.080 125.455 135.550  0.00  0.00    +0.000 OA
ATOM      3  O   UNL     1     112.101 123.418 136.410  0.00  0.00    +0.000 OA
ATOM      4  C   UNL     1     110.852 125.507 135.834  0.00  0.00    +0.000 C 
ATOM      5  C   UNL     1     111.208 126.246 135.927  0.00  0.00    +0.000 C 
ATOM      6  C   UNL     1     111.269 124.822 136.026  0.00  0.00    +0.000 C 
ATOM      7  C   UNL     1     112.041 124.874 136.310  0.00  0.00    +0.000 A 
ATOM      8  C   UNL     1     112.397 125.613 136.403  0.00  0.00    +0.000 A 
ATOM      9  C   UNL     1     112.465 124.153 136.506  0.00  0.00    +0.000 A 
ATOM     10  C   UNL     1     113.202 125.681 136.698  0.00  0.00    +0.000 A 
ATOM     11  C   UNL     1     113.640 124.970 136.899  0.00  0.00    +0.000 A 
ATOM     12  C   UNL     1     113.270 124.201 136.803  0.00  0.00    +0.000 A 
ENDROOT
BRANCH   5  14
ATOM     13  O   UNL     1     109.457 128.373 136.687  0.00  0.00    +0.000 OA
ATOM     14  C   UNL     1     110.791 126.932 135.736  0.00  0.00    +0.000 A 
ATOM     15  C   UNL     1     110.332 127.309 136.308  0.00  0.00    +0.000 A 
ATOM     16  C   UNL     1     110.834 127.240 134.971  0.00  0.00    +0.000 A 
ATOM     17  C   UNL     1     109.916 127.995 136.115  0.00  0.00    +0.000 A 
ATOM     18  C   UNL     1     110.418 127.926 134.780  0.00  0.00    +0.000 A 
ATOM     19  C   UNL     1     109.959 128.304 135.352  0.00  0.00    +0.000 A 
BRANCH  19  20
ATOM     20  O   UNL     1     109.543 128.990 135.159  0.00  0.00    +0.000 OA
ATOM     21  C   UNL     1     109.855 129.522 134.612  0.00  0.00    +0.000 C 
ENDBRANCH  19  20
ENDBRANCH   5  14
BRANCH  11  22
ATOM     22  S   UNL     1     114.413 125.027 137.184  0.00  0.00    +0.000 S 
ATOM     23  O   UNL     1     115.050 124.948 136.665  0.00  0.00    +0.000 OA
ATOM     24  O   UNL     1     114.550 125.162 137.986  0.00  0.00    +0.000 OA
ENDBRANCH  11  22
TORSDOF 3
ENDMDL
MODEL 3
REMARK VINA RESULT:      -7.9      7.043      8.687
REMARK  Name = 131834261
REMARK  3 active torsions:
REMARK  status: ('A' for Active; 'I' for Inactive)
REMARK    1  A    between atoms: S_1  and  C_19
REMARK    2  A    between atoms: O_5  and  C_23
REMARK    3  A    between atoms: C_10  and  C_14
REMARK                            x       y       z     vdW  Elec       q    Type
REMARK                         _______ _______ _______ _____ _____    ______ ____
ROOT
ATOM      1  O   UNL     1     104.046 124.508 147.094  0.00  0.00    +0.000 OA
ATOM      2  O   UNL     1     104.598 126.037 148.551  0.00  0.00    +0.000 OA
ATOM      3  O   UNL     1     101.650 125.559 148.320  0.00  0.00    +0.000 OA
ATOM      4  C   UNL     1     104.140 125.530 148.090  0.00  0.00    +0.000 C 
ATOM      5  C   UNL     1     104.504 125.016 147.556  0.00  0.00    +0.000 C 
ATOM      6  C   UNL     1     103.318 125.535 148.161  0.00  0.00    +0.000 C 
ATOM      7  C   UNL     1     102.861 125.028 147.700  0.00  0.00    +0.000 A 
ATOM      8  C   UNL     1     103.224 124.514 147.166  0.00  0.00    +0.000 A 
ATOM      9  C   UNL     1     102.005 125.043 147.784  0.00  0.00    +0.000 A 
ATOM     10  C   UNL     1     102.758 123.980 146.680  0.00  0.00    +0.000 A 
ATOM     11  C   UNL     1     101.902 123.982 146.750  0.00  0.00    +0.000 A 
ATOM     12  C   UNL     1     101.523 124.516 147.306  0.00  0.00    +0.000 A 
ENDROOT
BRANCH   5  14
ATOM     13  O   UNL     1     106.865 125.658 146.078  0.00  0.00    +0.000 OA
ATOM     14  C   UNL     1     105.326 125.010 147.484  0.00  0.00    +0.000 A 
ATOM     15  C   UNL     1     105.684 125.337 146.817  0.00  0.00    +0.000 A 
ATOM     16  C   UNL     1     105.790 124.677 148.080  0.00  0.00    +0.000 A 
ATOM     17  C   UNL     1     106.506 125.331 146.745  0.00  0.00    +0.000 A 
ATOM     18  C   UNL     1     106.611 124.670 148.008  0.00  0.00    +0.000 A 
ATOM     19  C   UNL     1     106.970 124.998 147.340  0.00  0.00    +0.000 A 
BRANCH  19  20
ATOM     20  O   UNL     1     107.792 124.991 147.269  0.00  0.00    +0.000 OA
ATOM     21  C   UNL     1     108.265 125.000 147.944  0.00  0.00    +0.000 C 
ENDBRANCH  19  20
ENDBRANCH   5  14
BRANCH  11  22
ATOM     22  S   UNL     1     101.447 123.472 146.287  0.00  0.00    +0.000 S 
ATOM     23  O   UNL     1     101.227 123.696 145.524  0.00  0.00    +0.000 OA
ATOM     24  O   UNL     1     101.212 122.740 146.586  0.00  0.00    +0.000 OA
ENDBRANCH  11  22
TORSDOF 3
ENDMDL
MODEL 4
REMARK VINA RESULT:      -7.8      8.405      9.805
REMARK  Name = 131834261
REMARK  3 active torsions:
REMARK  status: ('A' for Active; 'I' for Inactive)
REMARK    1  A    between atoms: S_1  and  C_19
REMARK    2  A    between atoms: O_5  and  C_23
REMARK    3  A    between atoms: C_10  and  C_14
REMARK                            x       y       z     vdW  Elec       q    Type
REMARK                         _______ _______ _______ _____ _____    ______ ____
ROOT
ATOM      1  O   UNL     1     112.611 126.792 136.525  0.00  0.00    +0.000 OA
ATOM      2  O   UNL     1     111.544 128.252 135.303  0.00  0.00    +0.000 OA
ATOM      3  O   UNL     1     110.365 125.499 135.248  0.00  0.00    +0.000 OA
ATOM      4  C   UNL     1     111.748 127.541 135.665  0.00  0.00    +0.000 C 
ATOM      5  C   UNL     1     112.406 127.505 136.162  0.00  0.00    +0.000 C 
ATOM      6  C   UNL     1     111.296 126.864 135.531  0.00  0.00    +0.000 C 
ATOM      7  C   UNL     1     111.501 126.152 135.894  0.00  0.00    +0.000 A 
ATOM      8  C   UNL     1     112.158 126.116 136.390  0.00  0.00    +0.000 A 
ATOM      9  C   UNL     1     111.021 125.454 135.746  0.00  0.00    +0.000 A 
ATOM     10  C   UNL     1     112.382 125.380 136.774  0.00  0.00    +0.000 A 
ATOM     11  C   UNL     1     111.914 124.672 136.638  0.00  0.00    +0.000 A 
ATOM     12  C   UNL     1     111.230 124.710 136.121  0.00  0.00    +0.000 A 
ENDROOT
BRANCH   5  14
ATOM     13  O   UNL     1     113.029 129.791 137.760  0.00  0.00    +0.000 OA
ATOM     14  C   UNL     1     112.859 128.181 136.297  0.00  0.00    +0.000 A 
ATOM     15  C   UNL     1     112.717 128.648 136.962  0.00  0.00    +0.000 A 
ATOM     16  C   UNL     1     113.455 128.390 135.765  0.00  0.00    +0.000 A 
ATOM     17  C   UNL     1     113.171 129.324 137.095  0.00  0.00    +0.000 A 
ATOM     18  C   UNL     1     113.908 129.066 135.900  0.00  0.00    +0.000 A 
ATOM     19  C   UNL     1     113.766 129.533 136.565  0.00  0.00    +0.000 A 
BRANCH  19  20
ATOM     20  O   UNL     1     114.220 130.209 136.698  0.00  0.00    +0.000 OA
ATOM     21  C   UNL     1     114.764 130.460 136.132  0.00  0.00    +0.000 C 
ENDBRANCH  19  20
ENDBRANCH   5  14
BRANCH  11  22
ATOM     22  S   UNL     1     112.123 123.962 137.002  0.00  0.00    +0.000 S 
ATOM     23  O   UNL     1     111.669 123.671 137.627  0.00  0.00    +0.000 OA
ATOM     24  O   UNL     1     112.784 123.542 136.743  0.00  0.00    +0.000 OA
ENDBRANCH  11  22
TORSDOF 3
ENDMDL
MODEL 5
REMARK VINA RESULT:      -7.7      5.192      7.108
REMARK  Name = 131834261
REMARK  3 active torsions:
REMARK  status: ('A' for Active; 'I' for Inactive)
REMARK    1  A    between atoms: S_1  and  C_19
REMARK    2  A    between atoms: O_5  and  C_23
REMARK    3  A    between atoms: C_10  and  C_14
REMARK                            x       y       z     vdW  Elec       q    Type
REMARK                         _______ _______ _______ _____ _____    ______ ____
ROOT
ATOM      1  O   UNL     1     103.486 130.120 142.149  0.00  0.00    +0.000 OA
ATOM      2  O   UNL     1     102.407 130.108 140.252  0.00  0.00    +0.000 OA
ATOM      3  O   UNL     1     104.149 127.712 140.696  0.00  0.00    +0.000 OA
ATOM      4  C   UNL     1     102.904 129.875 140.867  0.00  0.00    +0.000 C 
ATOM      5  C   UNL     1     102.988 130.353 141.533  0.00  0.00    +0.000 C 
ATOM      6  C   UNL     1     103.317 129.162 140.816  0.00  0.00    +0.000 C 
ATOM      7  C   UNL     1     103.814 128.929 141.431  0.00  0.00    +0.000 A 
ATOM      8  C   UNL     1     103.899 129.407 142.098  0.00  0.00    +0.000 A 
ATOM      9  C   UNL     1     104.239 128.184 141.366  0.00  0.00    +0.000 A 
ATOM     10  C   UNL     1     104.414 129.175 142.745  0.00  0.00    +0.000 A 
ATOM     11  C   UNL     1     104.847 128.434 142.698  0.00  0.00    +0.000 A 
ATOM     12  C   UNL     1     104.759 127.936 142.004  0.00  0.00    +0.000 A 
ENDROOT
BRANCH   5  14
ATOM     13  O   UNL     1     102.877 133.184 141.154  0.00  0.00    +0.000 OA
ATOM     14  C   UNL     1     102.576 131.066 141.585  0.00  0.00    +0.000 A 
ATOM     15  C   UNL     1     102.933 131.769 141.343  0.00  0.00    +0.000 A 
ATOM     16  C   UNL     1     101.804 131.075 141.880  0.00  0.00    +0.000 A 
ATOM     17  C   UNL     1     102.520 132.481 141.396  0.00  0.00    +0.000 A 
ATOM     18  C   UNL     1     101.392 131.787 141.931  0.00  0.00    +0.000 A 
ATOM     19  C   UNL     1     101.749 132.490 141.689  0.00  0.00    +0.000 A 
BRANCH  19  20
ATOM     20  O   UNL     1     101.336 133.202 141.742  0.00  0.00    +0.000 OA
ATOM     21  C   UNL     1     100.710 133.278 142.273  0.00  0.00    +0.000 C 
ENDBRANCH  19  20
ENDBRANCH   5  14
BRANCH  11  22
ATOM     22  S   UNL     1     105.343 128.203 143.315  0.00  0.00    +0.000 S 
ATOM     23  O   UNL     1     105.083 127.648 143.867  0.00  0.00    +0.000 OA
ATOM     24  O   UNL     1     106.099 128.528 143.381  0.00  0.00    +0.000 OA
ENDBRANCH  11  22
TORSDOF 3
ENDMDL
MODEL 6
REMARK VINA RESULT:      -7.7      7.122      8.694
REMARK  Name = 131834261
REMARK  3 active torsions:
REMARK  status: ('A' for Active; 'I' for Inactive)
REMARK    1  A    between atoms: S_1  and  C_19
REMARK    2  A    between atoms: O_5  and  C_23
REMARK    3  A    between atoms: C_10  and  C_14
REMARK                            x       y       z     vdW  Elec       q    Type
REMARK                         _______ _______ _______ _____ _____    ______ ____
ROOT
ATOM      1  O   UNL     1     102.752 132.425 141.183  0.00  0.00    +0.000 OA
ATOM      2  O   UNL     1     101.170 131.215 142.077  0.00  0.00    +0.000 OA
ATOM      3  O   UNL     1     100.710 134.170 142.248  0.00  0.00    +0.000 OA
ATOM      4  C   UNL     1     101.601 131.871 141.825  0.00  0.00    +0.000 C 
ATOM      5  C   UNL     1     102.321 131.767 141.436  0.00  0.00    +0.000 C 
ATOM      6  C   UNL     1     101.312 132.632 141.961  0.00  0.00    +0.000 C 
ATOM      7  C   UNL     1     101.743 133.289 141.709  0.00  0.00    +0.000 A 
ATOM      8  C   UNL     1     102.463 133.185 141.320  0.00  0.00    +0.000 A 
ATOM      9  C   UNL     1     101.431 134.076 141.858  0.00  0.00    +0.000 A 
ATOM     10  C   UNL     1     102.921 133.861 141.053  0.00  0.00    +0.000 A 
ATOM     11  C   UNL     1     102.625 134.655 141.192  0.00  0.00    +0.000 A 
ATOM     12  C   UNL     1     101.875 134.763 141.598  0.00  0.00    +0.000 A 
ENDROOT
BRANCH   5  14
ATOM     13  O   UNL     1     102.594 129.493 139.727  0.00  0.00    +0.000 OA
ATOM     14  C   UNL     1     102.610 131.007 141.299  0.00  0.00    +0.000 A 
ATOM     15  C   UNL     1     102.457 130.630 140.581  0.00  0.00    +0.000 A 
ATOM     16  C   UNL     1     103.054 130.624 141.880  0.00  0.00    +0.000 A 
ATOM     17  C   UNL     1     102.747 129.870 140.445  0.00  0.00    +0.000 A 
ATOM     18  C   UNL     1     103.343 129.864 141.743  0.00  0.00    +0.000 A 
ATOM     19  C   UNL     1     103.190 129.487 141.025  0.00  0.00    +0.000 A 
BRANCH  19  20
ATOM     20  O   UNL     1     103.480 128.726 140.889  0.00  0.00    +0.000 OA
ATOM     21  C   UNL     1     104.109 128.438 141.338  0.00  0.00    +0.000 C 
ENDBRANCH  19  20
ENDBRANCH   5  14
BRANCH  11  22
ATOM     22  S   UNL     1     103.059 135.310 140.939  0.00  0.00    +0.000 S 
ATOM     23  O   UNL     1     103.675 135.601 141.404  0.00  0.00    +0.000 OA
ATOM     24  O   UNL     1     102.877 135.673 140.221  0.00  0.00    +0.000 OA
ENDBRANCH  11  22
TORSDOF 3
ENDMDL
MODEL 7
REMARK VINA RESULT:      -7.6      8.286      9.109
REMARK  Name = 131834261
REMARK  3 active torsions:
REMARK  status: ('A' for Active; 'I' for Inactive)
REMARK    1  A    between atoms: S_1  and  C_19
REMARK    2  A    between atoms: O_5  and  C_23
REMARK    3  A    between atoms: C_10  and  C_14
REMARK                            x       y       z     vdW  Elec       q    Type
REMARK                         _______ _______ _______ _____ _____    ______ ____
ROOT
ATOM      1  O   UNL     1     112.541 127.020 136.249  0.00  0.00    +0.000 OA
ATOM      2  O   UNL     1     110.525 126.422 135.661  0.00  0.00    +0.000 OA
ATOM      3  O   UNL     1     111.375 129.097 134.612  0.00  0.00    +0.000 OA
ATOM      4  C   UNL     1     111.216 126.867 135.734  0.00  0.00    +0.000 C 
ATOM      5  C   UNL     1     111.849 126.575 136.175  0.00  0.00    +0.000 C 
ATOM      6  C   UNL     1     111.274 127.603 135.366  0.00  0.00    +0.000 C 
ATOM      7  C   UNL     1     111.965 128.048 135.439  0.00  0.00    +0.000 A 
ATOM      8  C   UNL     1     112.598 127.756 135.881  0.00  0.00    +0.000 A 
ATOM      9  C   UNL     1     112.013 128.813 135.051  0.00  0.00    +0.000 A 
ATOM     10  C   UNL     1     113.323 128.210 135.964  0.00  0.00    +0.000 A 
ATOM     11  C   UNL     1     113.390 128.977 135.583  0.00  0.00    +0.000 A 
ATOM     12  C   UNL     1     112.730 129.281 135.124  0.00  0.00    +0.000 A 
ENDROOT
BRANCH   5  14
ATOM     13  O   UNL     1     111.196 124.996 138.466  0.00  0.00    +0.000 OA
ATOM     14  C   UNL     1     111.792 125.839 136.543  0.00  0.00    +0.000 A 
ATOM     15  C   UNL     1     111.522 125.786 137.321  0.00  0.00    +0.000 A 
ATOM     16  C   UNL     1     112.004 125.155 136.132  0.00  0.00    +0.000 A 
ATOM     17  C   UNL     1     111.465 125.049 137.688  0.00  0.00    +0.000 A 
ATOM     18  C   UNL     1     111.947 124.419 136.500  0.00  0.00    +0.000 A 
ATOM     19  C   UNL     1     111.678 124.366 137.278  0.00  0.00    +0.000 A 
BRANCH  19  20
ATOM     20  O   UNL     1     111.621 123.630 137.645  0.00  0.00    +0.000 OA
ATOM     21  C   UNL     1     111.943 122.962 137.284  0.00  0.00    +0.000 C 
ENDBRANCH  19  20
ENDBRANCH   5  14
BRANCH  11  22
ATOM     22  S   UNL     1     114.083 129.419 135.659  0.00  0.00    +0.000 S 
ATOM     23  O   UNL     1     114.714 129.286 135.145  0.00  0.00    +0.000 OA
ATOM     24  O   UNL     1     114.144 129.994 136.248  0.00  0.00    +0.000 OA
ENDBRANCH  11  22
TORSDOF 3
ENDMDL
MODEL 8
REMARK VINA RESULT:      -7.6      6.697      7.649
REMARK  Name = 131834261
REMARK  3 active torsions:
REMARK  status: ('A' for Active; 'I' for Inactive)
REMARK    1  A    between atoms: S_1  and  C_19
REMARK    2  A    between atoms: O_5  and  C_23
REMARK    3  A    between atoms: C_10  and  C_14
REMARK                            x       y       z     vdW  Elec       q    Type
REMARK                         _______ _______ _______ _____ _____    ______ ____
ROOT
ATOM      1  O   UNL     1     112.389 126.323 138.896  0.00  0.00    +0.000 OA
ATOM      2  O   UNL     1     110.268 125.858 139.121  0.00  0.00    +0.000 OA
ATOM      3  O   UNL     1     111.558 126.964 141.588  0.00  0.00    +0.000 OA
ATOM      4  C   UNL     1     111.034 126.107 139.297  0.00  0.00    +0.000 C 
ATOM      5  C   UNL     1     111.622 126.073 138.719  0.00  0.00    +0.000 C 
ATOM      6  C   UNL     1     111.213 126.391 140.051  0.00  0.00    +0.000 C 
ATOM      7  C   UNL     1     111.979 126.640 140.227  0.00  0.00    +0.000 A 
ATOM      8  C   UNL     1     112.567 126.606 139.649  0.00  0.00    +0.000 A 
ATOM      9  C   UNL     1     112.153 126.934 141.016  0.00  0.00    +0.000 A 
ATOM     10  C   UNL     1     113.369 126.863 139.821  0.00  0.00    +0.000 A 
ATOM     11  C   UNL     1     113.561 127.160 140.604  0.00  0.00    +0.000 A 
ATOM     12  C   UNL     1     112.949 127.195 141.206  0.00  0.00    +0.000 A 
ENDROOT
BRANCH   5  14
ATOM     13  O   UNL     1     111.642 123.953 136.803  0.00  0.00    +0.000 OA
ATOM     14  C   UNL     1     111.444 125.789 137.966  0.00  0.00    +0.000 A 
ATOM     15  C   UNL     1     111.632 125.012 137.762  0.00  0.00    +0.000 A 
ATOM     16  C   UNL     1     111.078 126.284 137.415  0.00  0.00    +0.000 A 
ATOM     17  C   UNL     1     111.454 124.730 137.007  0.00  0.00    +0.000 A 
ATOM     18  C   UNL     1     110.900 126.000 136.661  0.00  0.00    +0.000 A 
ATOM     19  C   UNL     1     111.088 125.223 136.457  0.00  0.00    +0.000 A 
BRANCH  19  20
ATOM     20  O   UNL     1     110.910 124.941 135.703  0.00  0.00    +0.000 OA
ATOM     21  C   UNL     1     110.475 125.407 135.179  0.00  0.00    +0.000 C 
ENDBRANCH  19  20
ENDBRANCH   5  14
BRANCH  11  22
ATOM     22  S   UNL     1     114.329 127.409 140.777  0.00  0.00    +0.000 S 
ATOM     23  O   UNL     1     114.525 128.208 140.719  0.00  0.00    +0.000 OA
ATOM     24  O   UNL     1     114.899 126.859 141.006  0.00  0.00    +0.000 OA
ENDBRANCH  11  22
TORSDOF 3
ENDMDL
MODEL 9
REMARK VINA RESULT:      -7.6      8.428      9.580
REMARK  Name = 131834261
REMARK  3 active torsions:
REMARK  status: ('A' for Active; 'I' for Inactive)
REMARK    1  A    between atoms: S_1  and  C_19
REMARK    2  A    between atoms: O_5  and  C_23
REMARK    3  A    between atoms: C_10  and  C_14
REMARK                            x       y       z     vdW  Elec       q    Type
REMARK                         _______ _______ _______ _____ _____    ______ ____
ROOT
ATOM      1  O   UNL     1     112.302 126.660 136.484  0.00  0.00    +0.000 OA
ATOM      2  O   UNL     1     114.072 127.924 136.296  0.00  0.00    +0.000 OA
ATOM      3  O   UNL     1     114.670 125.019 136.713  0.00  0.00    +0.000 OA
ATOM      4  C   UNL     1     113.598 127.256 136.394  0.00  0.00    +0.000 C 
ATOM      5  C   UNL     1     112.777 127.328 136.386  0.00  0.00    +0.000 C 
ATOM      6  C   UNL     1     113.946 126.515 136.500  0.00  0.00    +0.000 C 
ATOM      7  C   UNL     1     113.473 125.847 136.598  0.00  0.00    +0.000 A 
ATOM      8  C   UNL     1     112.651 125.920 136.590  0.00  0.00    +0.000 A 
ATOM      9  C   UNL     1     113.847 125.081 136.707  0.00  0.00    +0.000 A 
ATOM     10  C   UNL     1     112.147 125.231 136.691  0.00  0.00    +0.000 A 
ATOM     11  C   UNL     1     112.503 124.457 136.801  0.00  0.00    +0.000 A 
ATOM     12  C   UNL     1     113.359 124.382 136.809  0.00  0.00    +0.000 A 
ENDROOT
BRANCH   5  14
ATOM     13  O   UNL     1     111.631 129.304 134.668  0.00  0.00    +0.000 OA
ATOM     14  C   UNL     1     112.428 128.068 136.281  0.00  0.00    +0.000 A 
ATOM     15  C   UNL     1     112.204 128.316 135.526  0.00  0.00    +0.000 A 
ATOM     16  C   UNL     1     112.303 128.562 136.931  0.00  0.00    +0.000 A 
ATOM     17  C   UNL     1     111.855 129.056 135.422  0.00  0.00    +0.000 A 
ATOM     18  C   UNL     1     111.955 129.302 136.826  0.00  0.00    +0.000 A 
ATOM     19  C   UNL     1     111.731 129.549 136.071  0.00  0.00    +0.000 A 
BRANCH  19  20
ATOM     20  O   UNL     1     111.382 130.290 135.967  0.00  0.00    +0.000 OA
ATOM     21  C   UNL     1     111.276 130.791 136.613  0.00  0.00    +0.000 C 
ENDBRANCH  19  20
ENDBRANCH   5  14
BRANCH  11  22
ATOM     22  S   UNL     1     112.026 123.790 136.899  0.00  0.00    +0.000 S 
ATOM     23  O   UNL     1     111.797 123.348 136.241  0.00  0.00    +0.000 OA
ATOM     24  O   UNL     1     111.778 123.567 137.653  0.00  0.00    +0.000 OA
ENDBRANCH  11  22
TORSDOF 3
ENDMDL
MODEL 10
REMARK VINA RESULT:      -7.5      8.716     10.018
REMARK  Name = 131834261
REMARK  3 active torsions:
REMARK  status: ('A' for Active; 'I' for Inactive)
REMARK    1  A    between atoms: S_1  and  C_19
REMARK    2  A    between atoms: O_5  and  C_23
REMARK    3  A    between atoms: C_10  and  C_14
REMARK                            x       y       z     vdW  Elec       q    Type
REMARK                         _______ _______ _______ _____ _____    ______ ____
ROOT
ATOM      1  O   UNL     1     112.157 127.617 135.905  0.00  0.00    +0.000 OA
ATOM      2  O   UNL     1     114.036 126.986 136.819  0.00  0.00    +0.000 OA
ATOM      3  O   UNL     1     111.991 124.811 136.572  0.00  0.00    +0.000 OA
ATOM      4  C   UNL     1     113.268 126.961 136.519  0.00  0.00    +0.000 C 
ATOM      5  C   UNL     1     112.926 127.642 136.205  0.00  0.00    +0.000 C 
ATOM      6  C   UNL     1     112.842 126.254 136.534  0.00  0.00    +0.000 C 
ATOM      7  C   UNL     1     112.074 126.229 136.235  0.00  0.00    +0.000 A 
ATOM      8  C   UNL     1     111.732 126.911 135.920  0.00  0.00    +0.000 A 
ATOM      9  C   UNL     1     111.641 125.487 136.256  0.00  0.00    +0.000 A 
ATOM     10  C   UNL     1     110.932 126.897 135.605  0.00  0.00    +0.000 A 
ATOM     11  C   UNL     1     110.484 126.165 135.618  0.00  0.00    +0.000 A 
ATOM     12  C   UNL     1     110.840 125.455 135.945  0.00  0.00    +0.000 A 
ENDROOT
BRANCH   5  14
ATOM     13  O   UNL     1     113.599 130.153 137.392  0.00  0.00    +0.000 OA
ATOM     14  C   UNL     1     113.351 128.349 136.190  0.00  0.00    +0.000 A 
ATOM     15  C   UNL     1     113.262 128.898 136.799  0.00  0.00    +0.000 A 
ATOM     16  C   UNL     1     113.866 128.506 135.564  0.00  0.00    +0.000 A 
ATOM     17  C   UNL     1     113.688 129.604 136.783  0.00  0.00    +0.000 A 
ATOM     18  C   UNL     1     114.292 129.213 135.549  0.00  0.00    +0.000 A 
ATOM     19  C   UNL     1     114.202 129.762 136.158  0.00  0.00    +0.000 A 
BRANCH  19  20
ATOM     20  O   UNL     1     114.628 130.469 136.142  0.00  0.00    +0.000 OA
ATOM     21  C   UNL     1     115.208 130.588 135.568  0.00  0.00    +0.000 C 
ENDBRANCH  19  20
ENDBRANCH   5  14
BRANCH  11  22
ATOM     22  S   UNL     1     109.715 126.143 135.317  0.00  0.00    +0.000 S 
ATOM     23  O   UNL     1     109.560 125.744 134.612  0.00  0.00    +0.000 OA
ATOM     24  O   UNL     1     109.103 126.521 135.721  0.00  0.00    +0.000 OA
ENDBRANCH  11  22
TORSDOF 3
ENDMDL
