MODEL 1
REMARK VINA RESULT:      -9.9      0.000      0.000
REMARK  Name = 14135334
REMARK  4 active torsions:
REMARK  status: ('A' for Active; 'I' for Inactive)
REMARK    1  A    between atoms: O_2  and  C_15
REMARK    2  A    between atoms: O_2  and  C_17
REMARK    3  A    between atoms: C_14  and  C_16
REMARK    4  A    between atoms: C_24  and  C_26
REMARK                            x       y       z     vdW  Elec       q    Type
REMARK                         _______ _______ _______ _____ _____    ______ ____
ROOT
ATOM      1  O   UNL     1     112.439 126.412 136.305  0.00  0.00    +0.000 OA
ATOM      2  O   UNL     1     109.910 125.555 135.202  0.00  0.00    +0.000 OA
ATOM      3  O   UNL     1     110.852 124.600 135.732  0.00  0.00    +0.000 OA
ATOM      4  C   UNL     1     110.776 127.610 135.415  0.00  0.00    +0.000 A 
ATOM      5  C   UNL     1     111.527 127.415 135.785  0.00  0.00    +0.000 A 
ATOM      6  C   UNL     1     110.225 126.981 135.216  0.00  0.00    +0.000 A 
ATOM      7  C   UNL     1     111.717 126.593 135.950  0.00  0.00    +0.000 A 
ATOM      8  C   UNL     1     111.188 125.990 135.759  0.00  0.00    +0.000 A 
ATOM      9  C   UNL     1     110.433 126.166 135.390  0.00  0.00    +0.000 A 
ATOM     10  C   UNL     1     111.381 125.205 135.923  0.00  0.00    +0.000 A 
ATOM     11  C   UNL     1     112.633 125.627 136.469  0.00  0.00    +0.000 A 
ATOM     12  C   UNL     1     112.104 125.023 136.278  0.00  0.00    +0.000 A 
ENDROOT
BRANCH  11  13
ATOM     13  C   UNL     1     113.355 125.445 136.824  0.00  0.00    +0.000 A 
ATOM     14  C   UNL     1     113.977 125.152 136.367  0.00  0.00    +0.000 A 
ATOM     15  C   UNL     1     113.455 125.557 137.635  0.00  0.00    +0.000 A 
ATOM     16  C   UNL     1     114.698 124.971 136.723  0.00  0.00    +0.000 A 
ATOM     17  C   UNL     1     114.178 125.375 137.990  0.00  0.00    +0.000 A 
ATOM     18  C   UNL     1     114.799 125.082 137.534  0.00  0.00    +0.000 A 
ENDBRANCH  11  13
BRANCH   4  19
ATOM     19  O   UNL     1     110.585 128.396 135.252  0.00  0.00    +0.000 OA
BRANCH  19  28
ATOM     20  O   UNL     1     110.160 128.753 136.569  0.00  0.00    +0.000 OA
ATOM     21  O   UNL     1     108.360 130.154 135.609  0.00  0.00    +0.000 OA
ATOM     22  O   UNL     1     109.385 129.330 134.612  0.00  0.00    +0.000 OA
ATOM     23  O   UNL     1     108.535 130.043 137.245  0.00  0.00    +0.000 OA
ATOM     24  C   UNL     1     108.960 129.687 135.929  0.00  0.00    +0.000 C 
ATOM     25  C   UNL     1     109.473 129.275 135.430  0.00  0.00    +0.000 C 
ATOM     26  C   UNL     1     109.048 129.631 136.747  0.00  0.00    +0.000 C 
ATOM     27  C   UNL     1     109.648 129.164 137.067  0.00  0.00    +0.000 C 
ATOM     28  C   UNL     1     110.073 128.808 135.750  0.00  0.00    +0.000 C 
BRANCH  27  31
ATOM     29  O   UNL     1     110.257 129.611 138.280  0.00  0.00    +0.000 OA
ATOM     30  O   UNL     1     109.299 128.551 138.310  0.00  0.00    +0.000 OA
ATOM     31  C   UNL     1     109.735 129.109 137.885  0.00  0.00    +0.000 C 
ENDBRANCH  27  31
ENDBRANCH  19  28
ENDBRANCH   4  19
TORSDOF 4
ENDMDL
MODEL 2
REMARK VINA RESULT:      -9.6      1.204      1.992
REMARK  Name = 14135334
REMARK  4 active torsions:
REMARK  status: ('A' for Active; 'I' for Inactive)
REMARK    1  A    between atoms: O_2  and  C_15
REMARK    2  A    between atoms: O_2  and  C_17
REMARK    3  A    between atoms: C_14  and  C_16
REMARK    4  A    between atoms: C_24  and  C_26
REMARK                            x       y       z     vdW  Elec       q    Type
REMARK                         _______ _______ _______ _____ _____    ______ ____
ROOT
ATOM      1  O   UNL     1     112.739 126.961 136.345  0.00  0.00    +0.000 OA
ATOM      2  O   UNL     1     113.037 129.606 135.222  0.00  0.00    +0.000 OA
ATOM      3  O   UNL     1     114.177 128.876 135.718  0.00  0.00    +0.000 OA
ATOM      4  C   UNL     1     111.204 128.349 135.499  0.00  0.00    +0.000 A 
ATOM      5  C   UNL     1     111.558 127.653 135.860  0.00  0.00    +0.000 A 
ATOM      6  C   UNL     1     111.704 129.013 135.282  0.00  0.00    +0.000 A 
ATOM      7  C   UNL     1     112.405 127.631 135.998  0.00  0.00    +0.000 A 
ATOM      8  C   UNL     1     112.885 128.270 135.789  0.00  0.00    +0.000 A 
ATOM      9  C   UNL     1     112.549 128.973 135.428  0.00  0.00    +0.000 A 
ATOM     10  C   UNL     1     113.697 128.238 135.927  0.00  0.00    +0.000 A 
ATOM     11  C   UNL     1     113.552 126.929 136.483  0.00  0.00    +0.000 A 
ATOM     12  C   UNL     1     114.031 127.567 136.273  0.00  0.00    +0.000 A 
ENDROOT
BRANCH  11  13
ATOM     13  C   UNL     1     113.886 126.259 136.829  0.00  0.00    +0.000 A 
ATOM     14  C   UNL     1     113.829 126.145 137.644  0.00  0.00    +0.000 A 
ATOM     15  C   UNL     1     114.276 125.703 136.360  0.00  0.00    +0.000 A 
ATOM     16  C   UNL     1     114.163 125.475 137.990  0.00  0.00    +0.000 A 
ATOM     17  C   UNL     1     114.609 125.033 136.706  0.00  0.00    +0.000 A 
ATOM     18  C   UNL     1     114.553 124.919 137.522  0.00  0.00    +0.000 A 
ENDBRANCH  11  13
BRANCH   4  19
ATOM     19  O   UNL     1     110.391 128.378 135.363  0.00  0.00    +0.000 OA
BRANCH  19  28
ATOM     20  O   UNL     1     110.030 128.837 136.667  0.00  0.00    +0.000 OA
ATOM     21  O   UNL     1     108.209 130.195 135.685  0.00  0.00    +0.000 OA
ATOM     22  O   UNL     1     109.177 129.283 134.708  0.00  0.00    +0.000 OA
ATOM     23  O   UNL     1     108.455 130.201 137.315  0.00  0.00    +0.000 OA
ATOM     24  C   UNL     1     108.816 129.742 136.012  0.00  0.00    +0.000 C 
ATOM     25  C   UNL     1     109.300 129.286 135.523  0.00  0.00    +0.000 C 
ATOM     26  C   UNL     1     108.939 129.745 136.828  0.00  0.00    +0.000 C 
ATOM     27  C   UNL     1     109.546 129.292 137.155  0.00  0.00    +0.000 C 
ATOM     28  C   UNL     1     109.907 128.833 135.851  0.00  0.00    +0.000 C 
BRANCH  27  31
ATOM     29  O   UNL     1     110.158 129.866 138.312  0.00  0.00    +0.000 OA
ATOM     30  O   UNL     1     109.303 128.729 138.445  0.00  0.00    +0.000 OA
ATOM     31  C   UNL     1     109.669 129.296 137.970  0.00  0.00    +0.000 C 
ENDBRANCH  27  31
ENDBRANCH  19  28
ENDBRANCH   4  19
TORSDOF 4
ENDMDL
MODEL 3
REMARK VINA RESULT:      -9.4      1.466      2.453
REMARK  Name = 14135334
REMARK  4 active torsions:
REMARK  status: ('A' for Active; 'I' for Inactive)
REMARK    1  A    between atoms: O_2  and  C_15
REMARK    2  A    between atoms: O_2  and  C_17
REMARK    3  A    between atoms: C_14  and  C_16
REMARK    4  A    between atoms: C_24  and  C_26
REMARK                            x       y       z     vdW  Elec       q    Type
REMARK                         _______ _______ _______ _____ _____    ______ ____
ROOT
ATOM      1  O   UNL     1     112.747 126.991 137.108  0.00  0.00    +0.000 OA
ATOM      2  O   UNL     1     113.133 129.556 135.836  0.00  0.00    +0.000 OA
ATOM      3  O   UNL     1     114.069 128.478 135.635  0.00  0.00    +0.000 OA
ATOM      4  C   UNL     1     111.507 128.849 137.205  0.00  0.00    +0.000 A 
ATOM      5  C   UNL     1     111.774 128.043 137.344  0.00  0.00    +0.000 A 
ATOM      6  C   UNL     1     111.966 129.364 136.694  0.00  0.00    +0.000 A 
ATOM      7  C   UNL     1     112.496 127.765 136.971  0.00  0.00    +0.000 A 
ATOM      8  C   UNL     1     112.936 128.261 136.480  0.00  0.00    +0.000 A 
ATOM      9  C   UNL     1     112.686 129.068 136.329  0.00  0.00    +0.000 A 
ATOM     10  C   UNL     1     113.628 127.983 136.127  0.00  0.00    +0.000 A 
ATOM     11  C   UNL     1     113.439 126.713 136.755  0.00  0.00    +0.000 A 
ATOM     12  C   UNL     1     113.879 127.209 136.264  0.00  0.00    +0.000 A 
ENDROOT
BRANCH  11  13
ATOM     13  C   UNL     1     113.690 125.940 136.893  0.00  0.00    +0.000 A 
ATOM     14  C   UNL     1     114.284 125.791 137.446  0.00  0.00    +0.000 A 
ATOM     15  C   UNL     1     113.348 125.315 136.476  0.00  0.00    +0.000 A 
ATOM     16  C   UNL     1     114.534 125.017 137.583  0.00  0.00    +0.000 A 
ATOM     17  C   UNL     1     113.599 124.541 136.613  0.00  0.00    +0.000 A 
ATOM     18  C   UNL     1     114.192 124.392 137.167  0.00  0.00    +0.000 A 
ENDBRANCH  11  13
BRANCH   4  19
ATOM     19  O   UNL     1     110.815 129.124 137.560  0.00  0.00    +0.000 OA
BRANCH  19  28
ATOM     20  O   UNL     1     109.882 128.493 136.680  0.00  0.00    +0.000 OA
ATOM     21  O   UNL     1     108.459 130.517 136.737  0.00  0.00    +0.000 OA
ATOM     22  O   UNL     1     109.866 130.473 137.598  0.00  0.00    +0.000 OA
ATOM     23  O   UNL     1     108.001 129.211 135.839  0.00  0.00    +0.000 OA
ATOM     24  C   UNL     1     108.933 129.842 136.718  0.00  0.00    +0.000 C 
ATOM     25  C   UNL     1     109.637 129.820 137.149  0.00  0.00    +0.000 C 
ATOM     26  C   UNL     1     108.705 129.189 136.269  0.00  0.00    +0.000 C 
ATOM     27  C   UNL     1     109.180 128.514 136.250  0.00  0.00    +0.000 C 
ATOM     28  C   UNL     1     110.112 129.146 137.129  0.00  0.00    +0.000 C 
BRANCH  27  31
ATOM     29  O   UNL     1     109.211 127.785 135.021  0.00  0.00    +0.000 OA
ATOM     30  O   UNL     1     108.461 127.286 136.130  0.00  0.00    +0.000 OA
ATOM     31  C   UNL     1     108.951 127.862 135.801  0.00  0.00    +0.000 C 
ENDBRANCH  27  31
ENDBRANCH  19  28
ENDBRANCH   4  19
TORSDOF 4
ENDMDL
MODEL 4
REMARK VINA RESULT:      -9.3      7.155     10.165
REMARK  Name = 14135334
REMARK  4 active torsions:
REMARK  status: ('A' for Active; 'I' for Inactive)
REMARK    1  A    between atoms: O_2  and  C_15
REMARK    2  A    between atoms: O_2  and  C_17
REMARK    3  A    between atoms: C_14  and  C_16
REMARK    4  A    between atoms: C_24  and  C_26
REMARK                            x       y       z     vdW  Elec       q    Type
REMARK                         _______ _______ _______ _____ _____    ______ ____
ROOT
ATOM      1  O   UNL     1     103.148 130.264 141.987  0.00  0.00    +0.000 OA
ATOM      2  O   UNL     1     103.685 128.010 140.261  0.00  0.00    +0.000 OA
ATOM      3  O   UNL     1     102.748 129.037 139.875  0.00  0.00    +0.000 OA
ATOM      4  C   UNL     1     104.520 128.523 142.275  0.00  0.00    +0.000 A 
ATOM      5  C   UNL     1     104.101 129.259 142.424  0.00  0.00    +0.000 A 
ATOM      6  C   UNL     1     104.381 128.098 141.542  0.00  0.00    +0.000 A 
ATOM      7  C   UNL     1     103.548 129.558 141.838  0.00  0.00    +0.000 A 
ATOM      8  C   UNL     1     103.415 129.149 141.134  0.00  0.00    +0.000 A 
ATOM      9  C   UNL     1     103.825 128.412 140.968  0.00  0.00    +0.000 A 
ATOM     10  C   UNL     1     102.882 129.446 140.579  0.00  0.00    +0.000 A 
ATOM     11  C   UNL     1     102.615 130.561 141.432  0.00  0.00    +0.000 A 
ATOM     12  C   UNL     1     102.482 130.152 140.728  0.00  0.00    +0.000 A 
ENDROOT
BRANCH  11  13
ATOM     13  C   UNL     1     102.215 131.267 141.581  0.00  0.00    +0.000 A 
ATOM     14  C   UNL     1     101.459 131.252 141.909  0.00  0.00    +0.000 A 
ATOM     15  C   UNL     1     102.573 131.989 141.401  0.00  0.00    +0.000 A 
ATOM     16  C   UNL     1     101.060 131.958 142.057  0.00  0.00    +0.000 A 
ATOM     17  C   UNL     1     102.173 132.695 141.549  0.00  0.00    +0.000 A 
ATOM     18  C   UNL     1     101.417 132.680 141.877  0.00  0.00    +0.000 A 
ENDBRANCH  11  13
BRANCH   4  19
ATOM     19  O   UNL     1     105.053 128.228 142.832  0.00  0.00    +0.000 OA
BRANCH  19  28
ATOM     20  O   UNL     1     106.205 128.868 142.281  0.00  0.00    +0.000 OA
ATOM     21  O   UNL     1     107.600 126.939 142.956  0.00  0.00    +0.000 OA
ATOM     22  O   UNL     1     105.983 126.942 143.283  0.00  0.00    +0.000 OA
ATOM     23  O   UNL     1     108.287 128.222 142.180  0.00  0.00    +0.000 OA
ATOM     24  C   UNL     1     107.135 127.582 142.731  0.00  0.00    +0.000 C 
ATOM     25  C   UNL     1     106.326 127.584 142.894  0.00  0.00    +0.000 C 
ATOM     26  C   UNL     1     107.478 128.224 142.343  0.00  0.00    +0.000 C 
ATOM     27  C   UNL     1     107.013 128.867 142.118  0.00  0.00    +0.000 C 
ATOM     28  C   UNL     1     105.861 128.227 142.669  0.00  0.00    +0.000 C 
BRANCH  27  31
ATOM     29  O   UNL     1     107.427 129.505 140.907  0.00  0.00    +0.000 OA
ATOM     30  O   UNL     1     107.632 130.154 142.163  0.00  0.00    +0.000 OA
ATOM     31  C   UNL     1     107.357 129.508 141.730  0.00  0.00    +0.000 C 
ENDBRANCH  27  31
ENDBRANCH  19  28
ENDBRANCH   4  19
TORSDOF 4
ENDMDL
MODEL 5
REMARK VINA RESULT:      -9.2      7.202      8.531
REMARK  Name = 14135334
REMARK  4 active torsions:
REMARK  status: ('A' for Active; 'I' for Inactive)
REMARK    1  A    between atoms: O_2  and  C_15
REMARK    2  A    between atoms: O_2  and  C_17
REMARK    3  A    between atoms: C_14  and  C_16
REMARK    4  A    between atoms: C_24  and  C_26
REMARK                            x       y       z     vdW  Elec       q    Type
REMARK                         _______ _______ _______ _____ _____    ______ ____
ROOT
ATOM      1  O   UNL     1     104.807 124.627 139.810  0.00  0.00    +0.000 OA
ATOM      2  O   UNL     1     107.182 123.599 141.096  0.00  0.00    +0.000 OA
ATOM      3  O   UNL     1     106.330 122.740 140.310  0.00  0.00    +0.000 OA
ATOM      4  C   UNL     1     106.323 125.669 141.079  0.00  0.00    +0.000 A 
ATOM      5  C   UNL     1     105.630 125.535 140.589  0.00  0.00    +0.000 A 
ATOM      6  C   UNL     1     106.852 125.013 141.253  0.00  0.00    +0.000 A 
ATOM      7  C   UNL     1     105.474 124.749 140.280  0.00  0.00    +0.000 A 
ATOM      8  C   UNL     1     105.982 124.120 140.447  0.00  0.00    +0.000 A 
ATOM      9  C   UNL     1     106.680 124.234 140.934  0.00  0.00    +0.000 A 
ATOM     10  C   UNL     1     105.823 123.370 140.144  0.00  0.00    +0.000 A 
ATOM     11  C   UNL     1     104.648 123.876 139.507  0.00  0.00    +0.000 A 
ATOM     12  C   UNL     1     105.156 123.247 139.674  0.00  0.00    +0.000 A 
ENDROOT
BRANCH  11  13
ATOM     13  C   UNL     1     103.981 123.754 139.037  0.00  0.00    +0.000 A 
ATOM     14  C   UNL     1     103.246 123.626 139.390  0.00  0.00    +0.000 A 
ATOM     15  C   UNL     1     104.049 123.760 138.215  0.00  0.00    +0.000 A 
ATOM     16  C   UNL     1     102.579 123.504 138.919  0.00  0.00    +0.000 A 
ATOM     17  C   UNL     1     103.382 123.638 137.745  0.00  0.00    +0.000 A 
ATOM     18  C   UNL     1     102.647 123.510 138.097  0.00  0.00    +0.000 A 
ENDBRANCH  11  13
BRANCH   4  19
ATOM     19  O   UNL     1     106.480 126.420 141.381  0.00  0.00    +0.000 OA
BRANCH  19  28
ATOM     20  O   UNL     1     106.220 126.151 142.760  0.00  0.00    +0.000 OA
ATOM     21  O   UNL     1     105.072 128.334 142.969  0.00  0.00    +0.000 OA
ATOM     22  O   UNL     1     105.715 127.875 141.520  0.00  0.00    +0.000 OA
ATOM     23  O   UNL     1     105.194 127.337 144.277  0.00  0.00    +0.000 OA
ATOM     24  C   UNL     1     105.454 127.606 142.899  0.00  0.00    +0.000 C 
ATOM     25  C   UNL     1     105.776 127.377 142.174  0.00  0.00    +0.000 C 
ATOM     26  C   UNL     1     105.516 127.108 143.554  0.00  0.00    +0.000 C 
ATOM     27  C   UNL     1     105.899 126.380 143.484  0.00  0.00    +0.000 C 
ATOM     28  C   UNL     1     106.159 126.649 142.105  0.00  0.00    +0.000 C 
BRANCH  27  31
ATOM     29  O   UNL     1     105.325 125.401 144.352  0.00  0.00    +0.000 OA
ATOM     30  O   UNL     1     106.656 125.865 144.580  0.00  0.00    +0.000 OA
ATOM     31  C   UNL     1     105.960 125.882 144.138  0.00  0.00    +0.000 C 
ENDBRANCH  27  31
ENDBRANCH  19  28
ENDBRANCH   4  19
TORSDOF 4
ENDMDL
MODEL 6
REMARK VINA RESULT:      -9.2      8.442     10.358
REMARK  Name = 14135334
REMARK  4 active torsions:
REMARK  status: ('A' for Active; 'I' for Inactive)
REMARK    1  A    between atoms: O_2  and  C_15
REMARK    2  A    between atoms: O_2  and  C_17
REMARK    3  A    between atoms: C_14  and  C_16
REMARK    4  A    between atoms: C_24  and  C_26
REMARK                            x       y       z     vdW  Elec       q    Type
REMARK                         _______ _______ _______ _____ _____    ______ ____
ROOT
ATOM      1  O   UNL     1     106.612 125.665 146.340  0.00  0.00    +0.000 OA
ATOM      2  O   UNL     1     105.939 128.316 145.410  0.00  0.00    +0.000 OA
ATOM      3  O   UNL     1     106.515 128.109 146.716  0.00  0.00    +0.000 OA
ATOM      4  C   UNL     1     105.720 126.328 144.401  0.00  0.00    +0.000 A 
ATOM      5  C   UNL     1     106.035 125.816 145.017  0.00  0.00    +0.000 A 
ATOM      6  C   UNL     1     105.686 127.176 144.532  0.00  0.00    +0.000 A 
ATOM      7  C   UNL     1     106.311 126.160 145.753  0.00  0.00    +0.000 A 
ATOM      8  C   UNL     1     106.279 126.975 145.878  0.00  0.00    +0.000 A 
ATOM      9  C   UNL     1     105.968 127.502 145.276  0.00  0.00    +0.000 A 
ATOM     10  C   UNL     1     106.547 127.294 146.590  0.00  0.00    +0.000 A 
ATOM     11  C   UNL     1     106.880 125.984 147.052  0.00  0.00    +0.000 A 
ATOM     12  C   UNL     1     106.848 126.798 147.177  0.00  0.00    +0.000 A 
ENDROOT
BRANCH  11  13
ATOM     13  C   UNL     1     107.181 125.488 147.639  0.00  0.00    +0.000 A 
ATOM     14  C   UNL     1     107.988 125.316 147.660  0.00  0.00    +0.000 A 
ATOM     15  C   UNL     1     106.675 125.164 148.205  0.00  0.00    +0.000 A 
ATOM     16  C   UNL     1     108.288 124.820 148.247  0.00  0.00    +0.000 A 
ATOM     17  C   UNL     1     106.976 124.668 148.791  0.00  0.00    +0.000 A 
ATOM     18  C   UNL     1     107.782 124.496 148.813  0.00  0.00    +0.000 A 
ENDBRANCH  11  13
BRANCH   4  19
ATOM     19  O   UNL     1     105.452 126.006 143.690  0.00  0.00    +0.000 OA
BRANCH  19  28
ATOM     20  O   UNL     1     106.543 126.405 142.857  0.00  0.00    +0.000 OA
ATOM     21  O   UNL     1     106.485 124.204 141.727  0.00  0.00    +0.000 OA
ATOM     22  O   UNL     1     105.413 124.539 142.936  0.00  0.00    +0.000 OA
ATOM     23  O   UNL     1     107.594 125.336 141.272  0.00  0.00    +0.000 OA
ATOM     24  C   UNL     1     106.504 124.938 142.104  0.00  0.00    +0.000 C 
ATOM     25  C   UNL     1     105.968 125.105 142.709  0.00  0.00    +0.000 C 
ATOM     26  C   UNL     1     107.059 125.504 141.876  0.00  0.00    +0.000 C 
ATOM     27  C   UNL     1     107.078 126.238 142.253  0.00  0.00    +0.000 C 
ATOM     28  C   UNL     1     105.987 125.839 143.086  0.00  0.00    +0.000 C 
BRANCH  27  31
ATOM     29  O   UNL     1     107.443 127.357 141.444  0.00  0.00    +0.000 OA
ATOM     30  O   UNL     1     108.378 126.817 142.379  0.00  0.00    +0.000 OA
ATOM     31  C   UNL     1     107.632 126.804 142.025  0.00  0.00    +0.000 C 
ENDBRANCH  27  31
ENDBRANCH  19  28
ENDBRANCH   4  19
TORSDOF 4
ENDMDL
MODEL 7
REMARK VINA RESULT:      -9.2      3.488      4.758
REMARK  Name = 14135334
REMARK  4 active torsions:
REMARK  status: ('A' for Active; 'I' for Inactive)
REMARK    1  A    between atoms: O_2  and  C_15
REMARK    2  A    between atoms: O_2  and  C_17
REMARK    3  A    between atoms: C_14  and  C_16
REMARK    4  A    between atoms: C_24  and  C_26
REMARK                            x       y       z     vdW  Elec       q    Type
REMARK                         _______ _______ _______ _____ _____    ______ ____
ROOT
ATOM      1  O   UNL     1     113.596 126.294 138.767  0.00  0.00    +0.000 OA
ATOM      2  O   UNL     1     110.869 126.446 139.709  0.00  0.00    +0.000 OA
ATOM      3  O   UNL     1     111.191 125.798 138.461  0.00  0.00    +0.000 OA
ATOM      4  C   UNL     1     112.763 127.213 140.627  0.00  0.00    +0.000 A 
ATOM      5  C   UNL     1     113.328 126.959 140.030  0.00  0.00    +0.000 A 
ATOM      6  C   UNL     1     111.929 127.040 140.520  0.00  0.00    +0.000 A 
ATOM      7  C   UNL     1     113.050 126.536 139.336  0.00  0.00    +0.000 A 
ATOM      8  C   UNL     1     112.248 126.370 139.235  0.00  0.00    +0.000 A 
ATOM      9  C   UNL     1     111.669 126.616 139.820  0.00  0.00    +0.000 A 
ATOM     10  C   UNL     1     111.993 125.964 138.564  0.00  0.00    +0.000 A 
ATOM     11  C   UNL     1     113.341 125.887 138.097  0.00  0.00    +0.000 A 
ATOM     12  C   UNL     1     112.539 125.722 137.995  0.00  0.00    +0.000 A 
ENDROOT
BRANCH  11  13
ATOM     13  C   UNL     1     113.888 125.646 137.528  0.00  0.00    +0.000 A 
ATOM     14  C   UNL     1     114.311 124.946 137.633  0.00  0.00    +0.000 A 
ATOM     15  C   UNL     1     114.010 126.105 136.853  0.00  0.00    +0.000 A 
ATOM     16  C   UNL     1     114.857 124.705 137.064  0.00  0.00    +0.000 A 
ATOM     17  C   UNL     1     114.556 125.864 136.284  0.00  0.00    +0.000 A 
ATOM     18  C   UNL     1     114.980 125.164 136.390  0.00  0.00    +0.000 A 
ENDBRANCH  11  13
BRANCH   4  19
ATOM     19  O   UNL     1     113.021 127.620 141.297  0.00  0.00    +0.000 OA
BRANCH  19  28
ATOM     20  O   UNL     1     113.288 128.903 140.728  0.00  0.00    +0.000 OA
ATOM     21  O   UNL     1     112.127 129.986 142.626  0.00  0.00    +0.000 OA
ATOM     22  O   UNL     1     112.248 128.342 142.563  0.00  0.00    +0.000 OA
ATOM     23  O   UNL     1     112.781 130.908 141.425  0.00  0.00    +0.000 OA
ATOM     24  C   UNL     1     112.514 129.625 141.993  0.00  0.00    +0.000 C 
ATOM     25  C   UNL     1     112.575 128.802 141.961  0.00  0.00    +0.000 C 
ATOM     26  C   UNL     1     112.841 130.086 141.392  0.00  0.00    +0.000 C 
ATOM     27  C   UNL     1     113.228 129.725 140.759  0.00  0.00    +0.000 C 
ATOM     28  C   UNL     1     112.961 128.441 141.328  0.00  0.00    +0.000 C 
BRANCH  27  31
ATOM     29  O   UNL     1     114.359 130.370 140.170  0.00  0.00    +0.000 OA
ATOM     30  O   UNL     1     113.077 130.463 139.546  0.00  0.00    +0.000 OA
ATOM     31  C   UNL     1     113.554 130.186 140.159  0.00  0.00    +0.000 C 
ENDBRANCH  27  31
ENDBRANCH  19  28
ENDBRANCH   4  19
TORSDOF 4
ENDMDL
MODEL 8
REMARK VINA RESULT:      -9.2      1.286      2.150
REMARK  Name = 14135334
REMARK  4 active torsions:
REMARK  status: ('A' for Active; 'I' for Inactive)
REMARK    1  A    between atoms: O_2  and  C_15
REMARK    2  A    between atoms: O_2  and  C_17
REMARK    3  A    between atoms: C_14  and  C_16
REMARK    4  A    between atoms: C_24  and  C_26
REMARK                            x       y       z     vdW  Elec       q    Type
REMARK                         _______ _______ _______ _____ _____    ______ ____
ROOT
ATOM      1  O   UNL     1     111.011 125.891 136.758  0.00  0.00    +0.000 OA
ATOM      2  O   UNL     1     108.915 126.552 134.883  0.00  0.00    +0.000 OA
ATOM      3  O   UNL     1     109.846 125.484 134.612  0.00  0.00    +0.000 OA
ATOM      4  C   UNL     1     109.425 127.462 136.865  0.00  0.00    +0.000 A 
ATOM      5  C   UNL     1     110.101 126.976 137.080  0.00  0.00    +0.000 A 
ATOM      6  C   UNL     1     109.021 127.321 136.120  0.00  0.00    +0.000 A 
ATOM      7  C   UNL     1     110.362 126.355 136.546  0.00  0.00    +0.000 A 
ATOM      8  C   UNL     1     109.974 126.219 135.831  0.00  0.00    +0.000 A 
ATOM      9  C   UNL     1     109.297 126.695 135.600  0.00  0.00    +0.000 A 
ATOM     10  C   UNL     1     110.234 125.620 135.328  0.00  0.00    +0.000 A 
ATOM     11  C   UNL     1     111.271 125.292 136.254  0.00  0.00    +0.000 A 
ATOM     12  C   UNL     1     110.883 125.156 135.539  0.00  0.00    +0.000 A 
ENDROOT
BRANCH  11  13
ATOM     13  C   UNL     1     111.920 124.828 136.465  0.00  0.00    +0.000 A 
ATOM     14  C   UNL     1     112.686 125.112 136.348  0.00  0.00    +0.000 A 
ATOM     15  C   UNL     1     111.802 124.080 136.793  0.00  0.00    +0.000 A 
ATOM     16  C   UNL     1     113.334 124.648 136.560  0.00  0.00    +0.000 A 
ATOM     17  C   UNL     1     112.451 123.616 137.004  0.00  0.00    +0.000 A 
ATOM     18  C   UNL     1     113.217 123.900 136.888  0.00  0.00    +0.000 A 
ENDBRANCH  11  13
BRANCH   4  19
ATOM     19  O   UNL     1     109.167 128.061 137.371  0.00  0.00    +0.000 OA
BRANCH  19  28
ATOM     20  O   UNL     1     109.884 129.116 136.727  0.00  0.00    +0.000 OA
ATOM     21  O   UNL     1     110.227 130.219 138.916  0.00  0.00    +0.000 OA
ATOM     22  O   UNL     1     109.396 128.796 138.830  0.00  0.00    +0.000 OA
ATOM     23  O   UNL     1     110.829 130.906 137.543  0.00  0.00    +0.000 OA
ATOM     24  C   UNL     1     110.113 129.851 138.186  0.00  0.00    +0.000 C 
ATOM     25  C   UNL     1     109.697 129.139 138.143  0.00  0.00    +0.000 C 
ATOM     26  C   UNL     1     110.413 130.195 137.499  0.00  0.00    +0.000 C 
ATOM     27  C   UNL     1     110.299 129.827 136.770  0.00  0.00    +0.000 C 
ATOM     28  C   UNL     1     109.582 128.772 137.413  0.00  0.00    +0.000 C 
BRANCH  27  31
ATOM     29  O   UNL     1     111.374 130.012 135.847  0.00  0.00    +0.000 OA
ATOM     30  O   UNL     1     110.127 130.675 135.633  0.00  0.00    +0.000 OA
ATOM     31  C   UNL     1     110.600 130.171 136.083  0.00  0.00    +0.000 C 
ENDBRANCH  27  31
ENDBRANCH  19  28
ENDBRANCH   4  19
TORSDOF 4
ENDMDL
MODEL 9
REMARK VINA RESULT:      -9.0      2.256      4.018
REMARK  Name = 14135334
REMARK  4 active torsions:
REMARK  status: ('A' for Active; 'I' for Inactive)
REMARK    1  A    between atoms: O_2  and  C_15
REMARK    2  A    between atoms: O_2  and  C_17
REMARK    3  A    between atoms: C_14  and  C_16
REMARK    4  A    between atoms: C_24  and  C_26
REMARK                            x       y       z     vdW  Elec       q    Type
REMARK                         _______ _______ _______ _____ _____    ______ ____
ROOT
ATOM      1  O   UNL     1     112.609 128.266 135.494  0.00  0.00    +0.000 OA
ATOM      2  O   UNL     1     109.818 128.461 134.772  0.00  0.00    +0.000 OA
ATOM      3  O   UNL     1     110.708 129.585 134.612  0.00  0.00    +0.000 OA
ATOM      4  C   UNL     1     110.980 126.740 135.613  0.00  0.00    +0.000 A 
ATOM      5  C   UNL     1     111.756 127.105 135.676  0.00  0.00    +0.000 A 
ATOM      6  C   UNL     1     110.321 127.198 135.307  0.00  0.00    +0.000 A 
ATOM      7  C   UNL     1     111.862 127.922 135.431  0.00  0.00    +0.000 A 
ATOM      8  C   UNL     1     111.228 128.361 135.138  0.00  0.00    +0.000 A 
ATOM      9  C   UNL     1     110.445 128.014 135.068  0.00  0.00    +0.000 A 
ATOM     10  C   UNL     1     111.342 129.144 134.906  0.00  0.00    +0.000 A 
ATOM     11  C   UNL     1     112.722 129.050 135.263  0.00  0.00    +0.000 A 
ATOM     12  C   UNL     1     112.089 129.489 134.969  0.00  0.00    +0.000 A 
ENDROOT
BRANCH  11  13
ATOM     13  C   UNL     1     113.469 129.394 135.325  0.00  0.00    +0.000 A 
ATOM     14  C   UNL     1     113.687 129.785 136.018  0.00  0.00    +0.000 A 
ATOM     15  C   UNL     1     113.999 129.347 134.694  0.00  0.00    +0.000 A 
ATOM     16  C   UNL     1     114.434 130.129 136.080  0.00  0.00    +0.000 A 
ATOM     17  C   UNL     1     114.746 129.692 134.756  0.00  0.00    +0.000 A 
ATOM     18  C   UNL     1     114.963 130.083 135.449  0.00  0.00    +0.000 A 
ENDBRANCH  11  13
BRANCH   4  19
ATOM     19  O   UNL     1     110.869 125.956 135.845  0.00  0.00    +0.000 OA
BRANCH  19  28
ATOM     20  O   UNL     1     110.458 126.250 137.182  0.00  0.00    +0.000 OA
ATOM     21  O   UNL     1     111.595 124.202 137.981  0.00  0.00    +0.000 OA
ATOM     22  O   UNL     1     111.627 124.591 136.378  0.00  0.00    +0.000 OA
ATOM     23  O   UNL     1     110.805 125.178 139.050  0.00  0.00    +0.000 OA
ATOM     24  C   UNL     1     111.216 124.885 137.715  0.00  0.00    +0.000 C 
ATOM     25  C   UNL     1     111.232 125.079 136.913  0.00  0.00    +0.000 C 
ATOM     26  C   UNL     1     110.820 125.373 138.249  0.00  0.00    +0.000 C 
ATOM     27  C   UNL     1     110.441 126.056 137.983  0.00  0.00    +0.000 C 
ATOM     28  C   UNL     1     110.853 125.762 136.646  0.00  0.00    +0.000 C 
BRANCH  27  31
ATOM     29  O   UNL     1     109.229 126.478 138.611  0.00  0.00    +0.000 OA
ATOM     30  O   UNL     1     110.469 127.097 138.959  0.00  0.00    +0.000 OA
ATOM     31  C   UNL     1     110.046 126.543 138.517  0.00  0.00    +0.000 C 
ENDBRANCH  27  31
ENDBRANCH  19  28
ENDBRANCH   4  19
TORSDOF 4
ENDMDL
MODEL 10
REMARK VINA RESULT:      -9.0      2.816      4.522
REMARK  Name = 14135334
REMARK  4 active torsions:
REMARK  status: ('A' for Active; 'I' for Inactive)
REMARK    1  A    between atoms: O_2  and  C_15
REMARK    2  A    between atoms: O_2  and  C_17
REMARK    3  A    between atoms: C_14  and  C_16
REMARK    4  A    between atoms: C_24  and  C_26
REMARK                            x       y       z     vdW  Elec       q    Type
REMARK                         _______ _______ _______ _____ _____    ______ ____
ROOT
ATOM      1  O   UNL     1     111.715 126.762 137.117  0.00  0.00    +0.000 OA
ATOM      2  O   UNL     1     114.173 125.859 138.338  0.00  0.00    +0.000 OA
ATOM      3  O   UNL     1     113.709 125.296 137.093  0.00  0.00    +0.000 OA
ATOM      4  C   UNL     1     112.706 127.412 139.012  0.00  0.00    +0.000 A 
ATOM      5  C   UNL     1     112.136 127.362 138.371  0.00  0.00    +0.000 A 
ATOM      6  C   UNL     1     113.398 126.903 139.004  0.00  0.00    +0.000 A 
ATOM      7  C   UNL     1     112.265 126.805 137.730  0.00  0.00    +0.000 A 
ATOM      8  C   UNL     1     112.930 126.316 137.722  0.00  0.00    +0.000 A 
ATOM      9  C   UNL     1     113.511 126.351 138.354  0.00  0.00    +0.000 A 
ATOM     10  C   UNL     1     113.044 125.785 137.102  0.00  0.00    +0.000 A 
ATOM     11  C   UNL     1     111.829 126.230 136.497  0.00  0.00    +0.000 A 
ATOM     12  C   UNL     1     112.494 125.742 136.489  0.00  0.00    +0.000 A 
ENDROOT
BRANCH  11  13
ATOM     13  C   UNL     1     111.278 126.187 135.884  0.00  0.00    +0.000 A 
ATOM     14  C   UNL     1     110.767 125.541 135.833  0.00  0.00    +0.000 A 
ATOM     15  C   UNL     1     111.238 126.791 135.322  0.00  0.00    +0.000 A 
ATOM     16  C   UNL     1     110.217 125.499 135.220  0.00  0.00    +0.000 A 
ATOM     17  C   UNL     1     110.688 126.748 134.710  0.00  0.00    +0.000 A 
ATOM     18  C   UNL     1     110.177 126.102 134.658  0.00  0.00    +0.000 A 
ENDBRANCH  11  13
BRANCH   4  19
ATOM     19  O   UNL     1     112.589 127.944 139.632  0.00  0.00    +0.000 OA
BRANCH  19  28
ATOM     20  O   UNL     1     113.012 129.143 138.979  0.00  0.00    +0.000 OA
ATOM     21  O   UNL     1     114.231 129.825 141.022  0.00  0.00    +0.000 OA
ATOM     22  O   UNL     1     113.402 128.399 140.994  0.00  0.00    +0.000 OA
ATOM     23  O   UNL     1     114.247 130.796 139.689  0.00  0.00    +0.000 OA
ATOM     24  C   UNL     1     113.825 129.598 140.341  0.00  0.00    +0.000 C 
ATOM     25  C   UNL     1     113.410 128.884 140.327  0.00  0.00    +0.000 C 
ATOM     26  C   UNL     1     113.832 130.083 139.674  0.00  0.00    +0.000 C 
ATOM     27  C   UNL     1     113.426 129.856 138.993  0.00  0.00    +0.000 C 
ATOM     28  C   UNL     1     113.003 128.657 139.646  0.00  0.00    +0.000 C 
BRANCH  27  31
ATOM     29  O   UNL     1     112.859 130.926 138.235  0.00  0.00    +0.000 OA
ATOM     30  O   UNL     1     114.017 130.243 137.752  0.00  0.00    +0.000 OA
ATOM     31  C   UNL     1     113.434 130.341 138.327  0.00  0.00    +0.000 C 
ENDBRANCH  27  31
ENDBRANCH  19  28
ENDBRANCH   4  19
TORSDOF 4
ENDMDL
