MODEL 1
REMARK VINA RESULT:      -7.4      0.000      0.000
REMARK  Name = 15382687
REMARK  7 active torsions:
REMARK  status: ('A' for Active; 'I' for Inactive)
REMARK    1  A    between atoms: O_2  and  C_14
REMARK    2  A    between atoms: O_3  and  C_16
REMARK    3  A    between atoms: O_4  and  C_18
REMARK    4  A    between atoms: O_6  and  C_22
REMARK    5  A    between atoms: O_7  and  C_23
REMARK    6  A    between atoms: O_9  and  C_24
REMARK    7  A    between atoms: C_12  and  C_13
REMARK                            x       y       z     vdW  Elec       q    Type
REMARK                         _______ _______ _______ _____ _____    ______ ____
ROOT
ATOM      1  O   UNL     1     113.434 127.602 136.304  0.00  0.00    +0.000 OA
ATOM      2  O   UNL     1     114.331 128.439 135.164  0.00  0.00    +0.000 OA
ATOM      3  O   UNL     1     112.520 128.762 138.290  0.00  0.00    +0.000 OA
ATOM      4  C   UNL     1     113.265 128.795 137.072  0.00  0.00    +0.000 A 
ATOM      5  C   UNL     1     113.570 128.408 136.410  0.00  0.00    +0.000 A 
ATOM      6  C   UNL     1     112.992 127.181 136.861  0.00  0.00    +0.000 A 
ATOM      7  C   UNL     1     112.688 127.568 137.523  0.00  0.00    +0.000 A 
ATOM      8  C   UNL     1     112.824 128.375 137.628  0.00  0.00    +0.000 A 
ATOM      9  C   UNL     1     113.401 129.636 137.192  0.00  0.00    +0.000 A 
ATOM     10  C   UNL     1     114.031 128.835 135.823  0.00  0.00    +0.000 A 
ATOM     11  C   UNL     1     114.176 129.675 135.927  0.00  0.00    +0.000 A 
ATOM     12  C   UNL     1     113.859 130.078 136.616  0.00  0.00    +0.000 A 
ENDROOT
BRANCH   6  13
ATOM     13  C   UNL     1     112.856 126.375 136.755  0.00  0.00    +0.000 A 
ATOM     14  C   UNL     1     112.165 126.118 136.385  0.00  0.00    +0.000 A 
ATOM     15  C   UNL     1     113.412 125.825 137.021  0.00  0.00    +0.000 A 
ATOM     16  C   UNL     1     113.276 125.018 136.915  0.00  0.00    +0.000 A 
ATOM     17  C   UNL     1     112.030 125.310 136.279  0.00  0.00    +0.000 A 
ATOM     18  C   UNL     1     112.585 124.761 136.544  0.00  0.00    +0.000 A 
BRANCH  16  19
ATOM     19  O   UNL     1     113.831 124.468 137.180  0.00  0.00    +0.000 OA
ATOM     20  C   UNL     1     114.622 124.690 137.265  0.00  0.00    +0.000 C 
ENDBRANCH  16  19
BRANCH  17  21
ATOM     21  O   UNL     1     111.340 125.053 135.909  0.00  0.00    +0.000 OA
ATOM     22  C   UNL     1     110.945 125.550 135.380  0.00  0.00    +0.000 C 
ENDBRANCH  17  21
BRANCH  18  23
ATOM     23  O   UNL     1     112.450 123.954 136.439  0.00  0.00    +0.000 OA
ATOM     24  C   UNL     1     112.049 123.524 137.018  0.00  0.00    +0.000 C 
ENDBRANCH  18  23
ENDBRANCH   6  13
BRANCH   7  25
ATOM     25  O   UNL     1     112.247 127.149 138.079  0.00  0.00    +0.000 OA
ATOM     26  C   UNL     1     112.209 127.413 138.860  0.00  0.00    +0.000 C 
ENDBRANCH   7  25
BRANCH   9  27
ATOM     27  O   UNL     1     113.092 130.014 137.857  0.00  0.00    +0.000 OA
ATOM     28  C   UNL     1     112.902 130.817 137.824  0.00  0.00    +0.000 C 
ENDBRANCH   9  27
BRANCH  11  29
ATOM     29  O   UNL     1     114.617 130.092 135.369  0.00  0.00    +0.000 OA
ATOM     30  C   UNL     1     115.190 130.633 135.615  0.00  0.00    +0.000 C 
ENDBRANCH  11  29
TORSDOF 7
ENDMDL
MODEL 2
REMARK VINA RESULT:      -7.0      1.211      4.721
REMARK  Name = 15382687
REMARK  7 active torsions:
REMARK  status: ('A' for Active; 'I' for Inactive)
REMARK    1  A    between atoms: O_2  and  C_14
REMARK    2  A    between atoms: O_3  and  C_16
REMARK    3  A    between atoms: O_4  and  C_18
REMARK    4  A    between atoms: O_6  and  C_22
REMARK    5  A    between atoms: O_7  and  C_23
REMARK    6  A    between atoms: O_9  and  C_24
REMARK    7  A    between atoms: C_12  and  C_13
REMARK                            x       y       z     vdW  Elec       q    Type
REMARK                         _______ _______ _______ _____ _____    ______ ____
ROOT
ATOM      1  O   UNL     1     112.861 127.178 136.364  0.00  0.00    +0.000 OA
ATOM      2  O   UNL     1     113.425 125.656 136.777  0.00  0.00    +0.000 OA
ATOM      3  O   UNL     1     110.592 127.467 135.418  0.00  0.00    +0.000 OA
ATOM      4  C   UNL     1     111.618 126.618 135.934  0.00  0.00    +0.000 A 
ATOM      5  C   UNL     1     112.375 126.522 136.249  0.00  0.00    +0.000 A 
ATOM      6  C   UNL     1     112.590 127.932 136.163  0.00  0.00    +0.000 A 
ATOM      7  C   UNL     1     111.834 128.028 135.848  0.00  0.00    +0.000 A 
ATOM      8  C   UNL     1     111.348 127.371 135.733  0.00  0.00    +0.000 A 
ATOM      9  C   UNL     1     111.103 125.942 135.810  0.00  0.00    +0.000 A 
ATOM     10  C   UNL     1     112.667 125.742 136.463  0.00  0.00    +0.000 A 
ATOM     11  C   UNL     1     112.166 125.055 136.346  0.00  0.00    +0.000 A 
ATOM     12  C   UNL     1     111.378 125.155 136.018  0.00  0.00    +0.000 A 
ENDROOT
BRANCH   6  13
ATOM     13  C   UNL     1     113.077 128.588 136.278  0.00  0.00    +0.000 A 
ATOM     14  C   UNL     1     113.566 128.851 135.668  0.00  0.00    +0.000 A 
ATOM     15  C   UNL     1     113.073 128.982 137.003  0.00  0.00    +0.000 A 
ATOM     16  C   UNL     1     113.560 129.638 137.118  0.00  0.00    +0.000 A 
ATOM     17  C   UNL     1     114.052 129.508 135.784  0.00  0.00    +0.000 A 
ATOM     18  C   UNL     1     114.049 129.901 136.508  0.00  0.00    +0.000 A 
BRANCH  16  19
ATOM     19  O   UNL     1     113.556 130.032 137.844  0.00  0.00    +0.000 OA
ATOM     20  C   UNL     1     113.378 129.619 138.535  0.00  0.00    +0.000 C 
ENDBRANCH  16  19
BRANCH  17  21
ATOM     21  O   UNL     1     114.542 129.771 135.174  0.00  0.00    +0.000 OA
ATOM     22  C   UNL     1     114.834 129.234 134.618  0.00  0.00    +0.000 C 
ENDBRANCH  17  21
BRANCH  18  23
ATOM     23  O   UNL     1     114.535 130.558 136.624  0.00  0.00    +0.000 OA
ATOM     24  C   UNL     1     114.253 131.314 136.454  0.00  0.00    +0.000 C 
ENDBRANCH  18  23
ENDBRANCH   6  13
BRANCH   7  25
ATOM     25  O   UNL     1     111.564 128.781 135.647  0.00  0.00    +0.000 OA
ATOM     26  C   UNL     1     110.754 128.937 135.626  0.00  0.00    +0.000 C 
ENDBRANCH   7  25
BRANCH   9  27
ATOM     27  O   UNL     1     110.348 126.048 135.494  0.00  0.00    +0.000 OA
ATOM     28  C   UNL     1     110.044 125.498 134.959  0.00  0.00    +0.000 C 
ENDBRANCH   9  27
BRANCH  11  29
ATOM     29  O   UNL     1     112.439 124.303 136.548  0.00  0.00    +0.000 OA
ATOM     30  C   UNL     1     111.940 123.773 136.937  0.00  0.00    +0.000 C 
ENDBRANCH  11  29
TORSDOF 7
ENDMDL
MODEL 3
REMARK VINA RESULT:      -6.9     12.084     14.299
REMARK  Name = 15382687
REMARK  7 active torsions:
REMARK  status: ('A' for Active; 'I' for Inactive)
REMARK    1  A    between atoms: O_2  and  C_14
REMARK    2  A    between atoms: O_3  and  C_16
REMARK    3  A    between atoms: O_4  and  C_18
REMARK    4  A    between atoms: O_6  and  C_22
REMARK    5  A    between atoms: O_7  and  C_23
REMARK    6  A    between atoms: O_9  and  C_24
REMARK    7  A    between atoms: C_12  and  C_13
REMARK                            x       y       z     vdW  Elec       q    Type
REMARK                         _______ _______ _______ _____ _____    ______ ____
ROOT
ATOM      1  O   UNL     1     104.583 124.274 146.899  0.00  0.00    +0.000 OA
ATOM      2  O   UNL     1     104.168 123.085 145.794  0.00  0.00    +0.000 OA
ATOM      3  O   UNL     1     102.831 125.548 148.096  0.00  0.00    +0.000 OA
ATOM      4  C   UNL     1     103.202 124.540 147.155  0.00  0.00    +0.000 A 
ATOM      5  C   UNL     1     103.786 124.116 146.756  0.00  0.00    +0.000 A 
ATOM      6  C   UNL     1     104.795 124.858 147.443  0.00  0.00    +0.000 A 
ATOM      7  C   UNL     1     104.211 125.283 147.842  0.00  0.00    +0.000 A 
ATOM      8  C   UNL     1     103.415 125.124 147.697  0.00  0.00    +0.000 A 
ATOM      9  C   UNL     1     102.368 124.384 147.013  0.00  0.00    +0.000 A 
ATOM     10  C   UNL     1     103.577 123.505 146.188  0.00  0.00    +0.000 A 
ATOM     11  C   UNL     1     102.749 123.335 146.034  0.00  0.00    +0.000 A 
ATOM     12  C   UNL     1     102.141 123.778 146.449  0.00  0.00    +0.000 A 
ENDROOT
BRANCH   6  13
ATOM     13  C   UNL     1     105.592 125.016 147.586  0.00  0.00    +0.000 A 
ATOM     14  C   UNL     1     105.978 125.611 147.164  0.00  0.00    +0.000 A 
ATOM     15  C   UNL     1     106.003 124.579 148.153  0.00  0.00    +0.000 A 
ATOM     16  C   UNL     1     106.800 124.737 148.297  0.00  0.00    +0.000 A 
ATOM     17  C   UNL     1     106.775 125.769 147.309  0.00  0.00    +0.000 A 
ATOM     18  C   UNL     1     107.186 125.332 147.874  0.00  0.00    +0.000 A 
BRANCH  16  19
ATOM     19  O   UNL     1     107.212 124.300 148.863  0.00  0.00    +0.000 OA
ATOM     20  C   UNL     1     106.871 124.158 149.601  0.00  0.00    +0.000 C 
ENDBRANCH  16  19
BRANCH  17  21
ATOM     21  O   UNL     1     107.160 126.363 146.886  0.00  0.00    +0.000 OA
ATOM     22  C   UNL     1     106.738 126.831 146.352  0.00  0.00    +0.000 C 
ENDBRANCH  17  21
BRANCH  18  23
ATOM     23  O   UNL     1     107.983 125.489 148.019  0.00  0.00    +0.000 OA
ATOM     24  C   UNL     1     108.566 125.052 147.633  0.00  0.00    +0.000 C 
ENDBRANCH  18  23
ENDBRANCH   6  13
BRANCH   7  25
ATOM     25  O   UNL     1     104.424 125.866 148.384  0.00  0.00    +0.000 OA
ATOM     26  C   UNL     1     103.866 126.156 148.918  0.00  0.00    +0.000 C 
ENDBRANCH   7  25
BRANCH   9  27
ATOM     27  O   UNL     1     101.792 124.814 147.417  0.00  0.00    +0.000 OA
ATOM     28  C   UNL     1     101.078 124.454 147.624  0.00  0.00    +0.000 C 
ENDBRANCH   9  27
BRANCH  11  29
ATOM     29  O   UNL     1     102.539 122.751 145.490  0.00  0.00    +0.000 OA
ATOM     30  C   UNL     1     101.809 122.786 145.108  0.00  0.00    +0.000 C 
ENDBRANCH  11  29
TORSDOF 7
ENDMDL
MODEL 4
REMARK VINA RESULT:      -6.9      2.005      4.696
REMARK  Name = 15382687
REMARK  7 active torsions:
REMARK  status: ('A' for Active; 'I' for Inactive)
REMARK    1  A    between atoms: O_2  and  C_14
REMARK    2  A    between atoms: O_3  and  C_16
REMARK    3  A    between atoms: O_4  and  C_18
REMARK    4  A    between atoms: O_6  and  C_22
REMARK    5  A    between atoms: O_7  and  C_23
REMARK    6  A    between atoms: O_9  and  C_24
REMARK    7  A    between atoms: C_12  and  C_13
REMARK                            x       y       z     vdW  Elec       q    Type
REMARK                         _______ _______ _______ _____ _____    ______ ____
ROOT
ATOM      1  O   UNL     1     112.178 126.741 136.661  0.00  0.00    +0.000 OA
ATOM      2  O   UNL     1     113.606 126.514 137.507  0.00  0.00    +0.000 OA
ATOM      3  O   UNL     1     110.921 124.804 135.769  0.00  0.00    +0.000 OA
ATOM      4  C   UNL     1     112.042 125.329 136.482  0.00  0.00    +0.000 A 
ATOM      5  C   UNL     1     112.461 125.975 136.779  0.00  0.00    +0.000 A 
ATOM      6  C   UNL     1     111.475 126.861 136.246  0.00  0.00    +0.000 A 
ATOM      7  C   UNL     1     111.056 126.215 135.948  0.00  0.00    +0.000 A 
ATOM      8  C   UNL     1     111.340 125.450 136.067  0.00  0.00    +0.000 A 
ATOM      9  C   UNL     1     112.327 124.527 136.598  0.00  0.00    +0.000 A 
ATOM     10  C   UNL     1     113.194 125.862 137.214  0.00  0.00    +0.000 A 
ATOM     11  C   UNL     1     113.495 125.067 137.340  0.00  0.00    +0.000 A 
ATOM     12  C   UNL     1     113.058 124.395 137.030  0.00  0.00    +0.000 A 
ENDROOT
BRANCH   6  13
ATOM     13  C   UNL     1     111.192 127.627 136.128  0.00  0.00    +0.000 A 
ATOM     14  C   UNL     1     110.594 127.925 136.612  0.00  0.00    +0.000 A 
ATOM     15  C   UNL     1     111.508 128.095 135.526  0.00  0.00    +0.000 A 
ATOM     16  C   UNL     1     111.225 128.860 135.408  0.00  0.00    +0.000 A 
ATOM     17  C   UNL     1     110.311 128.691 136.493  0.00  0.00    +0.000 A 
ATOM     18  C   UNL     1     110.627 129.159 135.892  0.00  0.00    +0.000 A 
BRANCH  16  19
ATOM     19  O   UNL     1     111.541 129.329 134.806  0.00  0.00    +0.000 OA
ATOM     20  C   UNL     1     112.341 129.267 134.613  0.00  0.00    +0.000 C 
ENDBRANCH  16  19
BRANCH  17  21
ATOM     21  O   UNL     1     109.713 128.989 136.976  0.00  0.00    +0.000 OA
ATOM     22  C   UNL     1     109.720 128.832 137.787  0.00  0.00    +0.000 C 
ENDBRANCH  17  21
BRANCH  18  23
ATOM     23  O   UNL     1     110.344 129.925 135.773  0.00  0.00    +0.000 OA
ATOM     24  C   UNL     1     109.716 130.057 135.255  0.00  0.00    +0.000 C 
ENDBRANCH  18  23
ENDBRANCH   6  13
BRANCH   7  25
ATOM     25  O   UNL     1     110.354 126.336 135.533  0.00  0.00    +0.000 OA
ATOM     26  C   UNL     1     110.100 125.777 134.982  0.00  0.00    +0.000 C 
ENDBRANCH   7  25
BRANCH   9  27
ATOM     27  O   UNL     1     111.901 123.887 136.297  0.00  0.00    +0.000 OA
ATOM     28  C   UNL     1     111.857 123.183 136.725  0.00  0.00    +0.000 C 
ENDBRANCH   9  27
BRANCH  11  29
ATOM     29  O   UNL     1     114.197 124.950 137.755  0.00  0.00    +0.000 OA
ATOM     30  C   UNL     1     114.830 124.562 137.396  0.00  0.00    +0.000 C 
ENDBRANCH  11  29
TORSDOF 7
ENDMDL
MODEL 5
REMARK VINA RESULT:      -6.8      1.092      4.686
REMARK  Name = 15382687
REMARK  7 active torsions:
REMARK  status: ('A' for Active; 'I' for Inactive)
REMARK    1  A    between atoms: O_2  and  C_14
REMARK    2  A    between atoms: O_3  and  C_16
REMARK    3  A    between atoms: O_4  and  C_18
REMARK    4  A    between atoms: O_6  and  C_22
REMARK    5  A    between atoms: O_7  and  C_23
REMARK    6  A    between atoms: O_9  and  C_24
REMARK    7  A    between atoms: C_12  and  C_13
REMARK                            x       y       z     vdW  Elec       q    Type
REMARK                         _______ _______ _______ _____ _____    ______ ____
ROOT
ATOM      1  O   UNL     1     111.933 127.518 136.133  0.00  0.00    +0.000 OA
ATOM      2  O   UNL     1     110.794 127.304 134.923  0.00  0.00    +0.000 OA
ATOM      3  O   UNL     1     112.727 125.594 137.473  0.00  0.00    +0.000 OA
ATOM      4  C   UNL     1     111.901 126.121 136.433  0.00  0.00    +0.000 A 
ATOM      5  C   UNL     1     111.637 126.763 135.986  0.00  0.00    +0.000 A 
ATOM      6  C   UNL     1     112.495 127.632 136.727  0.00  0.00    +0.000 A 
ATOM      7  C   UNL     1     112.760 126.991 137.174  0.00  0.00    +0.000 A 
ATOM      8  C   UNL     1     112.462 126.236 137.026  0.00  0.00    +0.000 A 
ATOM      9  C   UNL     1     111.599 125.329 136.289  0.00  0.00    +0.000 A 
ATOM     10  C   UNL     1     111.052 126.656 135.365  0.00  0.00    +0.000 A 
ATOM     11  C   UNL     1     110.740 125.872 135.207  0.00  0.00    +0.000 A 
ATOM     12  C   UNL     1     111.015 125.204 135.672  0.00  0.00    +0.000 A 
ENDROOT
BRANCH   6  13
ATOM     13  C   UNL     1     112.792 128.388 136.874  0.00  0.00    +0.000 A 
ATOM     14  C   UNL     1     113.459 128.656 136.469  0.00  0.00    +0.000 A 
ATOM     15  C   UNL     1     112.420 128.877 137.426  0.00  0.00    +0.000 A 
ATOM     16  C   UNL     1     112.717 129.632 137.572  0.00  0.00    +0.000 A 
ATOM     17  C   UNL     1     113.755 129.412 136.616  0.00  0.00    +0.000 A 
ATOM     18  C   UNL     1     113.384 129.900 137.168  0.00  0.00    +0.000 A 
BRANCH  16  19
ATOM     19  O   UNL     1     112.345 130.121 138.125  0.00  0.00    +0.000 OA
ATOM     20  C   UNL     1     111.540 130.029 138.280  0.00  0.00    +0.000 C 
ENDBRANCH  16  19
BRANCH  17  21
ATOM     21  O   UNL     1     114.422 129.679 136.212  0.00  0.00    +0.000 OA
ATOM     22  C   UNL     1     114.566 129.425 135.440  0.00  0.00    +0.000 C 
ENDBRANCH  17  21
BRANCH  18  23
ATOM     23  O   UNL     1     113.680 130.656 137.315  0.00  0.00    +0.000 OA
ATOM     24  C   UNL     1     114.207 130.778 137.938  0.00  0.00    +0.000 C 
ENDBRANCH  18  23
ENDBRANCH   6  13
BRANCH   7  25
ATOM     25  O   UNL     1     113.320 127.105 137.767  0.00  0.00    +0.000 OA
ATOM     26  C   UNL     1     113.405 126.546 138.368  0.00  0.00    +0.000 C 
ENDBRANCH   7  25
BRANCH   9  27
ATOM     27  O   UNL     1     111.870 124.694 136.741  0.00  0.00    +0.000 OA
ATOM     28  C   UNL     1     111.798 123.924 136.453  0.00  0.00    +0.000 C 
ENDBRANCH   9  27
BRANCH  11  29
ATOM     29  O   UNL     1     110.178 125.761 134.613  0.00  0.00    +0.000 OA
ATOM     30  C   UNL     1     109.383 125.667 134.808  0.00  0.00    +0.000 C 
ENDBRANCH  11  29
TORSDOF 7
ENDMDL
MODEL 6
REMARK VINA RESULT:      -6.8      9.828     11.967
REMARK  Name = 15382687
REMARK  7 active torsions:
REMARK  status: ('A' for Active; 'I' for Inactive)
REMARK    1  A    between atoms: O_2  and  C_14
REMARK    2  A    between atoms: O_3  and  C_16
REMARK    3  A    between atoms: O_4  and  C_18
REMARK    4  A    between atoms: O_6  and  C_22
REMARK    5  A    between atoms: O_7  and  C_23
REMARK    6  A    between atoms: O_9  and  C_24
REMARK    7  A    between atoms: C_12  and  C_13
REMARK                            x       y       z     vdW  Elec       q    Type
REMARK                         _______ _______ _______ _____ _____    ______ ____
ROOT
ATOM      1  O   UNL     1     106.416 126.191 145.443  0.00  0.00    +0.000 OA
ATOM      2  O   UNL     1     107.084 127.455 144.569  0.00  0.00    +0.000 OA
ATOM      3  O   UNL     1     105.281 124.320 144.286  0.00  0.00    +0.000 OA
ATOM      4  C   UNL     1     105.985 125.562 144.234  0.00  0.00    +0.000 A 
ATOM      5  C   UNL     1     106.364 126.186 144.620  0.00  0.00    +0.000 A 
ATOM      6  C   UNL     1     106.090 125.572 145.881  0.00  0.00    +0.000 A 
ATOM      7  C   UNL     1     105.712 124.948 145.495  0.00  0.00    +0.000 A 
ATOM      8  C   UNL     1     105.660 124.944 144.672  0.00  0.00    +0.000 A 
ATOM      9  C   UNL     1     105.925 125.546 143.377  0.00  0.00    +0.000 A 
ATOM     10  C   UNL     1     106.707 126.836 144.174  0.00  0.00    +0.000 A 
ATOM     11  C   UNL     1     106.656 126.836 143.317  0.00  0.00    +0.000 A 
ATOM     12  C   UNL     1     106.262 126.187 142.916  0.00  0.00    +0.000 A 
ENDROOT
BRANCH   6  13
ATOM     13  C   UNL     1     106.143 125.578 146.704  0.00  0.00    +0.000 A 
ATOM     14  C   UNL     1     106.788 125.227 147.079  0.00  0.00    +0.000 A 
ATOM     15  C   UNL     1     105.548 125.935 147.152  0.00  0.00    +0.000 A 
ATOM     16  C   UNL     1     105.601 125.940 147.976  0.00  0.00    +0.000 A 
ATOM     17  C   UNL     1     106.840 125.233 147.903  0.00  0.00    +0.000 A 
ATOM     18  C   UNL     1     106.247 125.590 148.351  0.00  0.00    +0.000 A 
BRANCH  16  19
ATOM     19  O   UNL     1     105.007 126.297 148.424  0.00  0.00    +0.000 OA
ATOM     20  C   UNL     1     104.630 126.975 148.143  0.00  0.00    +0.000 C 
ENDBRANCH  16  19
BRANCH  17  21
ATOM     21  O   UNL     1     107.485 124.882 148.278  0.00  0.00    +0.000 OA
ATOM     22  C   UNL     1     108.240 124.947 147.948  0.00  0.00    +0.000 C 
ENDBRANCH  17  21
BRANCH  18  23
ATOM     23  O   UNL     1     106.298 125.596 149.174  0.00  0.00    +0.000 OA
ATOM     24  C   UNL     1     105.979 124.974 149.612  0.00  0.00    +0.000 C 
ENDBRANCH  18  23
ENDBRANCH   6  13
BRANCH   7  25
ATOM     25  O   UNL     1     105.386 124.330 145.933  0.00  0.00    +0.000 OA
ATOM     26  C   UNL     1     104.733 123.919 145.643  0.00  0.00    +0.000 C 
ENDBRANCH   7  25
BRANCH   9  27
ATOM     27  O   UNL     1     105.544 124.918 143.000  0.00  0.00    +0.000 OA
ATOM     28  C   UNL     1     105.797 124.670 142.254  0.00  0.00    +0.000 C 
ENDBRANCH   9  27
BRANCH  11  29
ATOM     29  O   UNL     1     106.983 127.456 142.882  0.00  0.00    +0.000 OA
ATOM     30  C   UNL     1     106.557 127.795 142.262  0.00  0.00    +0.000 C 
ENDBRANCH  11  29
TORSDOF 7
ENDMDL
MODEL 7
REMARK VINA RESULT:      -6.8     12.174     14.501
REMARK  Name = 15382687
REMARK  7 active torsions:
REMARK  status: ('A' for Active; 'I' for Inactive)
REMARK    1  A    between atoms: O_2  and  C_14
REMARK    2  A    between atoms: O_3  and  C_16
REMARK    3  A    between atoms: O_4  and  C_18
REMARK    4  A    between atoms: O_6  and  C_22
REMARK    5  A    between atoms: O_7  and  C_23
REMARK    6  A    between atoms: O_9  and  C_24
REMARK    7  A    between atoms: C_12  and  C_13
REMARK                            x       y       z     vdW  Elec       q    Type
REMARK                         _______ _______ _______ _____ _____    ______ ____
ROOT
ATOM      1  O   UNL     1     103.677 124.864 147.243  0.00  0.00    +0.000 OA
ATOM      2  O   UNL     1     102.563 125.523 148.307  0.00  0.00    +0.000 OA
ATOM      3  O   UNL     1     103.065 122.938 145.813  0.00  0.00    +0.000 OA
ATOM      4  C   UNL     1     102.715 123.898 146.811  0.00  0.00    +0.000 A 
ATOM      5  C   UNL     1     102.919 124.540 147.287  0.00  0.00    +0.000 A 
ATOM      6  C   UNL     1     104.231 124.544 146.721  0.00  0.00    +0.000 A 
ATOM      7  C   UNL     1     104.027 123.903 146.244  0.00  0.00    +0.000 A 
ATOM      8  C   UNL     1     103.269 123.580 146.290  0.00  0.00    +0.000 A 
ATOM      9  C   UNL     1     101.929 123.553 146.849  0.00  0.00    +0.000 A 
ATOM     10  C   UNL     1     102.350 124.881 147.835  0.00  0.00    +0.000 A 
ATOM     11  C   UNL     1     101.560 124.549 147.886  0.00  0.00    +0.000 A 
ATOM     12  C   UNL     1     101.348 123.881 147.390  0.00  0.00    +0.000 A 
ENDROOT
BRANCH   6  13
ATOM     13  C   UNL     1     104.988 124.868 146.676  0.00  0.00    +0.000 A 
ATOM     14  C   UNL     1     105.580 124.606 147.188  0.00  0.00    +0.000 A 
ATOM     15  C   UNL     1     105.154 125.454 146.119  0.00  0.00    +0.000 A 
ATOM     16  C   UNL     1     105.912 125.778 146.075  0.00  0.00    +0.000 A 
ATOM     17  C   UNL     1     106.338 124.930 147.143  0.00  0.00    +0.000 A 
ATOM     18  C   UNL     1     106.503 125.516 146.587  0.00  0.00    +0.000 A 
BRANCH  16  19
ATOM     19  O   UNL     1     106.077 126.364 145.518  0.00  0.00    +0.000 OA
ATOM     20  C   UNL     1     105.593 126.452 144.856  0.00  0.00    +0.000 C 
ENDBRANCH  16  19
BRANCH  17  21
ATOM     21  O   UNL     1     106.929 124.668 147.654  0.00  0.00    +0.000 OA
ATOM     22  C   UNL     1     106.728 124.342 148.386  0.00  0.00    +0.000 C 
ENDBRANCH  17  21
BRANCH  18  23
ATOM     23  O   UNL     1     107.261 125.840 146.541  0.00  0.00    +0.000 OA
ATOM     24  C   UNL     1     107.439 126.529 146.958  0.00  0.00    +0.000 C 
ENDBRANCH  18  23
ENDBRANCH   6  13
BRANCH   7  25
ATOM     25  O   UNL     1     104.581 123.584 145.723  0.00  0.00    +0.000 OA
ATOM     26  C   UNL     1     104.342 123.043 145.148  0.00  0.00    +0.000 C 
ENDBRANCH   7  25
BRANCH   9  27
ATOM     27  O   UNL     1     101.734 122.911 146.368  0.00  0.00    +0.000 OA
ATOM     28  C   UNL     1     100.947 122.775 146.160  0.00  0.00    +0.000 C 
ENDBRANCH   9  27
BRANCH  11  29
ATOM     29  O   UNL     1     101.008 124.870 148.408  0.00  0.00    +0.000 OA
ATOM     30  C   UNL     1     100.710 124.413 149.027  0.00  0.00    +0.000 C 
ENDBRANCH  11  29
TORSDOF 7
ENDMDL
MODEL 8
REMARK VINA RESULT:      -6.7      1.296      2.133
REMARK  Name = 15382687
REMARK  7 active torsions:
REMARK  status: ('A' for Active; 'I' for Inactive)
REMARK    1  A    between atoms: O_2  and  C_14
REMARK    2  A    between atoms: O_3  and  C_16
REMARK    3  A    between atoms: O_4  and  C_18
REMARK    4  A    between atoms: O_6  and  C_22
REMARK    5  A    between atoms: O_7  and  C_23
REMARK    6  A    between atoms: O_9  and  C_24
REMARK    7  A    between atoms: C_12  and  C_13
REMARK                            x       y       z     vdW  Elec       q    Type
REMARK                         _______ _______ _______ _____ _____    ______ ____
ROOT
ATOM      1  O   UNL     1     113.092 127.854 138.274  0.00  0.00    +0.000 OA
ATOM      2  O   UNL     1     113.550 128.565 139.720  0.00  0.00    +0.000 OA
ATOM      3  O   UNL     1     112.874 129.212 136.216  0.00  0.00    +0.000 OA
ATOM      4  C   UNL     1     113.172 129.117 137.609  0.00  0.00    +0.000 A 
ATOM      5  C   UNL     1     113.245 128.665 138.295  0.00  0.00    +0.000 A 
ATOM      6  C   UNL     1     112.866 127.497 137.565  0.00  0.00    +0.000 A 
ATOM      7  C   UNL     1     112.793 127.949 136.879  0.00  0.00    +0.000 A 
ATOM      8  C   UNL     1     112.947 128.760 136.902  0.00  0.00    +0.000 A 
ATOM      9  C   UNL     1     113.329 129.962 137.620  0.00  0.00    +0.000 A 
ATOM     10  C   UNL     1     113.480 129.026 139.039  0.00  0.00    +0.000 A 
ATOM     11  C   UNL     1     113.641 129.869 139.069  0.00  0.00    +0.000 A 
ATOM     12  C   UNL     1     113.565 130.340 138.355  0.00  0.00    +0.000 A 
ENDROOT
BRANCH   6  13
ATOM     13  C   UNL     1     112.713 126.686 137.543  0.00  0.00    +0.000 A 
ATOM     14  C   UNL     1     111.956 126.404 137.710  0.00  0.00    +0.000 A 
ATOM     15  C   UNL     1     113.318 126.158 137.354  0.00  0.00    +0.000 A 
ATOM     16  C   UNL     1     113.165 125.347 137.332  0.00  0.00    +0.000 A 
ATOM     17  C   UNL     1     111.804 125.593 137.688  0.00  0.00    +0.000 A 
ATOM     18  C   UNL     1     112.408 125.065 137.499  0.00  0.00    +0.000 A 
BRANCH  16  19
ATOM     19  O   UNL     1     113.771 124.818 137.143  0.00  0.00    +0.000 OA
ATOM     20  C   UNL     1     114.545 124.979 137.376  0.00  0.00    +0.000 C 
ENDBRANCH  16  19
BRANCH  17  21
ATOM     21  O   UNL     1     111.047 125.311 137.855  0.00  0.00    +0.000 OA
ATOM     22  C   UNL     1     110.553 125.732 138.366  0.00  0.00    +0.000 C 
ENDBRANCH  17  21
BRANCH  18  23
ATOM     23  O   UNL     1     112.256 124.254 137.477  0.00  0.00    +0.000 OA
ATOM     24  C   UNL     1     112.007 123.901 136.774  0.00  0.00    +0.000 C 
ENDBRANCH  18  23
ENDBRANCH   6  13
BRANCH   7  25
ATOM     25  O   UNL     1     112.568 127.592 136.171  0.00  0.00    +0.000 OA
ATOM     26  C   UNL     1     112.167 128.029 135.598  0.00  0.00    +0.000 C 
ENDBRANCH   7  25
BRANCH   9  27
ATOM     27  O   UNL     1     113.254 130.407 136.929  0.00  0.00    +0.000 OA
ATOM     28  C   UNL     1     113.220 131.231 136.970  0.00  0.00    +0.000 C 
ENDBRANCH   9  27
BRANCH  11  29
ATOM     29  O   UNL     1     113.867 130.224 139.778  0.00  0.00    +0.000 OA
ATOM     30  C   UNL     1     114.577 130.640 139.825  0.00  0.00    +0.000 C 
ENDBRANCH  11  29
TORSDOF 7
ENDMDL
MODEL 9
REMARK VINA RESULT:      -6.6      1.810      4.696
REMARK  Name = 15382687
REMARK  7 active torsions:
REMARK  status: ('A' for Active; 'I' for Inactive)
REMARK    1  A    between atoms: O_2  and  C_14
REMARK    2  A    between atoms: O_3  and  C_16
REMARK    3  A    between atoms: O_4  and  C_18
REMARK    4  A    between atoms: O_6  and  C_22
REMARK    5  A    between atoms: O_7  and  C_23
REMARK    6  A    between atoms: O_9  and  C_24
REMARK    7  A    between atoms: C_12  and  C_13
REMARK                            x       y       z     vdW  Elec       q    Type
REMARK                         _______ _______ _______ _____ _____    ______ ____
ROOT
ATOM      1  O   UNL     1     111.605 126.910 136.802  0.00  0.00    +0.000 OA
ATOM      2  O   UNL     1     110.838 125.468 137.175  0.00  0.00    +0.000 OA
ATOM      3  O   UNL     1     114.035 126.959 136.330  0.00  0.00    +0.000 OA
ATOM      4  C   UNL     1     112.855 126.229 136.670  0.00  0.00    +0.000 A 
ATOM      5  C   UNL     1     112.045 126.212 136.827  0.00  0.00    +0.000 A 
ATOM      6  C   UNL     1     111.976 127.624 136.619  0.00  0.00    +0.000 A 
ATOM      7  C   UNL     1     112.786 127.641 136.462  0.00  0.00    +0.000 A 
ATOM      8  C   UNL     1     113.225 126.942 136.487  0.00  0.00    +0.000 A 
ATOM      9  C   UNL     1     113.323 125.508 136.694  0.00  0.00    +0.000 A 
ATOM     10  C   UNL     1     111.648 125.474 137.019  0.00  0.00    +0.000 A 
ATOM     11  C   UNL     1     112.100 124.745 137.047  0.00  0.00    +0.000 A 
ATOM     12  C   UNL     1     112.943 124.762 136.883  0.00  0.00    +0.000 A 
ENDROOT
BRANCH   6  13
ATOM     13  C   UNL     1     111.537 128.322 136.594  0.00  0.00    +0.000 A 
ATOM     14  C   UNL     1     111.170 128.554 135.892  0.00  0.00    +0.000 A 
ATOM     15  C   UNL     1     111.464 128.788 137.271  0.00  0.00    +0.000 A 
ATOM     16  C   UNL     1     111.024 129.485 137.246  0.00  0.00    +0.000 A 
ATOM     17  C   UNL     1     110.730 129.252 135.868  0.00  0.00    +0.000 A 
ATOM     18  C   UNL     1     110.657 129.717 136.544  0.00  0.00    +0.000 A 
BRANCH  16  19
ATOM     19  O   UNL     1     110.951 129.952 137.923  0.00  0.00    +0.000 OA
ATOM     20  C   UNL     1     110.994 129.603 138.670  0.00  0.00    +0.000 C 
ENDBRANCH  16  19
BRANCH  17  21
ATOM     21  O   UNL     1     110.364 129.483 135.166  0.00  0.00    +0.000 OA
ATOM     22  C   UNL     1     110.088 128.913 134.636  0.00  0.00    +0.000 C 
ENDBRANCH  17  21
BRANCH  18  23
ATOM     23  O   UNL     1     110.218 130.415 136.520  0.00  0.00    +0.000 OA
ATOM     24  C   UNL     1     110.590 131.130 136.345  0.00  0.00    +0.000 C 
ENDBRANCH  18  23
ENDBRANCH   6  13
BRANCH   7  25
ATOM     25  O   UNL     1     113.156 128.354 136.279  0.00  0.00    +0.000 OA
ATOM     26  C   UNL     1     113.838 128.358 135.815  0.00  0.00    +0.000 C 
ENDBRANCH   7  25
BRANCH   9  27
ATOM     27  O   UNL     1     114.133 125.534 136.535  0.00  0.00    +0.000 OA
ATOM     28  C   UNL     1     114.641 124.992 136.894  0.00  0.00    +0.000 C 
ENDBRANCH   9  27
BRANCH  11  29
ATOM     29  O   UNL     1     111.727 124.032 137.230  0.00  0.00    +0.000 OA
ATOM     30  C   UNL     1     111.961 123.335 136.855  0.00  0.00    +0.000 C 
ENDBRANCH  11  29
TORSDOF 7
ENDMDL
