MODEL 1
REMARK VINA RESULT:      -9.1      0.000      0.000
REMARK  Name = 44259486
REMARK  8 active torsions:
REMARK  status: ('A' for Active; 'I' for Inactive)
REMARK    1  A    between atoms: O_2  and  C_16
REMARK    2  A    between atoms: O_2  and  C_23
REMARK    3  A    between atoms: O_3  and  C_20
REMARK    4  A    between atoms: O_3  and  C_22
REMARK    5  A    between atoms: O_11  and  C_37
REMARK    6  A    between atoms: C_23  and  C_26
REMARK    7  A    between atoms: C_24  and  C_28
REMARK    8  A    between atoms: C_26  and  C_34
REMARK                            x       y       z     vdW  Elec       q    Type
REMARK                         _______ _______ _______ _____ _____    ______ ____
ROOT
ATOM      1  O   UNL     1     105.621 124.428 147.737  0.00  0.00    +0.000 OA
ATOM      2  O   UNL     1     107.030 125.655 146.114  0.00  0.00    +0.000 OA
ATOM      3  O   UNL     1     108.155 125.614 147.017  0.00  0.00    +0.000 OA
ATOM      4  O   UNL     1     107.847 124.307 149.610  0.00  0.00    +0.000 OA
ATOM      5  C   UNL     1     105.776 125.068 146.468  0.00  0.00    +0.000 A 
ATOM      6  C   UNL     1     105.307 124.659 147.010  0.00  0.00    +0.000 A 
ATOM      7  C   UNL     1     106.561 125.246 146.655  0.00  0.00    +0.000 A 
ATOM      8  C   UNL     1     106.875 125.014 147.382  0.00  0.00    +0.000 A 
ATOM      9  C   UNL     1     106.404 124.605 147.922  0.00  0.00    +0.000 A 
ATOM     10  C   UNL     1     107.692 125.205 147.564  0.00  0.00    +0.000 A 
ATOM     11  C   UNL     1     106.720 124.359 148.682  0.00  0.00    +0.000 A 
ATOM     12  C   UNL     1     108.025 124.966 148.319  0.00  0.00    +0.000 A 
ATOM     13  C   UNL     1     107.536 124.540 148.883  0.00  0.00    +0.000 A 
ENDROOT
BRANCH   6  16
ATOM     14  O   UNL     1     103.398 123.081 145.584  0.00  0.00    +0.000 OA
ATOM     15  O   UNL     1     102.171 123.949 146.264  0.00  0.00    +0.000 OA
ATOM     16  C   UNL     1     104.522 124.482 146.823  0.00  0.00    +0.000 A 
ATOM     17  C   UNL     1     103.909 124.916 147.163  0.00  0.00    +0.000 A 
ATOM     18  C   UNL     1     104.353 123.870 146.297  0.00  0.00    +0.000 A 
ATOM     19  C   UNL     1     103.126 124.739 146.977  0.00  0.00    +0.000 A 
ATOM     20  C   UNL     1     103.568 123.692 146.110  0.00  0.00    +0.000 A 
ATOM     21  C   UNL     1     102.955 124.127 146.450  0.00  0.00    +0.000 A 
BRANCH  19  22
ATOM     22  O   UNL     1     102.512 125.173 147.317  0.00  0.00    +0.000 OA
ATOM     23  C   UNL     1     102.547 125.381 148.115  0.00  0.00    +0.000 C 
ENDBRANCH  19  22
ENDBRANCH   6  16
BRANCH   5  24
ATOM     24  O   UNL     1     105.462 125.300 145.742  0.00  0.00    +0.000 OA
BRANCH  24  32
ATOM     25  O   UNL     1     105.337 126.674 146.115  0.00  0.00    +0.000 OA
ATOM     26  O   UNL     1     105.628 127.343 143.750  0.00  0.00    +0.000 OA
ATOM     27  O   UNL     1     105.656 125.746 144.165  0.00  0.00    +0.000 OA
ATOM     28  C   UNL     1     105.419 127.695 145.120  0.00  0.00    +0.000 C 
ATOM     29  C   UNL     1     105.531 127.120 144.538  0.00  0.00    +0.000 C 
ATOM     30  C   UNL     1     105.545 126.322 144.746  0.00  0.00    +0.000 C 
ATOM     31  C   UNL     1     105.323 127.472 145.908  0.00  0.00    +0.000 C 
ATOM     32  C   UNL     1     105.448 126.099 145.535  0.00  0.00    +0.000 C 
ATOM     33  C   UNL     1     105.212 128.047 146.488  0.00  0.00    +0.000 C 
BRANCH  28  34
ATOM     34  O   UNL     1     105.405 128.493 144.912  0.00  0.00    +0.000 OA
BRANCH  34  36
ATOM     35  O   UNL     1     106.753 128.774 145.292  0.00  0.00    +0.000 OA
ATOM     36  C   UNL     1     106.112 128.901 144.790  0.00  0.00    +0.000 C 
BRANCH  36  37
ATOM     37  C   UNL     1     106.177 129.436 144.164  0.00  0.00    +0.000 C 
BRANCH  37  40
ATOM     38  O   UNL     1     106.047 130.806 144.547  0.00  0.00    +0.000 OA
ATOM     39  O   UNL     1     107.322 130.292 144.159  0.00  0.00    +0.000 OA
ATOM     40  C   UNL     1     106.515 130.178 144.290  0.00  0.00    +0.000 C 
ENDBRANCH  37  40
ENDBRANCH  36  37
ENDBRANCH  34  36
ENDBRANCH  28  34
ENDBRANCH  24  32
ENDBRANCH   5  24
TORSDOF 8
ENDMDL
MODEL 2
REMARK VINA RESULT:      -8.9      9.972     11.769
REMARK  Name = 44259486
REMARK  8 active torsions:
REMARK  status: ('A' for Active; 'I' for Inactive)
REMARK    1  A    between atoms: O_2  and  C_16
REMARK    2  A    between atoms: O_2  and  C_23
REMARK    3  A    between atoms: O_3  and  C_20
REMARK    4  A    between atoms: O_3  and  C_22
REMARK    5  A    between atoms: O_11  and  C_37
REMARK    6  A    between atoms: C_23  and  C_26
REMARK    7  A    between atoms: C_24  and  C_28
REMARK    8  A    between atoms: C_26  and  C_34
REMARK                            x       y       z     vdW  Elec       q    Type
REMARK                         _______ _______ _______ _____ _____    ______ ____
ROOT
ATOM      1  O   UNL     1     112.995 127.579 136.537  0.00  0.00    +0.000 OA
ATOM      2  O   UNL     1     111.906 129.763 136.951  0.00  0.00    +0.000 OA
ATOM      3  O   UNL     1     112.900 130.441 136.154  0.00  0.00    +0.000 OA
ATOM      4  O   UNL     1     115.035 128.879 134.916  0.00  0.00    +0.000 OA
ATOM      5  C   UNL     1     111.952 128.347 137.141  0.00  0.00    +0.000 A 
ATOM      6  C   UNL     1     112.315 127.619 137.003  0.00  0.00    +0.000 A 
ATOM      7  C   UNL     1     112.270 129.035 136.813  0.00  0.00    +0.000 A 
ATOM      8  C   UNL     1     112.949 128.994 136.347  0.00  0.00    +0.000 A 
ATOM      9  C   UNL     1     113.311 128.266 136.210  0.00  0.00    +0.000 A 
ATOM     10  C   UNL     1     113.270 129.716 136.011  0.00  0.00    +0.000 A 
ATOM     11  C   UNL     1     114.020 128.210 135.726  0.00  0.00    +0.000 A 
ATOM     12  C   UNL     1     113.977 129.681 135.525  0.00  0.00    +0.000 A 
ATOM     13  C   UNL     1     114.355 128.923 135.382  0.00  0.00    +0.000 A 
ENDROOT
BRANCH   6  16
ATOM     14  O   UNL     1     111.916 125.909 139.257  0.00  0.00    +0.000 OA
ATOM     15  O   UNL     1     111.046 124.870 138.316  0.00  0.00    +0.000 OA
ATOM     16  C   UNL     1     111.997 126.932 137.331  0.00  0.00    +0.000 A 
ATOM     17  C   UNL     1     111.562 126.412 136.860  0.00  0.00    +0.000 A 
ATOM     18  C   UNL     1     112.116 126.764 138.130  0.00  0.00    +0.000 A 
ATOM     19  C   UNL     1     111.245 125.726 137.188  0.00  0.00    +0.000 A 
ATOM     20  C   UNL     1     111.798 126.076 138.458  0.00  0.00    +0.000 A 
ATOM     21  C   UNL     1     111.363 125.557 137.988  0.00  0.00    +0.000 A 
BRANCH  19  22
ATOM     22  O   UNL     1     110.810 125.207 136.718  0.00  0.00    +0.000 OA
ATOM     23  C   UNL     1     110.977 125.141 135.912  0.00  0.00    +0.000 C 
ENDBRANCH  19  22
ENDBRANCH   6  16
BRANCH   5  24
ATOM     24  O   UNL     1     111.272 128.388 137.607  0.00  0.00    +0.000 OA
BRANCH  24  32
ATOM     25  O   UNL     1     110.387 128.594 136.504  0.00  0.00    +0.000 OA
ATOM     26  O   UNL     1     108.886 129.921 137.957  0.00  0.00    +0.000 OA
ATOM     27  O   UNL     1     110.272 129.273 138.575  0.00  0.00    +0.000 OA
ATOM     28  C   UNL     1     109.194 129.360 136.678  0.00  0.00    +0.000 C 
ATOM     29  C   UNL     1     109.386 129.479 137.472  0.00  0.00    +0.000 C 
ATOM     30  C   UNL     1     110.079 129.154 137.781  0.00  0.00    +0.000 C 
ATOM     31  C   UNL     1     109.694 128.918 136.194  0.00  0.00    +0.000 C 
ATOM     32  C   UNL     1     110.579 128.712 137.297  0.00  0.00    +0.000 C 
ATOM     33  C   UNL     1     109.501 128.799 135.401  0.00  0.00    +0.000 C 
BRANCH  28  34
ATOM     34  O   UNL     1     108.501 129.684 136.370  0.00  0.00    +0.000 OA
BRANCH  34  36
ATOM     35  O   UNL     1     109.040 130.652 135.469  0.00  0.00    +0.000 OA
ATOM     36  C   UNL     1     108.505 130.450 136.061  0.00  0.00    +0.000 C 
BRANCH  36  37
ATOM     37  C   UNL     1     107.972 131.011 136.347  0.00  0.00    +0.000 C 
BRANCH  37  40
ATOM     38  O   UNL     1     106.740 131.168 135.639  0.00  0.00    +0.000 OA
ATOM     39  O   UNL     1     107.785 132.129 135.475  0.00  0.00    +0.000 OA
ATOM     40  C   UNL     1     107.499 131.436 135.821  0.00  0.00    +0.000 C 
ENDBRANCH  37  40
ENDBRANCH  36  37
ENDBRANCH  34  36
ENDBRANCH  28  34
ENDBRANCH  24  32
ENDBRANCH   5  24
TORSDOF 8
ENDMDL
MODEL 3
REMARK VINA RESULT:      -8.9      8.767     10.742
REMARK  Name = 44259486
REMARK  8 active torsions:
REMARK  status: ('A' for Active; 'I' for Inactive)
REMARK    1  A    between atoms: O_2  and  C_16
REMARK    2  A    between atoms: O_2  and  C_23
REMARK    3  A    between atoms: O_3  and  C_20
REMARK    4  A    between atoms: O_3  and  C_22
REMARK    5  A    between atoms: O_11  and  C_37
REMARK    6  A    between atoms: C_23  and  C_26
REMARK    7  A    between atoms: C_24  and  C_28
REMARK    8  A    between atoms: C_26  and  C_34
REMARK                            x       y       z     vdW  Elec       q    Type
REMARK                         _______ _______ _______ _____ _____    ______ ____
ROOT
ATOM      1  O   UNL     1     113.402 126.060 138.697  0.00  0.00    +0.000 OA
ATOM      2  O   UNL     1     111.590 125.413 137.140  0.00  0.00    +0.000 OA
ATOM      3  O   UNL     1     112.534 124.756 136.270  0.00  0.00    +0.000 OA
ATOM      4  O   UNL     1     115.365 124.752 136.989  0.00  0.00    +0.000 OA
ATOM      5  C   UNL     1     112.018 126.059 138.341  0.00  0.00    +0.000 A 
ATOM      6  C   UNL     1     112.622 126.274 138.860  0.00  0.00    +0.000 A 
ATOM      7  C   UNL     1     112.194 125.629 137.659  0.00  0.00    +0.000 A 
ATOM      8  C   UNL     1     112.974 125.414 137.496  0.00  0.00    +0.000 A 
ATOM      9  C   UNL     1     113.577 125.630 138.016  0.00  0.00    +0.000 A 
ATOM     10  C   UNL     1     113.145 124.967 136.783  0.00  0.00    +0.000 A 
ATOM     11  C   UNL     1     114.393 125.413 137.858  0.00  0.00    +0.000 A 
ATOM     12  C   UNL     1     113.955 124.741 136.608  0.00  0.00    +0.000 A 
ATOM     13  C   UNL     1     114.584 124.965 137.149  0.00  0.00    +0.000 A 
ENDROOT
BRANCH   6  16
ATOM     14  O   UNL     1     111.563 126.382 141.512  0.00  0.00    +0.000 OA
ATOM     15  O   UNL     1     111.916 127.993 141.587  0.00  0.00    +0.000 OA
ATOM     16  C   UNL     1     112.445 126.704 139.542  0.00  0.00    +0.000 A 
ATOM     17  C   UNL     1     112.621 127.509 139.580  0.00  0.00    +0.000 A 
ATOM     18  C   UNL     1     112.092 126.328 140.186  0.00  0.00    +0.000 A 
ATOM     19  C   UNL     1     112.445 127.938 140.261  0.00  0.00    +0.000 A 
ATOM     20  C   UNL     1     111.916 126.758 140.868  0.00  0.00    +0.000 A 
ATOM     21  C   UNL     1     112.092 127.563 140.906  0.00  0.00    +0.000 A 
BRANCH  19  22
ATOM     22  O   UNL     1     112.621 128.743 140.298  0.00  0.00    +0.000 OA
ATOM     23  C   UNL     1     113.244 129.051 139.851  0.00  0.00    +0.000 C 
ENDBRANCH  19  22
ENDBRANCH   6  16
BRANCH   5  24
ATOM     24  O   UNL     1     111.238 126.273 138.503  0.00  0.00    +0.000 OA
BRANCH  24  32
ATOM     25  O   UNL     1     111.206 127.312 137.523  0.00  0.00    +0.000 OA
ATOM     26  O   UNL     1     108.772 126.965 137.234  0.00  0.00    +0.000 OA
ATOM     27  O   UNL     1     109.615 126.042 138.311  0.00  0.00    +0.000 OA
ATOM     28  C   UNL     1     109.974 127.659 136.888  0.00  0.00    +0.000 C 
ATOM     29  C   UNL     1     109.583 127.081 137.331  0.00  0.00    +0.000 C 
ATOM     30  C   UNL     1     110.005 126.619 137.869  0.00  0.00    +0.000 C 
ATOM     31  C   UNL     1     110.785 127.774 136.985  0.00  0.00    +0.000 C 
ATOM     32  C   UNL     1     110.817 126.735 137.965  0.00  0.00    +0.000 C 
ATOM     33  C   UNL     1     111.174 128.351 136.543  0.00  0.00    +0.000 C 
BRANCH  28  34
ATOM     34  O   UNL     1     109.552 128.120 136.350  0.00  0.00    +0.000 OA
BRANCH  34  36
ATOM     35  O   UNL     1     109.038 128.991 137.359  0.00  0.00    +0.000 OA
ATOM     36  C   UNL     1     109.263 128.859 136.577  0.00  0.00    +0.000 C 
BRANCH  36  37
ATOM     37  C   UNL     1     109.201 129.465 136.020  0.00  0.00    +0.000 C 
BRANCH  37  40
ATOM     38  O   UNL     1     107.850 129.765 135.663  0.00  0.00    +0.000 OA
ATOM     39  O   UNL     1     108.609 130.700 136.433  0.00  0.00    +0.000 OA
ATOM     40  C   UNL     1     108.554 129.976 136.039  0.00  0.00    +0.000 C 
ENDBRANCH  37  40
ENDBRANCH  36  37
ENDBRANCH  34  36
ENDBRANCH  28  34
ENDBRANCH  24  32
ENDBRANCH   5  24
TORSDOF 8
ENDMDL
MODEL 4
REMARK VINA RESULT:      -8.8     10.127     12.518
REMARK  Name = 44259486
REMARK  8 active torsions:
REMARK  status: ('A' for Active; 'I' for Inactive)
REMARK    1  A    between atoms: O_2  and  C_16
REMARK    2  A    between atoms: O_2  and  C_23
REMARK    3  A    between atoms: O_3  and  C_20
REMARK    4  A    between atoms: O_3  and  C_22
REMARK    5  A    between atoms: O_11  and  C_37
REMARK    6  A    between atoms: C_23  and  C_26
REMARK    7  A    between atoms: C_24  and  C_28
REMARK    8  A    between atoms: C_26  and  C_34
REMARK                            x       y       z     vdW  Elec       q    Type
REMARK                         _______ _______ _______ _____ _____    ______ ____
ROOT
ATOM      1  O   UNL     1     111.680 130.229 136.319  0.00  0.00    +0.000 OA
ATOM      2  O   UNL     1     112.555 128.083 135.451  0.00  0.00    +0.000 OA
ATOM      3  O   UNL     1     113.914 128.522 135.655  0.00  0.00    +0.000 OA
ATOM      4  O   UNL     1     114.396 131.183 136.759  0.00  0.00    +0.000 OA
ATOM      5  C   UNL     1     111.449 128.926 135.778  0.00  0.00    +0.000 A 
ATOM      6  C   UNL     1     111.157 129.641 136.068  0.00  0.00    +0.000 A 
ATOM      7  C   UNL     1     112.264 128.798 135.740  0.00  0.00    +0.000 A 
ATOM      8  C   UNL     1     112.786 129.386 135.991  0.00  0.00    +0.000 A 
ATOM      9  C   UNL     1     112.493 130.101 136.281  0.00  0.00    +0.000 A 
ATOM     10  C   UNL     1     113.631 129.241 135.946  0.00  0.00    +0.000 A 
ATOM     11  C   UNL     1     113.026 130.720 136.545  0.00  0.00    +0.000 A 
ATOM     12  C   UNL     1     114.180 129.848 136.206  0.00  0.00    +0.000 A 
ATOM     13  C   UNL     1     113.876 130.593 136.508  0.00  0.00    +0.000 A 
ENDROOT
BRANCH   6  16
ATOM     14  O   UNL     1     108.685 130.252 134.772  0.00  0.00    +0.000 OA
ATOM     15  O   UNL     1     107.901 130.152 136.220  0.00  0.00    +0.000 OA
ATOM     16  C   UNL     1     110.343 129.769 136.106  0.00  0.00    +0.000 A 
ATOM     17  C   UNL     1     109.951 129.719 136.831  0.00  0.00    +0.000 A 
ATOM     18  C   UNL     1     109.921 129.947 135.420  0.00  0.00    +0.000 A 
ATOM     19  C   UNL     1     109.137 129.846 136.868  0.00  0.00    +0.000 A 
ATOM     20  C   UNL     1     109.106 130.074 135.458  0.00  0.00    +0.000 A 
ATOM     21  C   UNL     1     108.714 130.024 136.183  0.00  0.00    +0.000 A 
BRANCH  19  22
ATOM     22  O   UNL     1     108.745 129.796 137.593  0.00  0.00    +0.000 OA
ATOM     23  C   UNL     1     109.143 129.985 138.291  0.00  0.00    +0.000 C 
ENDBRANCH  19  22
ENDBRANCH   6  16
BRANCH   5  24
ATOM     24  O   UNL     1     110.927 128.339 135.527  0.00  0.00    +0.000 OA
BRANCH  24  32
ATOM     25  O   UNL     1     111.119 127.513 136.678  0.00  0.00    +0.000 OA
ATOM     26  O   UNL     1     110.684 125.499 135.307  0.00  0.00    +0.000 OA
ATOM     27  O   UNL     1     110.637 126.996 134.613  0.00  0.00    +0.000 OA
ATOM     28  C   UNL     1     110.997 126.094 136.569  0.00  0.00    +0.000 C 
ATOM     29  C   UNL     1     110.829 126.171 135.764  0.00  0.00    +0.000 C 
ATOM     30  C   UNL     1     110.806 126.919 135.418  0.00  0.00    +0.000 C 
ATOM     31  C   UNL     1     111.142 126.765 137.026  0.00  0.00    +0.000 C 
ATOM     32  C   UNL     1     110.950 127.590 135.875  0.00  0.00    +0.000 C 
ATOM     33  C   UNL     1     111.311 126.688 137.829  0.00  0.00    +0.000 C 
BRANCH  28  34
ATOM     34  O   UNL     1     111.021 125.346 136.915  0.00  0.00    +0.000 OA
BRANCH  34  36
ATOM     35  O   UNL     1     112.441 125.232 137.022  0.00  0.00    +0.000 OA
ATOM     36  C   UNL     1     111.707 124.890 136.868  0.00  0.00    +0.000 C 
BRANCH  36  37
ATOM     37  C   UNL     1     111.658 124.091 136.665  0.00  0.00    +0.000 C 
BRANCH  37  40
ATOM     38  O   UNL     1     112.922 123.466 136.899  0.00  0.00    +0.000 OA
ATOM     39  O   UNL     1     111.771 123.049 137.638  0.00  0.00    +0.000 OA
ATOM     40  C   UNL     1     112.117 123.536 137.067  0.00  0.00    +0.000 C 
ENDBRANCH  37  40
ENDBRANCH  36  37
ENDBRANCH  34  36
ENDBRANCH  28  34
ENDBRANCH  24  32
ENDBRANCH   5  24
TORSDOF 8
ENDMDL
MODEL 5
REMARK VINA RESULT:      -8.8      8.981     11.401
REMARK  Name = 44259486
REMARK  8 active torsions:
REMARK  status: ('A' for Active; 'I' for Inactive)
REMARK    1  A    between atoms: O_2  and  C_16
REMARK    2  A    between atoms: O_2  and  C_23
REMARK    3  A    between atoms: O_3  and  C_20
REMARK    4  A    between atoms: O_3  and  C_22
REMARK    5  A    between atoms: O_11  and  C_37
REMARK    6  A    between atoms: C_23  and  C_26
REMARK    7  A    between atoms: C_24  and  C_28
REMARK    8  A    between atoms: C_26  and  C_34
REMARK                            x       y       z     vdW  Elec       q    Type
REMARK                         _______ _______ _______ _____ _____    ______ ____
ROOT
ATOM      1  O   UNL     1     113.286 127.259 136.480  0.00  0.00    +0.000 OA
ATOM      2  O   UNL     1     113.077 128.308 138.712  0.00  0.00    +0.000 OA
ATOM      3  O   UNL     1     113.145 129.626 138.130  0.00  0.00    +0.000 OA
ATOM      4  O   UNL     1     113.429 129.889 135.235  0.00  0.00    +0.000 OA
ATOM      5  C   UNL     1     113.147 127.136 137.897  0.00  0.00    +0.000 A 
ATOM      6  C   UNL     1     113.216 126.787 137.152  0.00  0.00    +0.000 A 
ATOM      7  C   UNL     1     113.147 127.959 137.968  0.00  0.00    +0.000 A 
ATOM      8  C   UNL     1     113.216 128.431 137.295  0.00  0.00    +0.000 A 
ATOM      9  C   UNL     1     113.286 128.081 136.551  0.00  0.00    +0.000 A 
ATOM     10  C   UNL     1     113.215 129.285 137.382  0.00  0.00    +0.000 A 
ATOM     11  C   UNL     1     113.359 128.562 135.843  0.00  0.00    +0.000 A 
ATOM     12  C   UNL     1     113.287 129.783 136.685  0.00  0.00    +0.000 A 
ATOM     13  C   UNL     1     113.360 129.419 135.910  0.00  0.00    +0.000 A 
ENDROOT
BRANCH   6  16
ATOM     14  O   UNL     1     114.566 124.281 137.408  0.00  0.00    +0.000 OA
ATOM     15  O   UNL     1     113.217 123.499 136.869  0.00  0.00    +0.000 OA
ATOM     16  C   UNL     1     113.216 125.964 137.081  0.00  0.00    +0.000 A 
ATOM     17  C   UNL     1     112.542 125.573 136.812  0.00  0.00    +0.000 A 
ATOM     18  C   UNL     1     113.891 125.534 137.280  0.00  0.00    +0.000 A 
ATOM     19  C   UNL     1     112.542 124.752 136.741  0.00  0.00    +0.000 A 
ATOM     20  C   UNL     1     113.891 124.711 137.209  0.00  0.00    +0.000 A 
ATOM     21  C   UNL     1     113.217 124.320 136.940  0.00  0.00    +0.000 A 
BRANCH  19  22
ATOM     22  O   UNL     1     111.868 124.361 136.472  0.00  0.00    +0.000 OA
ATOM     23  C   UNL     1     111.316 124.763 136.007  0.00  0.00    +0.000 C 
ENDBRANCH  19  22
ENDBRANCH   6  16
BRANCH   5  24
ATOM     24  O   UNL     1     113.077 126.664 138.569  0.00  0.00    +0.000 OA
BRANCH  24  32
ATOM     25  O   UNL     1     111.678 126.912 138.722  0.00  0.00    +0.000 OA
ATOM     26  O   UNL     1     111.883 126.566 141.164  0.00  0.00    +0.000 OA
ATOM     27  O   UNL     1     113.214 126.433 140.198  0.00  0.00    +0.000 OA
ATOM     28  C   UNL     1     111.081 126.863 140.019  0.00  0.00    +0.000 C 
ATOM     29  C   UNL     1     111.815 126.681 140.350  0.00  0.00    +0.000 C 
ATOM     30  C   UNL     1     112.480 126.615 139.866  0.00  0.00    +0.000 C 
ATOM     31  C   UNL     1     111.012 126.978 139.205  0.00  0.00    +0.000 C 
ATOM     32  C   UNL     1     112.411 126.730 139.052  0.00  0.00    +0.000 C 
ATOM     33  C   UNL     1     110.279 127.160 138.875  0.00  0.00    +0.000 C 
BRANCH  28  34
ATOM     34  O   UNL     1     110.416 126.929 140.503  0.00  0.00    +0.000 OA
BRANCH  34  36
ATOM     35  O   UNL     1     110.248 125.523 140.687  0.00  0.00    +0.000 OA
ATOM     36  C   UNL     1     109.924 126.278 140.620  0.00  0.00    +0.000 C 
BRANCH  36  37
ATOM     37  C   UNL     1     109.107 126.382 140.670  0.00  0.00    +0.000 C 
BRANCH  37  40
ATOM     38  O   UNL     1     108.377 125.296 141.244  0.00  0.00    +0.000 OA
ATOM     39  O   UNL     1     108.579 126.496 141.993  0.00  0.00    +0.000 OA
ATOM     40  C   UNL     1     108.687 126.058 141.302  0.00  0.00    +0.000 C 
ENDBRANCH  37  40
ENDBRANCH  36  37
ENDBRANCH  34  36
ENDBRANCH  28  34
ENDBRANCH  24  32
ENDBRANCH   5  24
TORSDOF 8
ENDMDL
MODEL 6
REMARK VINA RESULT:      -8.8      9.082     11.541
REMARK  Name = 44259486
REMARK  8 active torsions:
REMARK  status: ('A' for Active; 'I' for Inactive)
REMARK    1  A    between atoms: O_2  and  C_16
REMARK    2  A    between atoms: O_2  and  C_23
REMARK    3  A    between atoms: O_3  and  C_20
REMARK    4  A    between atoms: O_3  and  C_22
REMARK    5  A    between atoms: O_11  and  C_37
REMARK    6  A    between atoms: C_23  and  C_26
REMARK    7  A    between atoms: C_24  and  C_28
REMARK    8  A    between atoms: C_26  and  C_34
REMARK                            x       y       z     vdW  Elec       q    Type
REMARK                         _______ _______ _______ _____ _____    ______ ____
ROOT
ATOM      1  O   UNL     1     113.416 126.829 136.487  0.00  0.00    +0.000 OA
ATOM      2  O   UNL     1     111.603 125.263 137.106  0.00  0.00    +0.000 OA
ATOM      3  O   UNL     1     112.547 124.182 137.251  0.00  0.00    +0.000 OA
ATOM      4  O   UNL     1     115.380 124.696 136.762  0.00  0.00    +0.000 OA
ATOM      5  C   UNL     1     112.031 126.573 136.728  0.00  0.00    +0.000 A 
ATOM      6  C   UNL     1     112.636 127.095 136.522  0.00  0.00    +0.000 A 
ATOM      7  C   UNL     1     112.207 125.785 136.900  0.00  0.00    +0.000 A 
ATOM      8  C   UNL     1     112.988 125.519 136.865  0.00  0.00    +0.000 A 
ATOM      9  C   UNL     1     113.592 126.042 136.659  0.00  0.00    +0.000 A 
ATOM     10  C   UNL     1     113.158 124.698 137.046  0.00  0.00    +0.000 A 
ATOM     11  C   UNL     1     114.408 125.778 136.619  0.00  0.00    +0.000 A 
ATOM     12  C   UNL     1     113.969 124.415 137.012  0.00  0.00    +0.000 A 
ATOM     13  C   UNL     1     114.599 124.959 136.797  0.00  0.00    +0.000 A 
ENDROOT
BRANCH   6  16
ATOM     14  O   UNL     1     111.605 129.065 134.727  0.00  0.00    +0.000 OA
ATOM     15  O   UNL     1     111.931 130.244 135.834  0.00  0.00    +0.000 OA
ATOM     16  C   UNL     1     112.460 127.883 136.350  0.00  0.00    +0.000 A 
ATOM     17  C   UNL     1     112.623 128.472 136.904  0.00  0.00    +0.000 A 
ATOM     18  C   UNL     1     112.120 128.080 135.624  0.00  0.00    +0.000 A 
ATOM     19  C   UNL     1     112.446 129.259 136.732  0.00  0.00    +0.000 A 
ATOM     20  C   UNL     1     111.944 128.868 135.453  0.00  0.00    +0.000 A 
ATOM     21  C   UNL     1     112.107 129.458 136.006  0.00  0.00    +0.000 A 
BRANCH  19  22
ATOM     22  O   UNL     1     112.609 129.848 137.285  0.00  0.00    +0.000 OA
ATOM     23  C   UNL     1     113.243 129.761 137.808  0.00  0.00    +0.000 C 
ENDBRANCH  19  22
ENDBRANCH   6  16
BRANCH   5  24
ATOM     24  O   UNL     1     111.251 126.838 136.762  0.00  0.00    +0.000 OA
BRANCH  24  32
ATOM     25  O   UNL     1     111.208 126.898 138.190  0.00  0.00    +0.000 OA
ATOM     26  O   UNL     1     108.790 126.371 138.139  0.00  0.00    +0.000 OA
ATOM     27  O   UNL     1     109.639 126.487 136.729  0.00  0.00    +0.000 OA
ATOM     28  C   UNL     1     109.978 126.664 138.878  0.00  0.00    +0.000 C 
ATOM     29  C   UNL     1     109.596 126.546 138.156  0.00  0.00    +0.000 C 
ATOM     30  C   UNL     1     110.021 126.604 137.451  0.00  0.00    +0.000 C 
ATOM     31  C   UNL     1     110.784 126.840 138.895  0.00  0.00    +0.000 C 
ATOM     32  C   UNL     1     110.827 126.780 137.468  0.00  0.00    +0.000 C 
ATOM     33  C   UNL     1     111.165 126.957 139.617  0.00  0.00    +0.000 C 
BRANCH  28  34
ATOM     34  O   UNL     1     109.553 126.606 139.583  0.00  0.00    +0.000 OA
BRANCH  34  36
ATOM     35  O   UNL     1     110.085 125.347 139.998  0.00  0.00    +0.000 OA
ATOM     36  C   UNL     1     109.451 125.871 139.944  0.00  0.00    +0.000 C 
BRANCH  36  37
ATOM     37  C   UNL     1     108.715 125.662 140.252  0.00  0.00    +0.000 C 
BRANCH  37  40
ATOM     38  O   UNL     1     108.825 124.548 141.141  0.00  0.00    +0.000 OA
ATOM     39  O   UNL     1     108.441 125.829 141.645  0.00  0.00    +0.000 OA
ATOM     40  C   UNL     1     108.661 125.346 141.012  0.00  0.00    +0.000 C 
ENDBRANCH  37  40
ENDBRANCH  36  37
ENDBRANCH  34  36
ENDBRANCH  28  34
ENDBRANCH  24  32
ENDBRANCH   5  24
TORSDOF 8
ENDMDL
MODEL 7
REMARK VINA RESULT:      -8.8     10.064     11.600
REMARK  Name = 44259486
REMARK  8 active torsions:
REMARK  status: ('A' for Active; 'I' for Inactive)
REMARK    1  A    between atoms: O_2  and  C_16
REMARK    2  A    between atoms: O_2  and  C_23
REMARK    3  A    between atoms: O_3  and  C_20
REMARK    4  A    between atoms: O_3  and  C_22
REMARK    5  A    between atoms: O_11  and  C_37
REMARK    6  A    between atoms: C_23  and  C_26
REMARK    7  A    between atoms: C_24  and  C_28
REMARK    8  A    between atoms: C_26  and  C_34
REMARK                            x       y       z     vdW  Elec       q    Type
REMARK                         _______ _______ _______ _____ _____    ______ ____
ROOT
ATOM      1  O   UNL     1     111.619 127.327 136.939  0.00  0.00    +0.000 OA
ATOM      2  O   UNL     1     109.223 127.942 137.015  0.00  0.00    +0.000 OA
ATOM      3  O   UNL     1     108.879 126.819 136.176  0.00  0.00    +0.000 OA
ATOM      4  O   UNL     1     110.999 125.041 135.244  0.00  0.00    +0.000 OA
ATOM      5  C   UNL     1     110.578 128.194 137.393  0.00  0.00    +0.000 A 
ATOM      6  C   UNL     1     111.376 127.989 137.367  0.00  0.00    +0.000 A 
ATOM      7  C   UNL     1     110.022 127.737 136.989  0.00  0.00    +0.000 A 
ATOM      8  C   UNL     1     110.264 127.075 136.561  0.00  0.00    +0.000 A 
ATOM      9  C   UNL     1     111.063 126.870 136.536  0.00  0.00    +0.000 A 
ATOM     10  C   UNL     1     109.676 126.607 136.146  0.00  0.00    +0.000 A 
ATOM     11  C   UNL     1     111.328 126.183 136.094  0.00  0.00    +0.000 A 
ATOM     12  C   UNL     1     109.922 125.916 135.698  0.00  0.00    +0.000 A 
ATOM     13  C   UNL     1     110.754 125.702 135.672  0.00  0.00    +0.000 A 
ENDROOT
BRANCH   6  16
ATOM     14  O   UNL     1     112.618 128.788 139.814  0.00  0.00    +0.000 OA
ATOM     15  O   UNL     1     113.600 129.817 138.980  0.00  0.00    +0.000 OA
ATOM     16  C   UNL     1     111.933 128.446 137.770  0.00  0.00    +0.000 A 
ATOM     17  C   UNL     1     112.424 128.961 137.353  0.00  0.00    +0.000 A 
ATOM     18  C   UNL     1     111.997 128.388 138.591  0.00  0.00    +0.000 A 
ATOM     19  C   UNL     1     112.980 129.418 137.756  0.00  0.00    +0.000 A 
ATOM     20  C   UNL     1     112.554 128.846 138.994  0.00  0.00    +0.000 A 
ATOM     21  C   UNL     1     113.045 129.361 138.577  0.00  0.00    +0.000 A 
BRANCH  19  22
ATOM     22  O   UNL     1     113.471 129.933 137.339  0.00  0.00    +0.000 OA
ATOM     23  C   UNL     1     113.667 129.771 136.553  0.00  0.00    +0.000 C 
ENDBRANCH  19  22
ENDBRANCH   6  16
BRANCH   5  24
ATOM     24  O   UNL     1     110.335 128.856 137.821  0.00  0.00    +0.000 OA
BRANCH  24  32
ATOM     25  O   UNL     1     110.118 129.660 136.659  0.00  0.00    +0.000 OA
ATOM     26  O   UNL     1     108.364 130.925 137.863  0.00  0.00    +0.000 OA
ATOM     27  O   UNL     1     109.166 129.699 138.623  0.00  0.00    +0.000 OA
ATOM     28  C   UNL     1     109.132 130.694 136.680  0.00  0.00    +0.000 C 
ATOM     29  C   UNL     1     108.948 130.503 137.462  0.00  0.00    +0.000 C 
ATOM     30  C   UNL     1     109.350 129.891 137.841  0.00  0.00    +0.000 C 
ATOM     31  C   UNL     1     109.717 130.273 136.279  0.00  0.00    +0.000 C 
ATOM     32  C   UNL     1     109.935 129.469 137.440  0.00  0.00    +0.000 C 
ATOM     33  C   UNL     1     109.901 130.464 135.498  0.00  0.00    +0.000 C 
BRANCH  28  34
ATOM     34  O   UNL     1     108.731 131.307 136.301  0.00  0.00    +0.000 OA
BRANCH  34  36
ATOM     35  O   UNL     1     107.815 130.443 135.627  0.00  0.00    +0.000 OA
ATOM     36  C   UNL     1     107.987 131.172 135.972  0.00  0.00    +0.000 C 
BRANCH  36  37
ATOM     37  C   UNL     1     107.415 131.766 135.988  0.00  0.00    +0.000 C 
BRANCH  37  40
ATOM     38  O   UNL     1     106.102 131.431 135.534  0.00  0.00    +0.000 OA
ATOM     39  O   UNL     1     106.978 132.182 134.692  0.00  0.00    +0.000 OA
ATOM     40  C   UNL     1     106.831 131.793 135.405  0.00  0.00    +0.000 C 
ENDBRANCH  37  40
ENDBRANCH  36  37
ENDBRANCH  34  36
ENDBRANCH  28  34
ENDBRANCH  24  32
ENDBRANCH   5  24
TORSDOF 8
ENDMDL
MODEL 8
REMARK VINA RESULT:      -8.7      8.683     10.874
REMARK  Name = 44259486
REMARK  8 active torsions:
REMARK  status: ('A' for Active; 'I' for Inactive)
REMARK    1  A    between atoms: O_2  and  C_16
REMARK    2  A    between atoms: O_2  and  C_23
REMARK    3  A    between atoms: O_3  and  C_20
REMARK    4  A    between atoms: O_3  and  C_22
REMARK    5  A    between atoms: O_11  and  C_37
REMARK    6  A    between atoms: C_23  and  C_26
REMARK    7  A    between atoms: C_24  and  C_28
REMARK    8  A    between atoms: C_26  and  C_34
REMARK                            x       y       z     vdW  Elec       q    Type
REMARK                         _______ _______ _______ _____ _____    ______ ____
ROOT
ATOM      1  O   UNL     1     113.458 126.201 138.891  0.00  0.00    +0.000 OA
ATOM      2  O   UNL     1     111.944 126.892 137.059  0.00  0.00    +0.000 OA
ATOM      3  O   UNL     1     112.731 126.161 136.095  0.00  0.00    +0.000 OA
ATOM      4  O   UNL     1     115.093 124.704 137.002  0.00  0.00    +0.000 OA
ATOM      5  C   UNL     1     112.302 126.912 138.442  0.00  0.00    +0.000 A 
ATOM      6  C   UNL     1     112.807 126.682 139.052  0.00  0.00    +0.000 A 
ATOM      7  C   UNL     1     112.449 126.661 137.669  0.00  0.00    +0.000 A 
ATOM      8  C   UNL     1     113.099 126.180 137.507  0.00  0.00    +0.000 A 
ATOM      9  C   UNL     1     113.603 125.950 138.119  0.00  0.00    +0.000 A 
ATOM     10  C   UNL     1     113.241 125.925 136.700  0.00  0.00    +0.000 A 
ATOM     11  C   UNL     1     114.284 125.449 137.963  0.00  0.00    +0.000 A 
ATOM     12  C   UNL     1     113.916 125.425 136.525  0.00  0.00    +0.000 A 
ATOM     13  C   UNL     1     114.442 125.185 137.161  0.00  0.00    +0.000 A 
ENDROOT
BRANCH   6  16
ATOM     14  O   UNL     1     111.351 126.439 141.499  0.00  0.00    +0.000 OA
ATOM     15  O   UNL     1     112.222 127.685 142.141  0.00  0.00    +0.000 OA
ATOM     16  C   UNL     1     112.661 126.933 139.825  0.00  0.00    +0.000 A 
ATOM     17  C   UNL     1     113.096 127.556 140.146  0.00  0.00    +0.000 A 
ATOM     18  C   UNL     1     112.079 126.560 140.276  0.00  0.00    +0.000 A 
ATOM     19  C   UNL     1     112.950 127.806 140.917  0.00  0.00    +0.000 A 
ATOM     20  C   UNL     1     111.933 126.811 141.049  0.00  0.00    +0.000 A 
ATOM     21  C   UNL     1     112.368 127.434 141.369  0.00  0.00    +0.000 A 
BRANCH  19  22
ATOM     22  O   UNL     1     113.385 128.429 141.238  0.00  0.00    +0.000 OA
ATOM     23  C   UNL     1     114.109 128.642 140.904  0.00  0.00    +0.000 C 
ENDBRANCH  19  22
ENDBRANCH   6  16
BRANCH   5  24
ATOM     24  O   UNL     1     111.652 127.393 138.603  0.00  0.00    +0.000 OA
BRANCH  24  32
ATOM     25  O   UNL     1     112.261 128.565 138.058  0.00  0.00    +0.000 OA
ATOM     26  O   UNL     1     110.025 129.475 137.513  0.00  0.00    +0.000 OA
ATOM     27  O   UNL     1     110.161 128.000 138.240  0.00  0.00    +0.000 OA
ATOM     28  C   UNL     1     111.449 129.606 137.513  0.00  0.00    +0.000 C 
ATOM     29  C   UNL     1     110.771 129.172 137.695  0.00  0.00    +0.000 C 
ATOM     30  C   UNL     1     110.839 128.434 138.058  0.00  0.00    +0.000 C 
ATOM     31  C   UNL     1     112.194 129.303 137.694  0.00  0.00    +0.000 C 
ATOM     32  C   UNL     1     111.585 128.131 138.240  0.00  0.00    +0.000 C 
ATOM     33  C   UNL     1     112.871 129.736 137.512  0.00  0.00    +0.000 C 
BRANCH  28  34
ATOM     34  O   UNL     1     111.380 130.343 137.149  0.00  0.00    +0.000 OA
BRANCH  34  36
ATOM     35  O   UNL     1     111.656 131.142 138.301  0.00  0.00    +0.000 OA
ATOM     36  C   UNL     1     111.234 131.016 137.604  0.00  0.00    +0.000 C 
BRANCH  36  37
ATOM     37  C   UNL     1     110.666 131.562 137.360  0.00  0.00    +0.000 C 
BRANCH  37  40
ATOM     38  O   UNL     1     110.524 132.750 138.142  0.00  0.00    +0.000 OA
ATOM     39  O   UNL     1     111.209 132.798 136.889  0.00  0.00    +0.000 OA
ATOM     40  C   UNL     1     110.800 132.370 137.464  0.00  0.00    +0.000 C 
ENDBRANCH  37  40
ENDBRANCH  36  37
ENDBRANCH  34  36
ENDBRANCH  28  34
ENDBRANCH  24  32
ENDBRANCH   5  24
TORSDOF 8
ENDMDL
MODEL 9
REMARK VINA RESULT:      -8.7      9.060     11.662
REMARK  Name = 44259486
REMARK  8 active torsions:
REMARK  status: ('A' for Active; 'I' for Inactive)
REMARK    1  A    between atoms: O_2  and  C_16
REMARK    2  A    between atoms: O_2  and  C_23
REMARK    3  A    between atoms: O_3  and  C_20
REMARK    4  A    between atoms: O_3  and  C_22
REMARK    5  A    between atoms: O_11  and  C_37
REMARK    6  A    between atoms: C_23  and  C_26
REMARK    7  A    between atoms: C_24  and  C_28
REMARK    8  A    between atoms: C_26  and  C_34
REMARK                            x       y       z     vdW  Elec       q    Type
REMARK                         _______ _______ _______ _____ _____    ______ ____
ROOT
ATOM      1  O   UNL     1     113.101 127.684 135.796  0.00  0.00    +0.000 OA
ATOM      2  O   UNL     1     112.750 128.942 137.898  0.00  0.00    +0.000 OA
ATOM      3  O   UNL     1     113.568 130.029 137.418  0.00  0.00    +0.000 OA
ATOM      4  O   UNL     1     114.763 129.840 134.760  0.00  0.00    +0.000 OA
ATOM      5  C   UNL     1     112.519 127.781 137.097  0.00  0.00    +0.000 A 
ATOM      6  C   UNL     1     112.636 127.362 136.397  0.00  0.00    +0.000 A 
ATOM      7  C   UNL     1     112.868 128.523 137.198  0.00  0.00    +0.000 A 
ATOM      8  C   UNL     1     113.333 128.844 136.597  0.00  0.00    +0.000 A 
ATOM      9  C   UNL     1     113.449 128.424 135.896  0.00  0.00    +0.000 A 
ATOM     10  C   UNL     1     113.690 129.616 136.713  0.00  0.00    +0.000 A 
ATOM     11  C   UNL     1     113.932 128.749 135.264  0.00  0.00    +0.000 A 
ATOM     12  C   UNL     1     114.176 129.957 136.092  0.00  0.00    +0.000 A 
ATOM     13  C   UNL     1     114.298 129.520 135.362  0.00  0.00    +0.000 A 
ENDROOT
BRANCH   6  16
ATOM     14  O   UNL     1     112.596 124.554 136.927  0.00  0.00    +0.000 OA
ATOM     15  O   UNL     1     111.242 124.398 135.996  0.00  0.00    +0.000 OA
ATOM     16  C   UNL     1     112.287 126.621 136.296  0.00  0.00    +0.000 A 
ATOM     17  C   UNL     1     111.610 126.543 135.831  0.00  0.00    +0.000 A 
ATOM     18  C   UNL     1     112.616 125.958 136.662  0.00  0.00    +0.000 A 
ATOM     19  C   UNL     1     111.262 125.802 135.731  0.00  0.00    +0.000 A 
ATOM     20  C   UNL     1     112.267 125.217 136.561  0.00  0.00    +0.000 A 
ATOM     21  C   UNL     1     111.590 125.138 136.096  0.00  0.00    +0.000 A 
BRANCH  19  22
ATOM     22  O   UNL     1     110.585 125.724 135.266  0.00  0.00    +0.000 OA
ATOM     23  C   UNL     1     110.474 126.216 134.612  0.00  0.00    +0.000 C 
ENDBRANCH  19  22
ENDBRANCH   6  16
BRANCH   5  24
ATOM     24  O   UNL     1     112.053 127.459 137.698  0.00  0.00    +0.000 OA
BRANCH  24  32
ATOM     25  O   UNL     1     110.933 128.306 137.433  0.00  0.00    +0.000 OA
ATOM     26  O   UNL     1     110.285 128.194 139.819  0.00  0.00    +0.000 OA
ATOM     27  O   UNL     1     111.621 127.385 139.289  0.00  0.00    +0.000 OA
ATOM     28  C   UNL     1     110.048 128.673 138.493  0.00  0.00    +0.000 C 
ATOM     29  C   UNL     1     110.501 128.231 139.024  0.00  0.00    +0.000 C 
ATOM     30  C   UNL     1     111.169 127.827 138.758  0.00  0.00    +0.000 C 
ATOM     31  C   UNL     1     110.264 128.710 137.698  0.00  0.00    +0.000 C 
ATOM     32  C   UNL     1     111.385 127.864 137.963  0.00  0.00    +0.000 C 
ATOM     33  C   UNL     1     109.812 129.152 137.168  0.00  0.00    +0.000 C 
BRANCH  28  34
ATOM     34  O   UNL     1     109.380 129.077 138.759  0.00  0.00    +0.000 OA
BRANCH  34  36
ATOM     35  O   UNL     1     110.032 130.346 138.834  0.00  0.00    +0.000 OA
ATOM     36  C   UNL     1     109.459 129.821 139.108  0.00  0.00    +0.000 C 
BRANCH  36  37
ATOM     37  C   UNL     1     108.963 130.037 139.732  0.00  0.00    +0.000 C 
BRANCH  37  40
ATOM     38  O   UNL     1     109.218 131.296 140.360  0.00  0.00    +0.000 OA
ATOM     39  O   UNL     1     108.125 131.161 139.449  0.00  0.00    +0.000 OA
ATOM     40  C   UNL     1     108.769 130.831 139.847  0.00  0.00    +0.000 C 
ENDBRANCH  37  40
ENDBRANCH  36  37
ENDBRANCH  34  36
ENDBRANCH  28  34
ENDBRANCH  24  32
ENDBRANCH   5  24
TORSDOF 8
ENDMDL
MODEL 10
REMARK VINA RESULT:      -8.6      9.644     11.690
REMARK  Name = 44259486
REMARK  8 active torsions:
REMARK  status: ('A' for Active; 'I' for Inactive)
REMARK    1  A    between atoms: O_2  and  C_16
REMARK    2  A    between atoms: O_2  and  C_23
REMARK    3  A    between atoms: O_3  and  C_20
REMARK    4  A    between atoms: O_3  and  C_22
REMARK    5  A    between atoms: O_11  and  C_37
REMARK    6  A    between atoms: C_23  and  C_26
REMARK    7  A    between atoms: C_24  and  C_28
REMARK    8  A    between atoms: C_26  and  C_34
REMARK                            x       y       z     vdW  Elec       q    Type
REMARK                         _______ _______ _______ _____ _____    ______ ____
ROOT
ATOM      1  O   UNL     1     113.254 126.396 138.960  0.00  0.00    +0.000 OA
ATOM      2  O   UNL     1     112.984 128.681 138.050  0.00  0.00    +0.000 OA
ATOM      3  O   UNL     1     112.822 129.222 139.378  0.00  0.00    +0.000 OA
ATOM      4  O   UNL     1     112.937 127.416 141.670  0.00  0.00    +0.000 OA
ATOM      5  C   UNL     1     113.197 127.284 137.842  0.00  0.00    +0.000 A 
ATOM      6  C   UNL     1     113.288 126.522 138.146  0.00  0.00    +0.000 A 
ATOM      7  C   UNL     1     113.074 127.920 138.354  0.00  0.00    +0.000 A 
ATOM      8  C   UNL     1     113.040 127.794 139.168  0.00  0.00    +0.000 A 
ATOM      9  C   UNL     1     113.131 127.031 139.471  0.00  0.00    +0.000 A 
ATOM     10  C   UNL     1     112.911 128.463 139.690  0.00  0.00    +0.000 A 
ATOM     11  C   UNL     1     113.098 126.887 140.317  0.00  0.00    +0.000 A 
ATOM     12  C   UNL     1     112.876 128.339 140.539  0.00  0.00    +0.000 A 
ATOM     13  C   UNL     1     112.969 127.545 140.856  0.00  0.00    +0.000 A 
ENDROOT
BRANCH   6  16
ATOM     14  O   UNL     1     115.010 125.037 136.415  0.00  0.00    +0.000 OA
ATOM     15  O   UNL     1     113.783 123.980 136.100  0.00  0.00    +0.000 OA
ATOM     16  C   UNL     1     113.411 125.886 137.634  0.00  0.00    +0.000 A 
ATOM     17  C   UNL     1     112.798 125.358 137.477  0.00  0.00    +0.000 A 
ATOM     18  C   UNL     1     114.149 125.780 137.280  0.00  0.00    +0.000 A 
ATOM     19  C   UNL     1     112.921 124.723 136.966  0.00  0.00    +0.000 A 
ATOM     20  C   UNL     1     114.273 125.144 136.769  0.00  0.00    +0.000 A 
ATOM     21  C   UNL     1     113.659 124.615 136.611  0.00  0.00    +0.000 A 
BRANCH  19  22
ATOM     22  O   UNL     1     112.308 124.194 136.809  0.00  0.00    +0.000 OA
ATOM     23  C   UNL     1     111.663 124.145 137.322  0.00  0.00    +0.000 C 
ENDBRANCH  19  22
ENDBRANCH   6  16
BRANCH   5  24
ATOM     24  O   UNL     1     113.231 127.410 137.027  0.00  0.00    +0.000 OA
BRANCH  24  32
ATOM     25  O   UNL     1     111.817 127.573 136.896  0.00  0.00    +0.000 OA
ATOM     26  O   UNL     1     112.169 129.031 134.927  0.00  0.00    +0.000 OA
ATOM     27  O   UNL     1     113.465 128.382 135.715  0.00  0.00    +0.000 OA
ATOM     28  C   UNL     1     111.286 128.383 135.846  0.00  0.00    +0.000 C 
ATOM     29  C   UNL     1     112.052 128.545 135.583  0.00  0.00    +0.000 C 
ATOM     30  C   UNL     1     112.699 128.220 135.978  0.00  0.00    +0.000 C 
ATOM     31  C   UNL     1     111.169 127.897 136.502  0.00  0.00    +0.000 C 
ATOM     32  C   UNL     1     112.582 127.734 136.634  0.00  0.00    +0.000 C 
ATOM     33  C   UNL     1     110.404 127.736 136.764  0.00  0.00    +0.000 C 
BRANCH  28  34
ATOM     34  O   UNL     1     110.638 128.708 135.452  0.00  0.00    +0.000 OA
BRANCH  34  36
ATOM     35  O   UNL     1     110.457 129.782 136.376  0.00  0.00    +0.000 OA
ATOM     36  C   UNL     1     110.405 129.484 135.609  0.00  0.00    +0.000 C 
BRANCH  36  37
ATOM     37  C   UNL     1     110.120 129.960 134.998  0.00  0.00    +0.000 C 
BRANCH  37  40
ATOM     38  O   UNL     1     109.634 131.258 135.347  0.00  0.00    +0.000 OA
ATOM     39  O   UNL     1     108.713 130.203 135.064  0.00  0.00    +0.000 OA
ATOM     40  C   UNL     1     109.490 130.474 135.137  0.00  0.00    +0.000 C 
ENDBRANCH  37  40
ENDBRANCH  36  37
ENDBRANCH  34  36
ENDBRANCH  28  34
ENDBRANCH  24  32
ENDBRANCH   5  24
TORSDOF 8
ENDMDL
