MODEL 1
REMARK VINA RESULT:     -10.1      0.000      0.000
REMARK  Name = 101938904
REMARK  13 active torsions:
REMARK  status: ('A' for Active; 'I' for Inactive)
REMARK    1  A    between atoms: O_1  and  C_17
REMARK    2  A    between atoms: O_1  and  C_19
REMARK    3  A    between atoms: O_7  and  C_22
REMARK    4  A    between atoms: O_7  and  C_27
REMARK    5  A    between atoms: O_9  and  C_25
REMARK    6  A    between atoms: O_9  and  C_28
REMARK    7  A    between atoms: C_16  and  C_25
REMARK    8  A    between atoms: C_24  and  C_26
REMARK    9  A    between atoms: C_28  and  C_33
REMARK   10  A    between atoms: C_34  and  C_36
REMARK   11  A    between atoms: C_35  and  C_37
REMARK   12  A    between atoms: C_38  and  C_41
REMARK   13  A    between atoms: C_41  and  C_44
REMARK                            x       y       z     vdW  Elec       q    Type
REMARK                         _______ _______ _______ _____ _____    ______ ____
ROOT
ATOM      1  O   UNL     1     106.365 128.535 142.263  0.00  0.00    +0.000 OA
ATOM      2  O   UNL     1     107.823 126.552 142.518  0.00  0.00    +0.000 OA
ATOM      3  O   UNL     1     108.445 127.964 141.934  0.00  0.00    +0.000 OA
ATOM      4  C   UNL     1     106.540 127.168 142.641  0.00  0.00    +0.000 C 
ATOM      5  C   UNL     1     107.337 127.213 142.433  0.00  0.00    +0.000 C 
ATOM      6  C   UNL     1     107.648 127.919 142.141  0.00  0.00    +0.000 C 
ATOM      7  C   UNL     1     106.054 127.829 142.556  0.00  0.00    +0.000 C 
ATOM      8  C   UNL     1     107.162 128.580 142.056  0.00  0.00    +0.000 C 
ENDROOT
BRANCH   8  10
ATOM      9  O   UNL     1     107.295 129.527 140.994  0.00  0.00    +0.000 OA
ATOM     10  C   UNL     1     107.472 129.286 141.764  0.00  0.00    +0.000 C 
ENDBRANCH   8  10
BRANCH   4  11
ATOM     11  O   UNL     1     106.229 126.462 142.933  0.00  0.00    +0.000 OA
BRANCH  11  17
ATOM     12  O   UNL     1     106.712 126.710 144.299  0.00  0.00    +0.000 OA
ATOM     13  O   UNL     1     106.097 125.567 145.739  0.00  0.00    +0.000 OA
ATOM     14  O   UNL     1     105.352 125.147 143.784  0.00  0.00    +0.000 OA
ATOM     15  C   UNL     1     106.060 125.731 144.932  0.00  0.00    +0.000 C 
ATOM     16  C   UNL     1     105.863 125.694 144.131  0.00  0.00    +0.000 C 
ATOM     17  C   UNL     1     106.265 126.298 143.741  0.00  0.00    +0.000 C 
ATOM     18  C   UNL     1     106.585 126.359 145.035  0.00  0.00    +0.000 C 
BRANCH  15  19
ATOM     19  C   UNL     1     105.572 125.083 145.083  0.00  0.00    +0.000 C 
BRANCH  19  20
ATOM     20  O   UNL     1     105.326 124.924 145.854  0.00  0.00    +0.000 OA
BRANCH  20  22
ATOM     21  O   UNL     1     104.918 123.562 145.713  0.00  0.00    +0.000 OA
ATOM     22  C   UNL     1     104.778 124.324 145.995  0.00  0.00    +0.000 C 
BRANCH  22  23
ATOM     23  C   UNL     1     104.089 124.486 146.420  0.00  0.00    +0.000 C 
ATOM     24  C   UNL     1     103.587 123.870 146.642  0.00  0.00    +0.000 C 
BRANCH  24  26
ATOM     25  O   UNL     1     100.834 124.518 148.341  0.00  0.00    +0.000 OA
ATOM     26  C   UNL     1     102.898 124.033 147.067  0.00  0.00    +0.000 A 
ATOM     27  C   UNL     1     102.933 124.142 147.884  0.00  0.00    +0.000 A 
ATOM     28  C   UNL     1     102.174 124.084 146.674  0.00  0.00    +0.000 A 
ATOM     29  C   UNL     1     102.245 124.304 148.308  0.00  0.00    +0.000 A 
ATOM     30  C   UNL     1     101.486 124.247 147.099  0.00  0.00    +0.000 A 
ATOM     31  C   UNL     1     101.521 124.356 147.916  0.00  0.00    +0.000 A 
ENDBRANCH  24  26
ENDBRANCH  22  23
ENDBRANCH  20  22
ENDBRANCH  19  20
ENDBRANCH  15  19
ENDBRANCH  11  17
ENDBRANCH   4  11
BRANCH   7  32
ATOM     32  O   UNL     1     105.256 127.784 142.763  0.00  0.00    +0.000 OA
BRANCH  32  33
ATOM     33  C   UNL     1     104.717 128.322 142.446  0.00  0.00    +0.000 A 
ATOM     34  C   UNL     1     104.466 128.967 142.896  0.00  0.00    +0.000 A 
ATOM     35  C   UNL     1     104.429 128.215 141.681  0.00  0.00    +0.000 A 
ATOM     36  C   UNL     1     103.926 129.505 142.579  0.00  0.00    +0.000 A 
ATOM     37  C   UNL     1     103.890 128.753 141.364  0.00  0.00    +0.000 A 
ATOM     38  C   UNL     1     103.638 129.398 141.813  0.00  0.00    +0.000 A 
BRANCH  38  39
ATOM     39  C   UNL     1     103.098 129.935 141.496  0.00  0.00    +0.000 C 
ATOM     40  C   UNL     1     103.307 130.730 141.415  0.00  0.00    +0.000 C 
BRANCH  40  42
ATOM     41  O   UNL     1     102.001 131.023 140.914  0.00  0.00    +0.000 OA
ATOM     42  C   UNL     1     102.768 131.267 141.098  0.00  0.00    +0.000 C 
BRANCH  42  45
ATOM     43  O   UNL     1     102.056 132.487 141.952  0.00  0.00    +0.000 OA
ATOM     44  O   UNL     1     103.670 134.397 140.568  0.00  0.00    +0.000 OA
ATOM     45  C   UNL     1     102.994 132.049 140.965  0.00  0.00    +0.000 A 
ATOM     46  C   UNL     1     102.638 132.660 141.392  0.00  0.00    +0.000 A 
ATOM     47  C   UNL     1     103.575 132.222 140.406  0.00  0.00    +0.000 A 
ATOM     48  C   UNL     1     102.864 133.442 141.259  0.00  0.00    +0.000 A 
ATOM     49  C   UNL     1     103.800 133.005 140.274  0.00  0.00    +0.000 A 
ATOM     50  C   UNL     1     103.445 133.614 140.700  0.00  0.00    +0.000 A 
ENDBRANCH  42  45
ENDBRANCH  40  42
ENDBRANCH  38  39
ENDBRANCH  32  33
ENDBRANCH   7  32
TORSDOF 13
ENDMDL
MODEL 2
REMARK VINA RESULT:     -10.0      5.292      8.968
REMARK  Name = 101938904
REMARK  13 active torsions:
REMARK  status: ('A' for Active; 'I' for Inactive)
REMARK    1  A    between atoms: O_1  and  C_17
REMARK    2  A    between atoms: O_1  and  C_19
REMARK    3  A    between atoms: O_7  and  C_22
REMARK    4  A    between atoms: O_7  and  C_27
REMARK    5  A    between atoms: O_9  and  C_25
REMARK    6  A    between atoms: O_9  and  C_28
REMARK    7  A    between atoms: C_16  and  C_25
REMARK    8  A    between atoms: C_24  and  C_26
REMARK    9  A    between atoms: C_28  and  C_33
REMARK   10  A    between atoms: C_34  and  C_36
REMARK   11  A    between atoms: C_35  and  C_37
REMARK   12  A    between atoms: C_38  and  C_41
REMARK   13  A    between atoms: C_41  and  C_44
REMARK                            x       y       z     vdW  Elec       q    Type
REMARK                         _______ _______ _______ _____ _____    ______ ____
ROOT
ATOM      1  O   UNL     1     106.443 125.402 142.051  0.00  0.00    +0.000 OA
ATOM      2  O   UNL     1     107.754 127.501 142.023  0.00  0.00    +0.000 OA
ATOM      3  O   UNL     1     106.786 127.150 143.311  0.00  0.00    +0.000 OA
ATOM      4  C   UNL     1     107.365 126.277 141.397  0.00  0.00    +0.000 C 
ATOM      5  C   UNL     1     107.317 126.801 142.032  0.00  0.00    +0.000 C 
ATOM      6  C   UNL     1     106.833 126.626 142.676  0.00  0.00    +0.000 C 
ATOM      7  C   UNL     1     106.928 125.577 141.406  0.00  0.00    +0.000 C 
ATOM      8  C   UNL     1     106.396 125.926 142.686  0.00  0.00    +0.000 C 
ENDROOT
BRANCH   8  10
ATOM      9  O   UNL     1     105.702 124.967 143.486  0.00  0.00    +0.000 OA
ATOM     10  C   UNL     1     105.912 125.751 143.330  0.00  0.00    +0.000 C 
ENDBRANCH   8  10
BRANCH   4  11
ATOM     11  O   UNL     1     107.848 126.452 140.753  0.00  0.00    +0.000 OA
BRANCH  11  17
ATOM     12  O   UNL     1     109.047 125.899 141.400  0.00  0.00    +0.000 OA
ATOM     13  O   UNL     1     110.709 125.828 140.406  0.00  0.00    +0.000 OA
ATOM     14  O   UNL     1     109.013 126.643 139.400  0.00  0.00    +0.000 OA
ATOM     15  C   UNL     1     109.913 126.041 140.394  0.00  0.00    +0.000 C 
ATOM     16  C   UNL     1     109.180 126.326 140.143  0.00  0.00    +0.000 C 
ATOM     17  C   UNL     1     108.645 126.239 140.764  0.00  0.00    +0.000 C 
ATOM     18  C   UNL     1     109.830 125.777 141.171  0.00  0.00    +0.000 C 
BRANCH  15  19
ATOM     19  C   UNL     1     110.238 126.226 139.659  0.00  0.00    +0.000 C 
BRANCH  19  20
ATOM     20  O   UNL     1     110.982 125.937 139.452  0.00  0.00    +0.000 OA
BRANCH  20  22
ATOM     21  O   UNL     1     110.976 126.731 138.264  0.00  0.00    +0.000 OA
ATOM     22  C   UNL     1     111.312 126.133 138.722  0.00  0.00    +0.000 C 
BRANCH  22  23
ATOM     23  C   UNL     1     111.980 125.731 138.450  0.00  0.00    +0.000 C 
ATOM     24  C   UNL     1     112.505 126.105 137.935  0.00  0.00    +0.000 C 
BRANCH  24  26
ATOM     25  O   UNL     1     115.173 124.498 136.847  0.00  0.00    +0.000 OA
ATOM     26  C   UNL     1     113.172 125.703 137.663  0.00  0.00    +0.000 A 
ATOM     27  C   UNL     1     113.143 125.289 136.950  0.00  0.00    +0.000 A 
ATOM     28  C   UNL     1     113.869 125.716 138.104  0.00  0.00    +0.000 A 
ATOM     29  C   UNL     1     113.809 124.887 136.679  0.00  0.00    +0.000 A 
ATOM     30  C   UNL     1     114.537 125.314 137.832  0.00  0.00    +0.000 A 
ATOM     31  C   UNL     1     114.507 124.900 137.119  0.00  0.00    +0.000 A 
ENDBRANCH  24  26
ENDBRANCH  22  23
ENDBRANCH  20  22
ENDBRANCH  19  20
ENDBRANCH  15  19
ENDBRANCH  11  17
ENDBRANCH   4  11
BRANCH   7  32
ATOM     32  O   UNL     1     106.975 125.053 140.772  0.00  0.00    +0.000 OA
BRANCH  32  33
ATOM     33  C   UNL     1     106.286 124.738 140.444  0.00  0.00    +0.000 A 
ATOM     34  C   UNL     1     105.764 125.227 140.033  0.00  0.00    +0.000 A 
ATOM     35  C   UNL     1     106.120 123.934 140.528  0.00  0.00    +0.000 A 
ATOM     36  C   UNL     1     105.075 124.912 139.706  0.00  0.00    +0.000 A 
ATOM     37  C   UNL     1     105.431 123.619 140.200  0.00  0.00    +0.000 A 
ATOM     38  C   UNL     1     104.909 124.108 139.790  0.00  0.00    +0.000 A 
BRANCH  38  39
ATOM     39  C   UNL     1     104.220 123.793 139.462  0.00  0.00    +0.000 C 
ATOM     40  C   UNL     1     104.130 123.762 138.643  0.00  0.00    +0.000 C 
BRANCH  40  42
ATOM     41  O   UNL     1     102.808 123.242 138.804  0.00  0.00    +0.000 OA
ATOM     42  C   UNL     1     103.441 123.447 138.315  0.00  0.00    +0.000 C 
BRANCH  42  45
ATOM     43  O   UNL     1     102.027 123.783 137.534  0.00  0.00    +0.000 OA
ATOM     44  O   UNL     1     103.213 123.005 135.053  0.00  0.00    +0.000 OA
ATOM     45  C   UNL     1     103.385 123.336 137.500  0.00  0.00    +0.000 A 
ATOM     46  C   UNL     1     102.677 123.504 137.109  0.00  0.00    +0.000 A 
ATOM     47  C   UNL     1     104.035 123.057 137.075  0.00  0.00    +0.000 A 
ATOM     48  C   UNL     1     102.621 123.394 136.294  0.00  0.00    +0.000 A 
ATOM     49  C   UNL     1     103.977 122.947 136.259  0.00  0.00    +0.000 A 
ATOM     50  C   UNL     1     103.270 123.115 135.869  0.00  0.00    +0.000 A 
ENDBRANCH  42  45
ENDBRANCH  40  42
ENDBRANCH  38  39
ENDBRANCH  32  33
ENDBRANCH   7  32
TORSDOF 13
ENDMDL
MODEL 3
REMARK VINA RESULT:     -10.0      5.931      7.981
REMARK  Name = 101938904
REMARK  13 active torsions:
REMARK  status: ('A' for Active; 'I' for Inactive)
REMARK    1  A    between atoms: O_1  and  C_17
REMARK    2  A    between atoms: O_1  and  C_19
REMARK    3  A    between atoms: O_7  and  C_22
REMARK    4  A    between atoms: O_7  and  C_27
REMARK    5  A    between atoms: O_9  and  C_25
REMARK    6  A    between atoms: O_9  and  C_28
REMARK    7  A    between atoms: C_16  and  C_25
REMARK    8  A    between atoms: C_24  and  C_26
REMARK    9  A    between atoms: C_28  and  C_33
REMARK   10  A    between atoms: C_34  and  C_36
REMARK   11  A    between atoms: C_35  and  C_37
REMARK   12  A    between atoms: C_38  and  C_41
REMARK   13  A    between atoms: C_41  and  C_44
REMARK                            x       y       z     vdW  Elec       q    Type
REMARK                         _______ _______ _______ _____ _____    ______ ____
ROOT
ATOM      1  O   UNL     1     110.680 126.407 140.029  0.00  0.00    +0.000 OA
ATOM      2  O   UNL     1     109.121 126.768 141.917  0.00  0.00    +0.000 OA
ATOM      3  O   UNL     1     110.732 127.063 142.109  0.00  0.00    +0.000 OA
ATOM      4  C   UNL     1     109.354 126.379 140.562  0.00  0.00    +0.000 C 
ATOM      5  C   UNL     1     109.641 126.647 141.288  0.00  0.00    +0.000 C 
ATOM      6  C   UNL     1     110.446 126.795 141.384  0.00  0.00    +0.000 C 
ATOM      7  C   UNL     1     109.874 126.259 139.933  0.00  0.00    +0.000 C 
ATOM      8  C   UNL     1     110.966 126.675 140.755  0.00  0.00    +0.000 C 
ENDROOT
BRANCH   8  10
ATOM      9  O   UNL     1     112.302 126.193 140.905  0.00  0.00    +0.000 OA
ATOM     10  C   UNL     1     111.771 126.823 140.851  0.00  0.00    +0.000 C 
ENDBRANCH   8  10
BRANCH   4  11
ATOM     11  O   UNL     1     108.549 126.231 140.465  0.00  0.00    +0.000 OA
BRANCH  11  17
ATOM     12  O   UNL     1     108.666 124.843 140.937  0.00  0.00    +0.000 OA
ATOM     13  O   UNL     1     107.065 123.763 141.100  0.00  0.00    +0.000 OA
ATOM     14  O   UNL     1     106.815 125.767 140.410  0.00  0.00    +0.000 OA
ATOM     15  C   UNL     1     107.377 124.498 140.895  0.00  0.00    +0.000 C 
ATOM     16  C   UNL     1     107.440 125.282 140.645  0.00  0.00    +0.000 C 
ATOM     17  C   UNL     1     108.236 125.495 140.670  0.00  0.00    +0.000 C 
ATOM     18  C   UNL     1     108.135 124.228 141.076  0.00  0.00    +0.000 C 
BRANCH  15  19
ATOM     19  C   UNL     1     106.560 124.528 140.787  0.00  0.00    +0.000 C 
BRANCH  19  20
ATOM     20  O   UNL     1     106.149 123.850 140.562  0.00  0.00    +0.000 OA
BRANCH  20  22
ATOM     21  O   UNL     1     104.919 123.836 141.290  0.00  0.00    +0.000 OA
ATOM     22  C   UNL     1     105.324 123.846 140.571  0.00  0.00    +0.000 C 
BRANCH  22  23
ATOM     23  C   UNL     1     104.903 123.853 139.862  0.00  0.00    +0.000 C 
ATOM     24  C   UNL     1     104.152 123.512 139.824  0.00  0.00    +0.000 C 
BRANCH  24  26
ATOM     25  O   UNL     1     102.469 123.538 136.986  0.00  0.00    +0.000 OA
ATOM     26  C   UNL     1     103.731 123.519 139.114  0.00  0.00    +0.000 A 
ATOM     27  C   UNL     1     104.133 123.471 138.396  0.00  0.00    +0.000 A 
ATOM     28  C   UNL     1     102.908 123.573 139.124  0.00  0.00    +0.000 A 
ATOM     29  C   UNL     1     103.713 123.478 137.687  0.00  0.00    +0.000 A 
ATOM     30  C   UNL     1     102.487 123.579 138.414  0.00  0.00    +0.000 A 
ATOM     31  C   UNL     1     102.889 123.532 137.695  0.00  0.00    +0.000 A 
ENDBRANCH  24  26
ENDBRANCH  22  23
ENDBRANCH  20  22
ENDBRANCH  19  20
ENDBRANCH  15  19
ENDBRANCH  11  17
ENDBRANCH   4  11
BRANCH   7  32
ATOM     32  O   UNL     1     109.588 125.990 139.207  0.00  0.00    +0.000 OA
BRANCH  32  33
ATOM     33  C   UNL     1     109.910 126.279 138.504  0.00  0.00    +0.000 A 
ATOM     34  C   UNL     1     110.443 125.818 138.075  0.00  0.00    +0.000 A 
ATOM     35  C   UNL     1     109.698 127.028 138.232  0.00  0.00    +0.000 A 
ATOM     36  C   UNL     1     110.764 126.108 137.372  0.00  0.00    +0.000 A 
ATOM     37  C   UNL     1     110.020 127.317 137.529  0.00  0.00    +0.000 A 
ATOM     38  C   UNL     1     110.553 126.857 137.099  0.00  0.00    +0.000 A 
BRANCH  38  39
ATOM     39  C   UNL     1     110.874 127.146 136.396  0.00  0.00    +0.000 C 
ATOM     40  C   UNL     1     111.533 127.643 136.418  0.00  0.00    +0.000 C 
BRANCH  40  42
ATOM     41  O   UNL     1     111.479 127.780 134.996  0.00  0.00    +0.000 OA
ATOM     42  C   UNL     1     111.855 127.932 135.716  0.00  0.00    +0.000 C 
BRANCH  42  45
ATOM     43  O   UNL     1     111.841 129.512 135.240  0.00  0.00    +0.000 OA
ATOM     44  O   UNL     1     114.642 129.697 135.776  0.00  0.00    +0.000 OA
ATOM     45  C   UNL     1     112.552 128.372 135.731  0.00  0.00    +0.000 A 
ATOM     46  C   UNL     1     112.545 129.163 135.493  0.00  0.00    +0.000 A 
ATOM     47  C   UNL     1     113.255 128.024 135.984  0.00  0.00    +0.000 A 
ATOM     48  C   UNL     1     113.242 129.604 135.508  0.00  0.00    +0.000 A 
ATOM     49  C   UNL     1     113.952 128.466 135.999  0.00  0.00    +0.000 A 
ATOM     50  C   UNL     1     113.946 129.255 135.761  0.00  0.00    +0.000 A 
ENDBRANCH  42  45
ENDBRANCH  40  42
ENDBRANCH  38  39
ENDBRANCH  32  33
ENDBRANCH   7  32
TORSDOF 13
ENDMDL
MODEL 4
REMARK VINA RESULT:     -10.0      8.750     11.021
REMARK  Name = 101938904
REMARK  13 active torsions:
REMARK  status: ('A' for Active; 'I' for Inactive)
REMARK    1  A    between atoms: O_1  and  C_17
REMARK    2  A    between atoms: O_1  and  C_19
REMARK    3  A    between atoms: O_7  and  C_22
REMARK    4  A    between atoms: O_7  and  C_27
REMARK    5  A    between atoms: O_9  and  C_25
REMARK    6  A    between atoms: O_9  and  C_28
REMARK    7  A    between atoms: C_16  and  C_25
REMARK    8  A    between atoms: C_24  and  C_26
REMARK    9  A    between atoms: C_28  and  C_33
REMARK   10  A    between atoms: C_34  and  C_36
REMARK   11  A    between atoms: C_35  and  C_37
REMARK   12  A    between atoms: C_38  and  C_41
REMARK   13  A    between atoms: C_41  and  C_44
REMARK                            x       y       z     vdW  Elec       q    Type
REMARK                         _______ _______ _______ _____ _____    ______ ____
ROOT
ATOM      1  O   UNL     1     111.569 125.798 137.192  0.00  0.00    +0.000 OA
ATOM      2  O   UNL     1     110.665 125.515 134.905  0.00  0.00    +0.000 OA
ATOM      3  O   UNL     1     111.178 124.200 135.758  0.00  0.00    +0.000 OA
ATOM      4  C   UNL     1     111.011 126.362 136.003  0.00  0.00    +0.000 C 
ATOM      5  C   UNL     1     110.966 125.609 135.667  0.00  0.00    +0.000 C 
ATOM      6  C   UNL     1     111.223 124.952 136.093  0.00  0.00    +0.000 C 
ATOM      7  C   UNL     1     111.312 126.456 136.765  0.00  0.00    +0.000 C 
ATOM      8  C   UNL     1     111.524 125.046 136.855  0.00  0.00    +0.000 C 
ENDROOT
BRANCH   8  10
ATOM      9  O   UNL     1     111.409 124.186 137.991  0.00  0.00    +0.000 OA
ATOM     10  C   UNL     1     111.781 124.389 137.282  0.00  0.00    +0.000 C 
ENDBRANCH   8  10
BRANCH   4  11
ATOM     11  O   UNL     1     110.754 127.020 135.577  0.00  0.00    +0.000 OA
BRANCH  11  17
ATOM     12  O   UNL     1     109.336 126.848 135.924  0.00  0.00    +0.000 OA
ATOM     13  O   UNL     1     108.134 128.361 135.762  0.00  0.00    +0.000 OA
ATOM     14  O   UNL     1     110.178 128.686 135.239  0.00  0.00    +0.000 OA
ATOM     15  C   UNL     1     108.907 128.088 135.673  0.00  0.00    +0.000 C 
ATOM     16  C   UNL     1     109.716 128.058 135.510  0.00  0.00    +0.000 C 
ATOM     17  C   UNL     1     109.981 127.293 135.665  0.00  0.00    +0.000 C 
ATOM     18  C   UNL     1     108.673 127.339 135.929  0.00  0.00    +0.000 C 
BRANCH  15  19
ATOM     19  C   UNL     1     108.892 128.884 135.457  0.00  0.00    +0.000 C 
BRANCH  19  20
ATOM     20  O   UNL     1     108.381 129.405 135.841  0.00  0.00    +0.000 OA
BRANCH  20  22
ATOM     21  O   UNL     1     108.103 130.562 135.050  0.00  0.00    +0.000 OA
ATOM     22  C   UNL     1     108.449 130.217 135.715  0.00  0.00    +0.000 C 
BRANCH  22  23
ATOM     23  C   UNL     1     108.865 130.685 136.253  0.00  0.00    +0.000 C 
ATOM     24  C   UNL     1     108.688 131.487 136.325  0.00  0.00    +0.000 C 
BRANCH  24  26
ATOM     25  O   UNL     1     110.348 133.357 138.477  0.00  0.00    +0.000 OA
ATOM     26  C   UNL     1     109.103 131.955 136.863  0.00  0.00    +0.000 A 
ATOM     27  C   UNL     1     109.712 132.444 136.600  0.00  0.00    +0.000 A 
ATOM     28  C   UNL     1     108.908 131.933 137.665  0.00  0.00    +0.000 A 
ATOM     29  C   UNL     1     110.127 132.912 137.138  0.00  0.00    +0.000 A 
ATOM     30  C   UNL     1     109.323 132.400 138.203  0.00  0.00    +0.000 A 
ATOM     31  C   UNL     1     109.933 132.890 137.940  0.00  0.00    +0.000 A 
ENDBRANCH  24  26
ENDBRANCH  22  23
ENDBRANCH  20  22
ENDBRANCH  19  20
ENDBRANCH  15  19
ENDBRANCH  11  17
ENDBRANCH   4  11
BRANCH   7  32
ATOM     32  O   UNL     1     111.357 127.208 137.101  0.00  0.00    +0.000 OA
BRANCH  32  33
ATOM     33  C   UNL     1     111.873 127.350 137.729  0.00  0.00    +0.000 A 
ATOM     34  C   UNL     1     111.591 127.347 138.504  0.00  0.00    +0.000 A 
ATOM     35  C   UNL     1     112.671 127.494 137.581  0.00  0.00    +0.000 A 
ATOM     36  C   UNL     1     112.107 127.489 139.131  0.00  0.00    +0.000 A 
ATOM     37  C   UNL     1     113.188 127.636 138.208  0.00  0.00    +0.000 A 
ATOM     38  C   UNL     1     112.907 127.633 138.983  0.00  0.00    +0.000 A 
BRANCH  38  39
ATOM     39  C   UNL     1     113.423 127.775 139.611  0.00  0.00    +0.000 C 
ATOM     40  C   UNL     1     113.533 128.544 139.888  0.00  0.00    +0.000 C 
BRANCH  40  42
ATOM     41  O   UNL     1     114.307 128.060 140.989  0.00  0.00    +0.000 OA
ATOM     42  C   UNL     1     114.050 128.686 140.516  0.00  0.00    +0.000 C 
BRANCH  42  45
ATOM     43  O   UNL     1     113.226 129.634 141.586  0.00  0.00    +0.000 OA
ATOM     44  O   UNL     1     115.089 131.755 141.140  0.00  0.00    +0.000 OA
ATOM     45  C   UNL     1     114.310 129.453 140.671  0.00  0.00    +0.000 A 
ATOM     46  C   UNL     1     113.898 129.927 141.207  0.00  0.00    +0.000 A 
ATOM     47  C   UNL     1     114.982 129.746 140.292  0.00  0.00    +0.000 A 
ATOM     48  C   UNL     1     114.158 130.694 141.363  0.00  0.00    +0.000 A 
ATOM     49  C   UNL     1     115.241 130.514 140.449  0.00  0.00    +0.000 A 
ATOM     50  C   UNL     1     114.830 130.988 140.984  0.00  0.00    +0.000 A 
ENDBRANCH  42  45
ENDBRANCH  40  42
ENDBRANCH  38  39
ENDBRANCH  32  33
ENDBRANCH   7  32
TORSDOF 13
ENDMDL
MODEL 5
REMARK VINA RESULT:      -9.9      4.894      8.112
REMARK  Name = 101938904
REMARK  13 active torsions:
REMARK  status: ('A' for Active; 'I' for Inactive)
REMARK    1  A    between atoms: O_1  and  C_17
REMARK    2  A    between atoms: O_1  and  C_19
REMARK    3  A    between atoms: O_7  and  C_22
REMARK    4  A    between atoms: O_7  and  C_27
REMARK    5  A    between atoms: O_9  and  C_25
REMARK    6  A    between atoms: O_9  and  C_28
REMARK    7  A    between atoms: C_16  and  C_25
REMARK    8  A    between atoms: C_24  and  C_26
REMARK    9  A    between atoms: C_28  and  C_33
REMARK   10  A    between atoms: C_34  and  C_36
REMARK   11  A    between atoms: C_35  and  C_37
REMARK   12  A    between atoms: C_38  and  C_41
REMARK   13  A    between atoms: C_41  and  C_44
REMARK                            x       y       z     vdW  Elec       q    Type
REMARK                         _______ _______ _______ _____ _____    ______ ____
ROOT
ATOM      1  O   UNL     1     109.573 127.707 142.022  0.00  0.00    +0.000 OA
ATOM      2  O   UNL     1     107.149 128.032 141.644  0.00  0.00    +0.000 OA
ATOM      3  O   UNL     1     107.987 129.096 142.584  0.00  0.00    +0.000 OA
ATOM      4  C   UNL     1     108.346 127.282 141.425  0.00  0.00    +0.000 C 
ATOM      5  C   UNL     1     107.957 127.923 141.770  0.00  0.00    +0.000 C 
ATOM      6  C   UNL     1     108.375 128.456 142.240  0.00  0.00    +0.000 C 
ATOM      7  C   UNL     1     109.154 127.174 141.551  0.00  0.00    +0.000 C 
ATOM      8  C   UNL     1     109.183 128.348 142.366  0.00  0.00    +0.000 C 
ENDROOT
BRANCH   8  10
ATOM      9  O   UNL     1     109.908 128.635 143.564  0.00  0.00    +0.000 OA
ATOM     10  C   UNL     1     109.603 128.880 142.837  0.00  0.00    +0.000 C 
ENDBRANCH   8  10
BRANCH   4  11
ATOM     11  O   UNL     1     107.927 126.750 140.955  0.00  0.00    +0.000 OA
BRANCH  11  17
ATOM     12  O   UNL     1     107.394 126.022 142.116  0.00  0.00    +0.000 OA
ATOM     13  O   UNL     1     106.287 124.458 141.823  0.00  0.00    +0.000 OA
ATOM     14  O   UNL     1     107.024 125.462 140.090  0.00  0.00    +0.000 OA
ATOM     15  C   UNL     1     106.722 125.064 141.472  0.00  0.00    +0.000 C 
ATOM     16  C   UNL     1     107.077 125.552 140.908  0.00  0.00    +0.000 C 
ATOM     17  C   UNL     1     107.491 126.143 141.305  0.00  0.00    +0.000 C 
ATOM     18  C   UNL     1     106.919 125.355 142.218  0.00  0.00    +0.000 C 
BRANCH  15  19
ATOM     19  C   UNL     1     106.401 124.600 140.871  0.00  0.00    +0.000 C 
BRANCH  19  20
ATOM     20  O   UNL     1     105.760 124.107 141.029  0.00  0.00    +0.000 OA
BRANCH  20  22
ATOM     21  O   UNL     1     105.902 122.904 140.270  0.00  0.00    +0.000 OA
ATOM     22  C   UNL     1     105.482 123.592 140.447  0.00  0.00    +0.000 C 
BRANCH  22  23
ATOM     23  C   UNL     1     104.785 123.766 140.041  0.00  0.00    +0.000 C 
ATOM     24  C   UNL     1     104.445 123.201 139.545  0.00  0.00    +0.000 C 
BRANCH  24  26
ATOM     25  O   UNL     1     101.657 123.894 137.923  0.00  0.00    +0.000 OA
ATOM     26  C   UNL     1     103.748 123.374 139.139  0.00  0.00    +0.000 A 
ATOM     27  C   UNL     1     103.018 123.253 139.503  0.00  0.00    +0.000 A 
ATOM     28  C   UNL     1     103.781 123.670 138.369  0.00  0.00    +0.000 A 
ATOM     29  C   UNL     1     102.321 123.426 139.097  0.00  0.00    +0.000 A 
ATOM     30  C   UNL     1     103.084 123.843 137.964  0.00  0.00    +0.000 A 
ATOM     31  C   UNL     1     102.354 123.721 138.328  0.00  0.00    +0.000 A 
ENDBRANCH  24  26
ENDBRANCH  22  23
ENDBRANCH  20  22
ENDBRANCH  19  20
ENDBRANCH  15  19
ENDBRANCH  11  17
ENDBRANCH   4  11
BRANCH   7  32
ATOM     32  O   UNL     1     109.543 126.534 141.208  0.00  0.00    +0.000 OA
BRANCH  32  33
ATOM     33  C   UNL     1     110.245 126.653 140.790  0.00  0.00    +0.000 A 
ATOM     34  C   UNL     1     110.968 126.460 141.136  0.00  0.00    +0.000 A 
ATOM     35  C   UNL     1     110.222 126.964 140.027  0.00  0.00    +0.000 A 
ATOM     36  C   UNL     1     111.670 126.579 140.718  0.00  0.00    +0.000 A 
ATOM     37  C   UNL     1     110.923 127.083 139.609  0.00  0.00    +0.000 A 
ATOM     38  C   UNL     1     111.647 126.891 139.954  0.00  0.00    +0.000 A 
BRANCH  38  39
ATOM     39  C   UNL     1     112.348 127.010 139.536  0.00  0.00    +0.000 C 
ATOM     40  C   UNL     1     112.598 126.451 138.982  0.00  0.00    +0.000 C 
BRANCH  40  42
ATOM     41  O   UNL     1     113.787 127.209 138.750  0.00  0.00    +0.000 OA
ATOM     42  C   UNL     1     113.299 126.570 138.564  0.00  0.00    +0.000 C 
BRANCH  42  45
ATOM     43  O   UNL     1     114.673 125.667 138.701  0.00  0.00    +0.000 OA
ATOM     44  O   UNL     1     114.157 124.492 136.148  0.00  0.00    +0.000 OA
ATOM     45  C   UNL     1     113.513 126.051 137.960  0.00  0.00    +0.000 A 
ATOM     46  C   UNL     1     114.201 125.599 138.028  0.00  0.00    +0.000 A 
ATOM     47  C   UNL     1     113.040 125.983 137.287  0.00  0.00    +0.000 A 
ATOM     48  C   UNL     1     114.414 125.080 137.424  0.00  0.00    +0.000 A 
ATOM     49  C   UNL     1     113.255 125.463 136.683  0.00  0.00    +0.000 A 
ATOM     50  C   UNL     1     113.942 125.012 136.752  0.00  0.00    +0.000 A 
ENDBRANCH  42  45
ENDBRANCH  40  42
ENDBRANCH  38  39
ENDBRANCH  32  33
ENDBRANCH   7  32
TORSDOF 13
ENDMDL
MODEL 6
REMARK VINA RESULT:      -9.7      6.509      9.943
REMARK  Name = 101938904
REMARK  13 active torsions:
REMARK  status: ('A' for Active; 'I' for Inactive)
REMARK    1  A    between atoms: O_1  and  C_17
REMARK    2  A    between atoms: O_1  and  C_19
REMARK    3  A    between atoms: O_7  and  C_22
REMARK    4  A    between atoms: O_7  and  C_27
REMARK    5  A    between atoms: O_9  and  C_25
REMARK    6  A    between atoms: O_9  and  C_28
REMARK    7  A    between atoms: C_16  and  C_25
REMARK    8  A    between atoms: C_24  and  C_26
REMARK    9  A    between atoms: C_28  and  C_33
REMARK   10  A    between atoms: C_34  and  C_36
REMARK   11  A    between atoms: C_35  and  C_37
REMARK   12  A    between atoms: C_38  and  C_41
REMARK   13  A    between atoms: C_41  and  C_44
REMARK                            x       y       z     vdW  Elec       q    Type
REMARK                         _______ _______ _______ _____ _____    ______ ____
ROOT
ATOM      1  O   UNL     1     110.738 127.127 141.343  0.00  0.00    +0.000 OA
ATOM      2  O   UNL     1     109.351 128.780 142.557  0.00  0.00    +0.000 OA
ATOM      3  O   UNL     1     108.676 127.377 142.012  0.00  0.00    +0.000 OA
ATOM      4  C   UNL     1     110.614 128.380 142.020  0.00  0.00    +0.000 C 
ATOM      5  C   UNL     1     109.813 128.229 142.152  0.00  0.00    +0.000 C 
ATOM      6  C   UNL     1     109.475 127.528 141.880  0.00  0.00    +0.000 C 
ATOM      7  C   UNL     1     111.076 127.829 141.616  0.00  0.00    +0.000 C 
ATOM      8  C   UNL     1     109.937 126.977 141.476  0.00  0.00    +0.000 C 
ENDROOT
BRANCH   8  10
ATOM      9  O   UNL     1     109.911 125.549 141.441  0.00  0.00    +0.000 OA
ATOM     10  C   UNL     1     109.600 126.276 141.203  0.00  0.00    +0.000 C 
ENDBRANCH   8  10
BRANCH   4  11
ATOM     11  O   UNL     1     110.952 129.081 142.292  0.00  0.00    +0.000 OA
BRANCH  11  17
ATOM     12  O   UNL     1     111.291 128.518 143.608  0.00  0.00    +0.000 OA
ATOM     13  O   UNL     1     111.847 129.712 145.030  0.00  0.00    +0.000 OA
ATOM     14  O   UNL     1     111.370 130.602 143.149  0.00  0.00    +0.000 OA
ATOM     15  C   UNL     1     111.603 129.650 144.245  0.00  0.00    +0.000 C 
ATOM     16  C   UNL     1     111.389 129.842 143.472  0.00  0.00    +0.000 C 
ATOM     17  C   UNL     1     111.196 129.144 143.078  0.00  0.00    +0.000 C 
ATOM     18  C   UNL     1     111.542 128.831 144.329  0.00  0.00    +0.000 C 
BRANCH  15  19
ATOM     19  C   UNL     1     111.735 130.447 144.408  0.00  0.00    +0.000 C 
BRANCH  19  20
ATOM     20  O   UNL     1     112.020 130.675 145.148  0.00  0.00    +0.000 OA
BRANCH  20  22
ATOM     21  O   UNL     1     112.352 132.005 144.743  0.00  0.00    +0.000 OA
ATOM     22  C   UNL     1     112.108 131.475 145.327  0.00  0.00    +0.000 C 
BRANCH  22  23
ATOM     23  C   UNL     1     111.952 131.747 146.090  0.00  0.00    +0.000 C 
ATOM     24  C   UNL     1     112.390 132.372 146.404  0.00  0.00    +0.000 C 
BRANCH  24  26
ATOM     25  O   UNL     1     111.766 133.458 149.456  0.00  0.00    +0.000 OA
ATOM     26  C   UNL     1     112.234 132.643 147.167  0.00  0.00    +0.000 A 
ATOM     27  C   UNL     1     112.761 132.478 147.780  0.00  0.00    +0.000 A 
ATOM     28  C   UNL     1     111.551 133.081 147.317  0.00  0.00    +0.000 A 
ATOM     29  C   UNL     1     112.605 132.749 148.543  0.00  0.00    +0.000 A 
ATOM     30  C   UNL     1     111.395 133.352 148.081  0.00  0.00    +0.000 A 
ATOM     31  C   UNL     1     111.922 133.187 148.693  0.00  0.00    +0.000 A 
ENDBRANCH  24  26
ENDBRANCH  22  23
ENDBRANCH  20  22
ENDBRANCH  19  20
ENDBRANCH  15  19
ENDBRANCH  11  17
ENDBRANCH   4  11
BRANCH   7  32
ATOM     32  O   UNL     1     111.876 127.979 141.483  0.00  0.00    +0.000 OA
BRANCH  32  33
ATOM     33  C   UNL     1     112.247 127.680 140.810  0.00  0.00    +0.000 A 
ATOM     34  C   UNL     1     112.723 127.009 140.865  0.00  0.00    +0.000 A 
ATOM     35  C   UNL     1     112.140 128.051 140.082  0.00  0.00    +0.000 A 
ATOM     36  C   UNL     1     113.094 126.709 140.192  0.00  0.00    +0.000 A 
ATOM     37  C   UNL     1     112.511 127.752 139.408  0.00  0.00    +0.000 A 
ATOM     38  C   UNL     1     112.987 127.081 139.462  0.00  0.00    +0.000 A 
BRANCH  38  39
ATOM     39  C   UNL     1     113.358 126.782 138.789  0.00  0.00    +0.000 C 
ATOM     40  C   UNL     1     113.015 126.156 138.374  0.00  0.00    +0.000 C 
BRANCH  40  42
ATOM     41  O   UNL     1     114.109 126.169 137.453  0.00  0.00    +0.000 OA
ATOM     42  C   UNL     1     113.386 125.857 137.700  0.00  0.00    +0.000 C 
BRANCH  42  45
ATOM     43  O   UNL     1     114.173 124.417 137.523  0.00  0.00    +0.000 OA
ATOM     44  O   UNL     1     111.981 123.408 135.991  0.00  0.00    +0.000 OA
ATOM     45  C   UNL     1     113.034 125.245 137.273  0.00  0.00    +0.000 A 
ATOM     46  C   UNL     1     113.428 124.525 137.184  0.00  0.00    +0.000 A 
ATOM     47  C   UNL     1     112.290 125.353 136.934  0.00  0.00    +0.000 A 
ATOM     48  C   UNL     1     113.077 123.913 136.757  0.00  0.00    +0.000 A 
ATOM     49  C   UNL     1     111.939 124.740 136.507  0.00  0.00    +0.000 A 
ATOM     50  C   UNL     1     112.332 124.021 136.418  0.00  0.00    +0.000 A 
ENDBRANCH  42  45
ENDBRANCH  40  42
ENDBRANCH  38  39
ENDBRANCH  32  33
ENDBRANCH   7  32
TORSDOF 13
ENDMDL
MODEL 7
REMARK VINA RESULT:      -9.6      4.254      7.153
REMARK  Name = 101938904
REMARK  13 active torsions:
REMARK  status: ('A' for Active; 'I' for Inactive)
REMARK    1  A    between atoms: O_1  and  C_17
REMARK    2  A    between atoms: O_1  and  C_19
REMARK    3  A    between atoms: O_7  and  C_22
REMARK    4  A    between atoms: O_7  and  C_27
REMARK    5  A    between atoms: O_9  and  C_25
REMARK    6  A    between atoms: O_9  and  C_28
REMARK    7  A    between atoms: C_16  and  C_25
REMARK    8  A    between atoms: C_24  and  C_26
REMARK    9  A    between atoms: C_28  and  C_33
REMARK   10  A    between atoms: C_34  and  C_36
REMARK   11  A    between atoms: C_35  and  C_37
REMARK   12  A    between atoms: C_38  and  C_41
REMARK   13  A    between atoms: C_41  and  C_44
REMARK                            x       y       z     vdW  Elec       q    Type
REMARK                         _______ _______ _______ _____ _____    ______ ____
ROOT
ATOM      1  O   UNL     1     112.042 128.426 141.243  0.00  0.00    +0.000 OA
ATOM      2  O   UNL     1     111.274 126.081 141.428  0.00  0.00    +0.000 OA
ATOM      3  O   UNL     1     112.712 126.423 140.696  0.00  0.00    +0.000 OA
ATOM      4  C   UNL     1     111.067 127.473 141.671  0.00  0.00    +0.000 C 
ATOM      5  C   UNL     1     111.530 126.863 141.366  0.00  0.00    +0.000 C 
ATOM      6  C   UNL     1     112.249 127.033 141.000  0.00  0.00    +0.000 C 
ATOM      7  C   UNL     1     111.323 128.255 141.609  0.00  0.00    +0.000 C 
ATOM      8  C   UNL     1     112.505 127.815 140.938  0.00  0.00    +0.000 C 
ENDROOT
BRANCH   8  10
ATOM      9  O   UNL     1     113.244 128.492 139.920  0.00  0.00    +0.000 OA
ATOM     10  C   UNL     1     113.224 127.986 140.572  0.00  0.00    +0.000 C 
ENDBRANCH   8  10
BRANCH   4  11
ATOM     11  O   UNL     1     110.348 127.303 142.037  0.00  0.00    +0.000 OA
BRANCH  11  17
ATOM     12  O   UNL     1     109.627 127.174 140.763  0.00  0.00    +0.000 OA
ATOM     13  O   UNL     1     107.693 127.039 140.781  0.00  0.00    +0.000 OA
ATOM     14  O   UNL     1     108.670 127.224 142.670  0.00  0.00    +0.000 OA
ATOM     15  C   UNL     1     108.379 127.115 141.233  0.00  0.00    +0.000 C 
ATOM     16  C   UNL     1     108.891 127.191 141.876  0.00  0.00    +0.000 C 
ATOM     17  C   UNL     1     109.662 127.227 141.586  0.00  0.00    +0.000 C 
ATOM     18  C   UNL     1     108.834 127.105 140.546  0.00  0.00    +0.000 C 
BRANCH  15  19
ATOM     19  C   UNL     1     107.734 127.101 141.748  0.00  0.00    +0.000 C 
BRANCH  19  20
ATOM     20  O   UNL     1     106.967 127.157 141.450  0.00  0.00    +0.000 OA
BRANCH  20  22
ATOM     21  O   UNL     1     106.172 126.502 142.440  0.00  0.00    +0.000 OA
ATOM     22  C   UNL     1     106.324 127.160 141.965  0.00  0.00    +0.000 C 
BRANCH  22  23
ATOM     23  C   UNL     1     105.831 127.820 142.007  0.00  0.00    +0.000 C 
ATOM     24  C   UNL     1     105.016 127.723 142.094  0.00  0.00    +0.000 C 
BRANCH  24  26
ATOM     25  O   UNL     1     103.046 130.364 142.259  0.00  0.00    +0.000 OA
ATOM     26  C   UNL     1     104.523 128.383 142.135  0.00  0.00    +0.000 A 
ATOM     27  C   UNL     1     104.485 128.827 142.829  0.00  0.00    +0.000 A 
ATOM     28  C   UNL     1     104.069 128.600 141.481  0.00  0.00    +0.000 A 
ATOM     29  C   UNL     1     103.993 129.487 142.870  0.00  0.00    +0.000 A 
ATOM     30  C   UNL     1     103.576 129.260 141.523  0.00  0.00    +0.000 A 
ATOM     31  C   UNL     1     103.538 129.704 142.217  0.00  0.00    +0.000 A 
ENDBRANCH  24  26
ENDBRANCH  22  23
ENDBRANCH  20  22
ENDBRANCH  19  20
ENDBRANCH  15  19
ENDBRANCH  11  17
ENDBRANCH   4  11
BRANCH   7  32
ATOM     32  O   UNL     1     110.860 128.867 141.914  0.00  0.00    +0.000 OA
BRANCH  32  33
ATOM     33  C   UNL     1     111.218 129.503 142.298  0.00  0.00    +0.000 A 
ATOM     34  C   UNL     1     111.536 129.403 143.053  0.00  0.00    +0.000 A 
ATOM     35  C   UNL     1     111.257 130.239 141.928  0.00  0.00    +0.000 A 
ATOM     36  C   UNL     1     111.894 130.039 143.437  0.00  0.00    +0.000 A 
ATOM     37  C   UNL     1     111.614 130.875 142.312  0.00  0.00    +0.000 A 
ATOM     38  C   UNL     1     111.933 130.776 143.067  0.00  0.00    +0.000 A 
BRANCH  38  39
ATOM     39  C   UNL     1     112.291 131.412 143.451  0.00  0.00    +0.000 C 
ATOM     40  C   UNL     1     111.884 131.816 144.045  0.00  0.00    +0.000 C 
BRANCH  40  42
ATOM     41  O   UNL     1     112.927 132.791 144.118  0.00  0.00    +0.000 OA
ATOM     42  C   UNL     1     112.242 132.452 144.430  0.00  0.00    +0.000 C 
BRANCH  42  45
ATOM     43  O   UNL     1     111.245 133.766 144.374  0.00  0.00    +0.000 OA
ATOM     44  O   UNL     1     110.933 133.649 147.213  0.00  0.00    +0.000 OA
ATOM     45  C   UNL     1     111.915 132.751 145.126  0.00  0.00    +0.000 A 
ATOM     46  C   UNL     1     111.416 133.408 145.098  0.00  0.00    +0.000 A 
ATOM     47  C   UNL     1     112.087 132.393 145.849  0.00  0.00    +0.000 A 
ATOM     48  C   UNL     1     111.089 133.707 145.794  0.00  0.00    +0.000 A 
ATOM     49  C   UNL     1     111.759 132.693 146.545  0.00  0.00    +0.000 A 
ATOM     50  C   UNL     1     111.261 133.349 146.517  0.00  0.00    +0.000 A 
ENDBRANCH  42  45
ENDBRANCH  40  42
ENDBRANCH  38  39
ENDBRANCH  32  33
ENDBRANCH   7  32
TORSDOF 13
ENDMDL
MODEL 8
REMARK VINA RESULT:      -9.6      3.497      4.421
REMARK  Name = 101938904
REMARK  13 active torsions:
REMARK  status: ('A' for Active; 'I' for Inactive)
REMARK    1  A    between atoms: O_1  and  C_17
REMARK    2  A    between atoms: O_1  and  C_19
REMARK    3  A    between atoms: O_7  and  C_22
REMARK    4  A    between atoms: O_7  and  C_27
REMARK    5  A    between atoms: O_9  and  C_25
REMARK    6  A    between atoms: O_9  and  C_28
REMARK    7  A    between atoms: C_16  and  C_25
REMARK    8  A    between atoms: C_24  and  C_26
REMARK    9  A    between atoms: C_28  and  C_33
REMARK   10  A    between atoms: C_34  and  C_36
REMARK   11  A    between atoms: C_35  and  C_37
REMARK   12  A    between atoms: C_38  and  C_41
REMARK   13  A    between atoms: C_41  and  C_44
REMARK                            x       y       z     vdW  Elec       q    Type
REMARK                         _______ _______ _______ _____ _____    ______ ____
ROOT
ATOM      1  O   UNL     1     105.765 129.859 141.792  0.00  0.00    +0.000 OA
ATOM      2  O   UNL     1     107.399 128.412 142.959  0.00  0.00    +0.000 OA
ATOM      3  O   UNL     1     107.749 130.001 142.689  0.00  0.00    +0.000 OA
ATOM      4  C   UNL     1     106.134 128.581 142.316  0.00  0.00    +0.000 C 
ATOM      5  C   UNL     1     106.854 128.894 142.570  0.00  0.00    +0.000 C 
ATOM      6  C   UNL     1     107.030 129.689 142.435  0.00  0.00    +0.000 C 
ATOM      7  C   UNL     1     105.590 129.064 141.927  0.00  0.00    +0.000 C 
ATOM      8  C   UNL     1     106.485 130.171 142.046  0.00  0.00    +0.000 C 
ENDROOT
BRANCH   8  10
ATOM      9  O   UNL     1     106.670 131.260 141.140  0.00  0.00    +0.000 OA
ATOM     10  C   UNL     1     106.660 130.966 141.911  0.00  0.00    +0.000 C 
ENDBRANCH   8  10
BRANCH   4  11
ATOM     11  O   UNL     1     105.959 127.787 142.451  0.00  0.00    +0.000 OA
BRANCH  11  17
ATOM     12  O   UNL     1     106.941 127.270 141.487  0.00  0.00    +0.000 OA
ATOM     13  O   UNL     1     106.710 125.483 140.771  0.00  0.00    +0.000 OA
ATOM     14  O   UNL     1     105.245 126.165 142.165  0.00  0.00    +0.000 OA
ATOM     15  C   UNL     1     106.410 126.063 141.274  0.00  0.00    +0.000 C 
ATOM     16  C   UNL     1     105.931 126.462 141.816  0.00  0.00    +0.000 C 
ATOM     17  C   UNL     1     106.259 127.206 141.948  0.00  0.00    +0.000 C 
ATOM     18  C   UNL     1     107.034 126.563 141.071  0.00  0.00    +0.000 C 
BRANCH  15  19
ATOM     19  C   UNL     1     105.909 125.409 141.312  0.00  0.00    +0.000 C 
BRANCH  19  20
ATOM     20  O   UNL     1     105.936 124.835 140.720  0.00  0.00    +0.000 OA
BRANCH  20  22
ATOM     21  O   UNL     1     105.315 123.667 141.260  0.00  0.00    +0.000 OA
ATOM     22  C   UNL     1     105.351 124.255 140.683  0.00  0.00    +0.000 C 
BRANCH  22  23
ATOM     23  C   UNL     1     104.802 124.262 140.066  0.00  0.00    +0.000 C 
ATOM     24  C   UNL     1     104.525 123.551 139.753  0.00  0.00    +0.000 C 
BRANCH  24  26
ATOM     25  O   UNL     1     102.330 123.578 137.290  0.00  0.00    +0.000 OA
ATOM     26  C   UNL     1     103.976 123.558 139.137  0.00  0.00    +0.000 A 
ATOM     27  C   UNL     1     104.234 123.540 138.353  0.00  0.00    +0.000 A 
ATOM     28  C   UNL     1     103.169 123.583 139.305  0.00  0.00    +0.000 A 
ATOM     29  C   UNL     1     103.685 123.546 137.738  0.00  0.00    +0.000 A 
ATOM     30  C   UNL     1     102.619 123.589 138.688  0.00  0.00    +0.000 A 
ATOM     31  C   UNL     1     102.878 123.571 137.905  0.00  0.00    +0.000 A 
ENDBRANCH  24  26
ENDBRANCH  22  23
ENDBRANCH  20  22
ENDBRANCH  19  20
ENDBRANCH  15  19
ENDBRANCH  11  17
ENDBRANCH   4  11
BRANCH   7  32
ATOM     32  O   UNL     1     104.869 128.752 141.673  0.00  0.00    +0.000 OA
BRANCH  32  33
ATOM     33  C   UNL     1     104.186 129.214 141.701  0.00  0.00    +0.000 A 
ATOM     34  C   UNL     1     103.868 129.434 142.430  0.00  0.00    +0.000 A 
ATOM     35  C   UNL     1     103.823 129.455 141.002  0.00  0.00    +0.000 A 
ATOM     36  C   UNL     1     103.185 129.896 142.458  0.00  0.00    +0.000 A 
ATOM     37  C   UNL     1     103.140 129.917 141.030  0.00  0.00    +0.000 A 
ATOM     38  C   UNL     1     102.820 130.138 141.757  0.00  0.00    +0.000 A 
BRANCH  38  39
ATOM     39  C   UNL     1     102.137 130.599 141.785  0.00  0.00    +0.000 C 
ATOM     40  C   UNL     1     102.194 131.410 141.927  0.00  0.00    +0.000 C 
BRANCH  40  42
ATOM     41  O   UNL     1     100.769 131.517 141.884  0.00  0.00    +0.000 OA
ATOM     42  C   UNL     1     101.511 131.872 141.955  0.00  0.00    +0.000 C 
BRANCH  42  45
ATOM     43  O   UNL     1     100.957 132.576 143.341  0.00  0.00    +0.000 OA
ATOM     44  O   UNL     1     101.740 135.140 142.352  0.00  0.00    +0.000 OA
ATOM     45  C   UNL     1     101.569 132.689 142.054  0.00  0.00    +0.000 A 
ATOM     46  C   UNL     1     101.291 133.041 142.747  0.00  0.00    +0.000 A 
ATOM     47  C   UNL     1     101.903 133.155 141.460  0.00  0.00    +0.000 A 
ATOM     48  C   UNL     1     101.349 133.858 142.846  0.00  0.00    +0.000 A 
ATOM     49  C   UNL     1     101.960 133.972 141.560  0.00  0.00    +0.000 A 
ATOM     50  C   UNL     1     101.683 134.323 142.252  0.00  0.00    +0.000 A 
ENDBRANCH  42  45
ENDBRANCH  40  42
ENDBRANCH  38  39
ENDBRANCH  32  33
ENDBRANCH   7  32
TORSDOF 13
ENDMDL
MODEL 9
REMARK VINA RESULT:      -9.6      5.221      9.054
REMARK  Name = 101938904
REMARK  13 active torsions:
REMARK  status: ('A' for Active; 'I' for Inactive)
REMARK    1  A    between atoms: O_1  and  C_17
REMARK    2  A    between atoms: O_1  and  C_19
REMARK    3  A    between atoms: O_7  and  C_22
REMARK    4  A    between atoms: O_7  and  C_27
REMARK    5  A    between atoms: O_9  and  C_25
REMARK    6  A    between atoms: O_9  and  C_28
REMARK    7  A    between atoms: C_16  and  C_25
REMARK    8  A    between atoms: C_24  and  C_26
REMARK    9  A    between atoms: C_28  and  C_33
REMARK   10  A    between atoms: C_34  and  C_36
REMARK   11  A    between atoms: C_35  and  C_37
REMARK   12  A    between atoms: C_38  and  C_41
REMARK   13  A    between atoms: C_41  and  C_44
REMARK                            x       y       z     vdW  Elec       q    Type
REMARK                         _______ _______ _______ _____ _____    ______ ____
ROOT
ATOM      1  O   UNL     1     109.088 128.716 143.115  0.00  0.00    +0.000 OA
ATOM      2  O   UNL     1     107.601 128.003 141.270  0.00  0.00    +0.000 OA
ATOM      3  O   UNL     1     106.964 128.382 142.742  0.00  0.00    +0.000 OA
ATOM      4  C   UNL     1     108.911 128.288 141.763  0.00  0.00    +0.000 C 
ATOM      5  C   UNL     1     108.097 128.240 141.885  0.00  0.00    +0.000 C 
ATOM      6  C   UNL     1     107.778 128.430 142.621  0.00  0.00    +0.000 C 
ATOM      7  C   UNL     1     109.407 128.526 142.378  0.00  0.00    +0.000 C 
ATOM      8  C   UNL     1     108.273 128.668 143.236  0.00  0.00    +0.000 C 
ENDROOT
BRANCH   8  10
ATOM      9  O   UNL     1     108.181 128.430 144.642  0.00  0.00    +0.000 OA
ATOM     10  C   UNL     1     107.955 128.857 143.973  0.00  0.00    +0.000 C 
ENDBRANCH   8  10
BRANCH   4  11
ATOM     11  O   UNL     1     109.230 128.098 141.027  0.00  0.00    +0.000 OA
BRANCH  11  17
ATOM     12  O   UNL     1     109.287 126.662 141.334  0.00  0.00    +0.000 OA
ATOM     13  O   UNL     1     109.970 125.436 139.997  0.00  0.00    +0.000 OA
ATOM     14  O   UNL     1     109.917 127.506 139.478  0.00  0.00    +0.000 OA
ATOM     15  C   UNL     1     109.798 126.221 140.182  0.00  0.00    +0.000 C 
ATOM     16  C   UNL     1     109.717 127.041 140.129  0.00  0.00    +0.000 C 
ATOM     17  C   UNL     1     109.402 127.313 140.840  0.00  0.00    +0.000 C 
ATOM     18  C   UNL     1     109.533 125.988 140.927  0.00  0.00    +0.000 C 
BRANCH  15  19
ATOM     19  C   UNL     1     110.104 126.201 139.416  0.00  0.00    +0.000 C 
BRANCH  19  20
ATOM     20  O   UNL     1     110.509 125.533 139.152  0.00  0.00    +0.000 OA
BRANCH  20  22
ATOM     21  O   UNL     1     110.357 125.670 137.737  0.00  0.00    +0.000 OA
ATOM     22  C   UNL     1     110.834 125.522 138.394  0.00  0.00    +0.000 C 
BRANCH  22  23
ATOM     23  C   UNL     1     111.638 125.363 138.292  0.00  0.00    +0.000 C 
ATOM     24  C   UNL     1     111.947 125.273 137.532  0.00  0.00    +0.000 C 
BRANCH  24  26
ATOM     25  O   UNL     1     115.159 124.637 137.124  0.00  0.00    +0.000 OA
ATOM     26  C   UNL     1     112.751 125.114 137.430  0.00  0.00    +0.000 A 
ATOM     27  C   UNL     1     113.316 125.636 137.728  0.00  0.00    +0.000 A 
ATOM     28  C   UNL     1     112.988 124.433 137.031  0.00  0.00    +0.000 A 
ATOM     29  C   UNL     1     114.118 125.477 137.626  0.00  0.00    +0.000 A 
ATOM     30  C   UNL     1     113.792 124.273 136.928  0.00  0.00    +0.000 A 
ATOM     31  C   UNL     1     114.357 124.796 137.226  0.00  0.00    +0.000 A 
ENDBRANCH  24  26
ENDBRANCH  22  23
ENDBRANCH  20  22
ENDBRANCH  19  20
ENDBRANCH  15  19
ENDBRANCH  11  17
ENDBRANCH   4  11
BRANCH   7  32
ATOM     32  O   UNL     1     110.221 128.574 142.257  0.00  0.00    +0.000 OA
BRANCH  32  33
ATOM     33  C   UNL     1     110.648 129.208 142.567  0.00  0.00    +0.000 A 
ATOM     34  C   UNL     1     110.581 129.956 142.226  0.00  0.00    +0.000 A 
ATOM     35  C   UNL     1     111.141 129.094 143.218  0.00  0.00    +0.000 A 
ATOM     36  C   UNL     1     111.008 130.590 142.536  0.00  0.00    +0.000 A 
ATOM     37  C   UNL     1     111.568 129.728 143.528  0.00  0.00    +0.000 A 
ATOM     38  C   UNL     1     111.502 130.476 143.188  0.00  0.00    +0.000 A 
BRANCH  38  39
ATOM     39  C   UNL     1     111.929 131.111 143.498  0.00  0.00    +0.000 C 
ATOM     40  C   UNL     1     111.595 131.583 144.087  0.00  0.00    +0.000 C 
BRANCH  40  42
ATOM     41  O   UNL     1     112.710 132.476 144.021  0.00  0.00    +0.000 OA
ATOM     42  C   UNL     1     112.022 132.217 144.397  0.00  0.00    +0.000 C 
BRANCH  42  45
ATOM     43  O   UNL     1     111.231 133.662 144.294  0.00  0.00    +0.000 OA
ATOM     44  O   UNL     1     110.980 133.727 147.140  0.00  0.00    +0.000 OA
ATOM     45  C   UNL     1     111.762 132.594 145.083  0.00  0.00    +0.000 A 
ATOM     46  C   UNL     1     111.366 133.317 145.031  0.00  0.00    +0.000 A 
ATOM     47  C   UNL     1     111.897 132.249 145.820  0.00  0.00    +0.000 A 
ATOM     48  C   UNL     1     111.106 133.694 145.718  0.00  0.00    +0.000 A 
ATOM     49  C   UNL     1     111.636 132.627 146.506  0.00  0.00    +0.000 A 
ATOM     50  C   UNL     1     111.241 133.349 146.455  0.00  0.00    +0.000 A 
ENDBRANCH  42  45
ENDBRANCH  40  42
ENDBRANCH  38  39
ENDBRANCH  32  33
ENDBRANCH   7  32
TORSDOF 13
ENDMDL
MODEL 10
REMARK VINA RESULT:      -9.6      4.821      7.501
REMARK  Name = 101938904
REMARK  13 active torsions:
REMARK  status: ('A' for Active; 'I' for Inactive)
REMARK    1  A    between atoms: O_1  and  C_17
REMARK    2  A    between atoms: O_1  and  C_19
REMARK    3  A    between atoms: O_7  and  C_22
REMARK    4  A    between atoms: O_7  and  C_27
REMARK    5  A    between atoms: O_9  and  C_25
REMARK    6  A    between atoms: O_9  and  C_28
REMARK    7  A    between atoms: C_16  and  C_25
REMARK    8  A    between atoms: C_24  and  C_26
REMARK    9  A    between atoms: C_28  and  C_33
REMARK   10  A    between atoms: C_34  and  C_36
REMARK   11  A    between atoms: C_35  and  C_37
REMARK   12  A    between atoms: C_38  and  C_41
REMARK   13  A    between atoms: C_41  and  C_44
REMARK                            x       y       z     vdW  Elec       q    Type
REMARK                         _______ _______ _______ _____ _____    ______ ____
ROOT
ATOM      1  O   UNL     1     109.314 127.795 142.168  0.00  0.00    +0.000 OA
ATOM      2  O   UNL     1     106.899 127.865 141.631  0.00  0.00    +0.000 OA
ATOM      3  O   UNL     1     107.556 129.005 142.625  0.00  0.00    +0.000 OA
ATOM      4  C   UNL     1     108.180 127.248 141.492  0.00  0.00    +0.000 C 
ATOM      5  C   UNL     1     107.704 127.842 141.810  0.00  0.00    +0.000 C 
ATOM      6  C   UNL     1     108.032 128.412 142.307  0.00  0.00    +0.000 C 
ATOM      7  C   UNL     1     108.985 127.224 141.671  0.00  0.00    +0.000 C 
ATOM      8  C   UNL     1     108.837 128.389 142.486  0.00  0.00    +0.000 C 
ENDROOT
BRANCH   8  10
ATOM      9  O   UNL     1     109.465 128.740 143.720  0.00  0.00    +0.000 OA
ATOM     10  C   UNL     1     109.166 128.959 142.983  0.00  0.00    +0.000 C 
ENDBRANCH   8  10
BRANCH   4  11
ATOM     11  O   UNL     1     107.852 126.677 140.995  0.00  0.00    +0.000 OA
BRANCH  11  17
ATOM     12  O   UNL     1     107.363 125.866 142.120  0.00  0.00    +0.000 OA
ATOM     13  O   UNL     1     106.362 124.248 141.751  0.00  0.00    +0.000 OA
ATOM     14  O   UNL     1     107.038 125.373 140.068  0.00  0.00    +0.000 OA
ATOM     15  C   UNL     1     106.758 124.896 141.430  0.00  0.00    +0.000 C 
ATOM     16  C   UNL     1     107.081 125.430 140.890  0.00  0.00    +0.000 C 
ATOM     17  C   UNL     1     107.455 126.029 141.315  0.00  0.00    +0.000 C 
ATOM     18  C   UNL     1     106.932 125.166 142.190  0.00  0.00    +0.000 C 
BRANCH  15  19
ATOM     19  C   UNL     1     106.470 124.439 140.807  0.00  0.00    +0.000 C 
BRANCH  19  20
ATOM     20  O   UNL     1     105.783 123.994 140.906  0.00  0.00    +0.000 OA
BRANCH  20  22
ATOM     21  O   UNL     1     106.043 122.908 140.013  0.00  0.00    +0.000 OA
ATOM     22  C   UNL     1     105.532 123.485 140.307  0.00  0.00    +0.000 C 
BRANCH  22  23
ATOM     23  C   UNL     1     104.768 123.552 140.001  0.00  0.00    +0.000 C 
ATOM     24  C   UNL     1     104.629 123.402 139.202  0.00  0.00    +0.000 C 
BRANCH  24  26
ATOM     25  O   UNL     1     101.576 123.673 137.981  0.00  0.00    +0.000 OA
ATOM     26  C   UNL     1     103.865 123.470 138.896  0.00  0.00    +0.000 A 
ATOM     27  C   UNL     1     103.213 123.410 139.398  0.00  0.00    +0.000 A 
ATOM     28  C   UNL     1     103.754 123.598 138.089  0.00  0.00    +0.000 A 
ATOM     29  C   UNL     1     102.450 123.478 139.093  0.00  0.00    +0.000 A 
ATOM     30  C   UNL     1     102.990 123.665 137.783  0.00  0.00    +0.000 A 
ATOM     31  C   UNL     1     102.338 123.605 138.285  0.00  0.00    +0.000 A 
ENDBRANCH  24  26
ENDBRANCH  22  23
ENDBRANCH  20  22
ENDBRANCH  19  20
ENDBRANCH  15  19
ENDBRANCH  11  17
ENDBRANCH   4  11
BRANCH   7  32
ATOM     32  O   UNL     1     109.462 126.631 141.353  0.00  0.00    +0.000 OA
BRANCH  32  33
ATOM     33  C   UNL     1     110.198 126.820 141.032  0.00  0.00    +0.000 A 
ATOM     34  C   UNL     1     110.244 127.186 140.294  0.00  0.00    +0.000 A 
ATOM     35  C   UNL     1     110.887 126.644 141.449  0.00  0.00    +0.000 A 
ATOM     36  C   UNL     1     110.980 127.376 139.973  0.00  0.00    +0.000 A 
ATOM     37  C   UNL     1     111.623 126.833 141.128  0.00  0.00    +0.000 A 
ATOM     38  C   UNL     1     111.670 127.199 140.391  0.00  0.00    +0.000 A 
BRANCH  38  39
ATOM     39  C   UNL     1     112.406 127.388 140.070  0.00  0.00    +0.000 C 
ATOM     40  C   UNL     1     112.703 128.154 140.143  0.00  0.00    +0.000 C 
BRANCH  40  42
ATOM     41  O   UNL     1     113.843 127.790 139.361  0.00  0.00    +0.000 OA
ATOM     42  C   UNL     1     113.439 128.344 139.822  0.00  0.00    +0.000 C 
BRANCH  42  45
ATOM     43  O   UNL     1     113.526 129.449 138.600  0.00  0.00    +0.000 OA
ATOM     44  O   UNL     1     114.770 131.313 140.375  0.00  0.00    +0.000 OA
ATOM     45  C   UNL     1     113.772 129.086 139.961  0.00  0.00    +0.000 A 
ATOM     46  C   UNL     1     113.815 129.639 139.349  0.00  0.00    +0.000 A 
ATOM     47  C   UNL     1     114.060 129.275 140.710  0.00  0.00    +0.000 A 
ATOM     48  C   UNL     1     114.148 130.381 139.488  0.00  0.00    +0.000 A 
ATOM     49  C   UNL     1     114.393 130.018 140.848  0.00  0.00    +0.000 A 
ATOM     50  C   UNL     1     114.437 130.570 140.237  0.00  0.00    +0.000 A 
ENDBRANCH  42  45
ENDBRANCH  40  42
ENDBRANCH  38  39
ENDBRANCH  32  33
ENDBRANCH   7  32
TORSDOF 13
ENDMDL
