MODEL 1
REMARK VINA RESULT:     -10.8      0.000      0.000
REMARK  Name = 44259209
REMARK  12 active torsions:
REMARK  status: ('A' for Active; 'I' for Inactive)
REMARK    1  A    between atoms: O_1  and  C_23
REMARK    2  A    between atoms: O_1  and  C_25
REMARK    3  A    between atoms: O_4  and  C_30
REMARK    4  A    between atoms: O_4  and  C_39
REMARK    5  A    between atoms: O_5  and  C_27
REMARK    6  A    between atoms: O_5  and  C_41
REMARK    7  A    between atoms: O_13  and  C_40
REMARK    8  A    between atoms: O_13  and  C_48
REMARK    9  A    between atoms: C_31  and  C_33
REMARK   10  A    between atoms: C_32  and  C_34
REMARK   11  A    between atoms: C_41  and  C_47
REMARK   12  A    between atoms: C_42  and  C_50
REMARK                            x       y       z     vdW  Elec       q    Type
REMARK                         _______ _______ _______ _____ _____    ______ ____
ROOT
ATOM      1  O   UNL     1     110.775 128.205 140.802  0.00  0.00    +0.000 OA
ENDROOT
BRANCH   1   5
ATOM      2  O   UNL     1     111.171 130.222 141.539  0.00  0.00    +0.000 OA
ATOM      3  O   UNL     1     111.154 127.893 142.377  0.00  0.00    +0.000 OA
ATOM      4  O   UNL     1     111.541 128.334 143.695  0.00  0.00    +0.000 OA
ATOM      5  C   UNL     1     110.970 128.825 141.310  0.00  0.00    +0.000 A 
ATOM      6  C   UNL     1     110.976 129.602 141.031  0.00  0.00    +0.000 A 
ATOM      7  C   UNL     1     111.159 128.669 142.098  0.00  0.00    +0.000 A 
ATOM      8  C   UNL     1     111.354 129.289 142.606  0.00  0.00    +0.000 A 
ATOM      9  C   UNL     1     111.360 130.065 142.327  0.00  0.00    +0.000 A 
ATOM     10  C   UNL     1     111.759 130.564 143.667  0.00  0.00    +0.000 A 
ATOM     11  C   UNL     1     111.561 130.720 142.846  0.00  0.00    +0.000 A 
ATOM     12  C   UNL     1     111.549 129.114 143.424  0.00  0.00    +0.000 A 
ATOM     13  C   UNL     1     111.753 129.755 143.959  0.00  0.00    +0.000 A 
BRANCH   6  16
ATOM     14  O   UNL     1     109.065 130.382 139.053  0.00  0.00    +0.000 OA
ATOM     15  O   UNL     1     110.216 130.225 137.880  0.00  0.00    +0.000 OA
ATOM     16  C   UNL     1     110.786 129.757 140.243  0.00  0.00    +0.000 A 
ATOM     17  C   UNL     1     110.021 129.992 140.042  0.00  0.00    +0.000 A 
ATOM     18  C   UNL     1     111.361 129.679 139.657  0.00  0.00    +0.000 A 
ATOM     19  C   UNL     1     109.831 130.147 139.254  0.00  0.00    +0.000 A 
ATOM     20  C   UNL     1     111.171 129.835 138.869  0.00  0.00    +0.000 A 
ATOM     21  C   UNL     1     110.406 130.069 138.668  0.00  0.00    +0.000 A 
ENDBRANCH   6  16
BRANCH  10  22
ATOM     22  O   UNL     1     111.954 131.186 144.173  0.00  0.00    +0.000 OA
BRANCH  22  31
ATOM     23  O   UNL     1     110.677 131.322 144.800  0.00  0.00    +0.000 OA
ATOM     24  O   UNL     1     110.938 133.783 144.797  0.00  0.00    +0.000 OA
ATOM     25  O   UNL     1     109.574 133.099 145.425  0.00  0.00    +0.000 OA
ATOM     26  O   UNL     1     112.127 132.826 144.171  0.00  0.00    +0.000 OA
ATOM     27  C   UNL     1     110.851 132.963 144.798  0.00  0.00    +0.000 C 
ATOM     28  C   UNL     1     110.169 132.621 145.112  0.00  0.00    +0.000 C 
ATOM     29  C   UNL     1     111.445 132.484 144.485  0.00  0.00    +0.000 C 
ATOM     30  C   UNL     1     110.081 131.800 145.113  0.00  0.00    +0.000 C 
ATOM     31  C   UNL     1     111.359 131.664 144.486  0.00  0.00    +0.000 C 
ATOM     32  C   UNL     1     109.400 131.458 145.428  0.00  0.00    +0.000 C 
ENDBRANCH  22  31
ENDBRANCH  10  22
ENDBRANCH   1   5
BRANCH   1  39
ATOM     33  O   UNL     1     109.484 127.950 141.359  0.00  0.00    +0.000 OA
ATOM     34  O   UNL     1     109.776 125.530 140.930  0.00  0.00    +0.000 OA
ATOM     35  O   UNL     1     108.387 126.083 141.629  0.00  0.00    +0.000 OA
ATOM     36  C   UNL     1     110.276 126.868 140.866  0.00  0.00    +0.000 C 
ATOM     37  C   UNL     1     109.678 126.337 141.073  0.00  0.00    +0.000 C 
ATOM     38  C   UNL     1     108.984 126.614 141.422  0.00  0.00    +0.000 C 
ATOM     39  C   UNL     1     110.178 127.675 141.009  0.00  0.00    +0.000 C 
ATOM     40  C   UNL     1     108.887 127.420 141.565  0.00  0.00    +0.000 C 
BRANCH  40  42
ATOM     41  O   UNL     1     107.688 128.194 141.495  0.00  0.00    +0.000 OA
ATOM     42  C   UNL     1     108.192 127.696 141.915  0.00  0.00    +0.000 C 
ENDBRANCH  40  42
BRANCH  36  43
ATOM     43  O   UNL     1     110.970 126.592 140.516  0.00  0.00    +0.000 OA
BRANCH  43  47
ATOM     44  O   UNL     1     110.292 126.467 139.265  0.00  0.00    +0.000 OA
ATOM     45  O   UNL     1     112.350 126.008 139.826  0.00  0.00    +0.000 OA
ATOM     46  O   UNL     1     110.993 125.758 137.323  0.00  0.00    +0.000 OA
ATOM     47  C   UNL     1     110.976 126.383 139.718  0.00  0.00    +0.000 C 
ATOM     48  C   UNL     1     111.666 126.091 139.374  0.00  0.00    +0.000 C 
ATOM     49  C   UNL     1     111.672 125.883 138.575  0.00  0.00    +0.000 C 
ATOM     50  C   UNL     1     110.987 125.967 138.122  0.00  0.00    +0.000 C 
ATOM     51  C   UNL     1     110.298 126.259 138.467  0.00  0.00    +0.000 C 
BRANCH  51  53
ATOM     52  O   UNL     1     109.333 127.095 137.823  0.00  0.00    +0.000 OA
ATOM     53  C   UNL     1     109.613 126.342 138.013  0.00  0.00    +0.000 C 
ENDBRANCH  51  53
BRANCH  49  54
ATOM     54  O   UNL     1     112.362 125.591 138.230  0.00  0.00    +0.000 OA
BRANCH  54  56
ATOM     55  O   UNL     1     112.858 126.921 138.075  0.00  0.00    +0.000 OA
ATOM     56  C   UNL     1     112.928 126.112 137.933  0.00  0.00    +0.000 C 
BRANCH  56  57
ATOM     57  C   UNL     1     113.564 125.824 137.494  0.00  0.00    +0.000 A 
ATOM     58  C   UNL     1     113.761 126.172 136.773  0.00  0.00    +0.000 A 
ATOM     59  C   UNL     1     114.004 125.186 137.777  0.00  0.00    +0.000 A 
ATOM     60  C   UNL     1     114.397 125.883 136.334  0.00  0.00    +0.000 A 
ATOM     61  C   UNL     1     114.640 124.896 137.339  0.00  0.00    +0.000 A 
ATOM     62  C   UNL     1     114.837 125.245 136.617  0.00  0.00    +0.000 A 
ENDBRANCH  56  57
ENDBRANCH  54  56
ENDBRANCH  49  54
ENDBRANCH  43  47
ENDBRANCH  36  43
ENDBRANCH   1  39
TORSDOF 12
ENDMDL
MODEL 2
REMARK VINA RESULT:     -10.8      2.269      3.781
REMARK  Name = 44259209
REMARK  12 active torsions:
REMARK  status: ('A' for Active; 'I' for Inactive)
REMARK    1  A    between atoms: O_1  and  C_23
REMARK    2  A    between atoms: O_1  and  C_25
REMARK    3  A    between atoms: O_4  and  C_30
REMARK    4  A    between atoms: O_4  and  C_39
REMARK    5  A    between atoms: O_5  and  C_27
REMARK    6  A    between atoms: O_5  and  C_41
REMARK    7  A    between atoms: O_13  and  C_40
REMARK    8  A    between atoms: O_13  and  C_48
REMARK    9  A    between atoms: C_31  and  C_33
REMARK   10  A    between atoms: C_32  and  C_34
REMARK   11  A    between atoms: C_41  and  C_47
REMARK   12  A    between atoms: C_42  and  C_50
REMARK                            x       y       z     vdW  Elec       q    Type
REMARK                         _______ _______ _______ _____ _____    ______ ____
ROOT
ATOM      1  O   UNL     1     110.141 129.592 137.903  0.00  0.00    +0.000 OA
ENDROOT
BRANCH   1   5
ATOM      2  O   UNL     1     110.828 130.638 139.692  0.00  0.00    +0.000 OA
ATOM      3  O   UNL     1     108.800 129.487 138.860  0.00  0.00    +0.000 OA
ATOM      4  O   UNL     1     108.106 129.755 140.096  0.00  0.00    +0.000 OA
ATOM      5  C   UNL     1     110.146 129.923 138.659  0.00  0.00    +0.000 A 
ATOM      6  C   UNL     1     110.822 130.307 138.937  0.00  0.00    +0.000 A 
ATOM      7  C   UNL     1     109.477 129.871 139.138  0.00  0.00    +0.000 A 
ATOM      8  C   UNL     1     109.482 130.202 139.893  0.00  0.00    +0.000 A 
ATOM      9  C   UNL     1     110.157 130.586 140.170  0.00  0.00    +0.000 A 
ATOM     10  C   UNL     1     109.481 130.883 141.459  0.00  0.00    +0.000 A 
ATOM     11  C   UNL     1     110.176 130.935 140.956  0.00  0.00    +0.000 A 
ATOM     12  C   UNL     1     108.778 130.141 140.382  0.00  0.00    +0.000 A 
ATOM     13  C   UNL     1     108.777 130.484 141.170  0.00  0.00    +0.000 A 
BRANCH   6  16
ATOM     14  O   UNL     1     112.422 131.766 137.071  0.00  0.00    +0.000 OA
ATOM     15  O   UNL     1     113.501 130.518 137.021  0.00  0.00    +0.000 OA
ATOM     16  C   UNL     1     111.492 130.359 138.458  0.00  0.00    +0.000 A 
ATOM     17  C   UNL     1     111.622 131.037 138.004  0.00  0.00    +0.000 A 
ATOM     18  C   UNL     1     112.032 129.736 138.433  0.00  0.00    +0.000 A 
ATOM     19  C   UNL     1     112.292 131.089 137.525  0.00  0.00    +0.000 A 
ATOM     20  C   UNL     1     112.701 129.789 137.954  0.00  0.00    +0.000 A 
ATOM     21  C   UNL     1     112.831 130.465 137.500  0.00  0.00    +0.000 A 
ENDBRANCH   6  16
BRANCH  10  22
ATOM     22  O   UNL     1     109.490 131.215 142.214  0.00  0.00    +0.000 OA
BRANCH  22  31
ATOM     23  O   UNL     1     110.238 130.179 142.852  0.00  0.00    +0.000 OA
ATOM     24  O   UNL     1     108.854 130.431 144.888  0.00  0.00    +0.000 OA
ATOM     25  O   UNL     1     110.063 129.310 144.847  0.00  0.00    +0.000 OA
ATOM     26  O   UNL     1     108.567 131.384 143.571  0.00  0.00    +0.000 OA
ATOM     27  C   UNL     1     109.315 130.347 144.209  0.00  0.00    +0.000 C 
ATOM     28  C   UNL     1     109.920 129.786 144.189  0.00  0.00    +0.000 C 
ATOM     29  C   UNL     1     109.172 130.823 143.551  0.00  0.00    +0.000 C 
ATOM     30  C   UNL     1     110.382 129.702 143.510  0.00  0.00    +0.000 C 
ATOM     31  C   UNL     1     109.633 130.739 142.872  0.00  0.00    +0.000 C 
ATOM     32  C   UNL     1     110.987 129.141 143.490  0.00  0.00    +0.000 C 
ENDBRANCH  22  31
ENDBRANCH  10  22
ENDBRANCH   1   5
BRANCH   1  39
ATOM     33  O   UNL     1     109.331 130.599 137.292  0.00  0.00    +0.000 OA
ATOM     34  O   UNL     1     108.253 128.875 135.881  0.00  0.00    +0.000 OA
ATOM     35  O   UNL     1     107.803 130.457 135.741  0.00  0.00    +0.000 OA
ATOM     36  C   UNL     1     109.197 129.234 136.893  0.00  0.00    +0.000 C 
ATOM     37  C   UNL     1     108.612 129.450 136.352  0.00  0.00    +0.000 C 
ATOM     38  C   UNL     1     108.388 130.241 136.282  0.00  0.00    +0.000 C 
ATOM     39  C   UNL     1     109.557 129.808 137.363  0.00  0.00    +0.000 C 
ATOM     40  C   UNL     1     108.747 130.815 136.752  0.00  0.00    +0.000 C 
BRANCH  40  42
ATOM     41  O   UNL     1     109.076 132.175 136.460  0.00  0.00    +0.000 OA
ATOM     42  C   UNL     1     108.522 131.606 136.681  0.00  0.00    +0.000 C 
ENDBRANCH  40  42
BRANCH  36  43
ATOM     43  O   UNL     1     109.422 128.443 136.963  0.00  0.00    +0.000 OA
BRANCH  43  47
ATOM     44  O   UNL     1     110.225 128.565 135.788  0.00  0.00    +0.000 OA
ATOM     45  O   UNL     1     109.946 126.891 137.160  0.00  0.00    +0.000 OA
ATOM     46  O   UNL     1     111.554 127.135 134.810  0.00  0.00    +0.000 OA
ATOM     47  C   UNL     1     109.955 128.116 136.424  0.00  0.00    +0.000 C 
ATOM     48  C   UNL     1     110.217 127.340 136.524  0.00  0.00    +0.000 C 
ATOM     49  C   UNL     1     110.750 127.013 135.986  0.00  0.00    +0.000 C 
ATOM     50  C   UNL     1     111.021 127.462 135.348  0.00  0.00    +0.000 C 
ATOM     51  C   UNL     1     110.758 128.238 135.250  0.00  0.00    +0.000 C 
BRANCH  51  53
ATOM     52  O   UNL     1     111.570 129.297 134.737  0.00  0.00    +0.000 OA
ATOM     53  C   UNL     1     111.029 128.687 134.612  0.00  0.00    +0.000 C 
ENDBRANCH  51  53
BRANCH  49  54
ATOM     54  O   UNL     1     111.012 126.237 136.084  0.00  0.00    +0.000 OA
BRANCH  54  56
ATOM     55  O   UNL     1     111.981 126.678 137.036  0.00  0.00    +0.000 OA
ATOM     56  C   UNL     1     111.658 126.078 136.572  0.00  0.00    +0.000 C 
BRANCH  56  57
ATOM     57  C   UNL     1     111.981 125.319 136.594  0.00  0.00    +0.000 A 
ATOM     58  C   UNL     1     112.799 125.217 136.580  0.00  0.00    +0.000 A 
ATOM     59  C   UNL     1     111.484 124.661 136.631  0.00  0.00    +0.000 A 
ATOM     60  C   UNL     1     113.121 124.458 136.602  0.00  0.00    +0.000 A 
ATOM     61  C   UNL     1     111.805 123.902 136.654  0.00  0.00    +0.000 A 
ATOM     62  C   UNL     1     112.625 123.800 136.639  0.00  0.00    +0.000 A 
ENDBRANCH  56  57
ENDBRANCH  54  56
ENDBRANCH  49  54
ENDBRANCH  43  47
ENDBRANCH  36  43
ENDBRANCH   1  39
TORSDOF 12
ENDMDL
MODEL 3
REMARK VINA RESULT:     -10.7      0.934      2.504
REMARK  Name = 44259209
REMARK  12 active torsions:
REMARK  status: ('A' for Active; 'I' for Inactive)
REMARK    1  A    between atoms: O_1  and  C_23
REMARK    2  A    between atoms: O_1  and  C_25
REMARK    3  A    between atoms: O_4  and  C_30
REMARK    4  A    between atoms: O_4  and  C_39
REMARK    5  A    between atoms: O_5  and  C_27
REMARK    6  A    between atoms: O_5  and  C_41
REMARK    7  A    between atoms: O_13  and  C_40
REMARK    8  A    between atoms: O_13  and  C_48
REMARK    9  A    between atoms: C_31  and  C_33
REMARK   10  A    between atoms: C_32  and  C_34
REMARK   11  A    between atoms: C_41  and  C_47
REMARK   12  A    between atoms: C_42  and  C_50
REMARK                            x       y       z     vdW  Elec       q    Type
REMARK                         _______ _______ _______ _____ _____    ______ ____
ROOT
ATOM      1  O   UNL     1     110.923 128.878 140.395  0.00  0.00    +0.000 OA
ENDROOT
BRANCH   1   5
ATOM      2  O   UNL     1     110.983 128.845 142.577  0.00  0.00    +0.000 OA
ATOM      3  O   UNL     1     111.554 130.369 140.712  0.00  0.00    +0.000 OA
ATOM      4  O   UNL     1     112.006 131.379 141.637  0.00  0.00    +0.000 OA
ATOM      5  C   UNL     1     111.048 129.115 141.175  0.00  0.00    +0.000 A 
ATOM      6  C   UNL     1     110.857 128.607 141.797  0.00  0.00    +0.000 A 
ATOM      7  C   UNL     1     111.364 129.861 141.334  0.00  0.00    +0.000 A 
ATOM      8  C   UNL     1     111.489 130.098 142.114  0.00  0.00    +0.000 A 
ATOM      9  C   UNL     1     111.299 129.590 142.735  0.00  0.00    +0.000 A 
ATOM     10  C   UNL     1     111.753 130.601 143.724  0.00  0.00    +0.000 A 
ATOM     11  C   UNL     1     111.425 129.826 143.552  0.00  0.00    +0.000 A 
ATOM     12  C   UNL     1     111.819 130.877 142.266  0.00  0.00    +0.000 A 
ATOM     13  C   UNL     1     111.952 131.131 143.076  0.00  0.00    +0.000 A 
BRANCH   6  16
ATOM     14  O   UNL     1     111.231 125.853 141.132  0.00  0.00    +0.000 OA
ATOM     15  O   UNL     1     109.597 125.624 141.160  0.00  0.00    +0.000 OA
ATOM     16  C   UNL     1     110.542 127.862 141.638  0.00  0.00    +0.000 A 
ATOM     17  C   UNL     1     111.044 127.230 141.465  0.00  0.00    +0.000 A 
ATOM     18  C   UNL     1     109.725 127.748 141.651  0.00  0.00    +0.000 A 
ATOM     19  C   UNL     1     110.728 126.485 141.305  0.00  0.00    +0.000 A 
ATOM     20  C   UNL     1     109.410 127.002 141.492  0.00  0.00    +0.000 A 
ATOM     21  C   UNL     1     109.911 126.371 141.319  0.00  0.00    +0.000 A 
ENDBRANCH   6  16
BRANCH  10  22
ATOM     22  O   UNL     1     111.877 130.836 144.505  0.00  0.00    +0.000 OA
BRANCH  22  31
ATOM     23  O   UNL     1     110.530 131.187 144.825  0.00  0.00    +0.000 OA
ATOM     24  O   UNL     1     111.343 133.160 146.080  0.00  0.00    +0.000 OA
ATOM     25  O   UNL     1     109.724 132.854 145.983  0.00  0.00    +0.000 OA
ATOM     26  O   UNL     1     112.419 132.150 145.341  0.00  0.00    +0.000 OA
ATOM     27  C   UNL     1     111.072 132.502 145.662  0.00  0.00    +0.000 C 
ATOM     28  C   UNL     1     110.262 132.349 145.613  0.00  0.00    +0.000 C 
ATOM     29  C   UNL     1     111.610 131.998 145.292  0.00  0.00    +0.000 C 
ATOM     30  C   UNL     1     109.991 131.692 145.195  0.00  0.00    +0.000 C 
ATOM     31  C   UNL     1     111.339 131.340 144.874  0.00  0.00    +0.000 C 
ATOM     32  C   UNL     1     109.182 131.539 145.146  0.00  0.00    +0.000 C 
ENDBRANCH  22  31
ENDBRANCH  10  22
ENDBRANCH   1   5
BRANCH   1  39
ATOM     33  O   UNL     1     109.790 129.720 140.171  0.00  0.00    +0.000 OA
ATOM     34  O   UNL     1     110.466 130.001 137.807  0.00  0.00    +0.000 OA
ATOM     35  O   UNL     1     109.108 130.750 138.371  0.00  0.00    +0.000 OA
ATOM     36  C   UNL     1     110.694 129.439 139.101  0.00  0.00    +0.000 C 
ATOM     37  C   UNL     1     110.241 129.908 138.595  0.00  0.00    +0.000 C 
ATOM     38  C   UNL     1     109.562 130.282 138.878  0.00  0.00    +0.000 C 
ATOM     39  C   UNL     1     110.469 129.345 139.889  0.00  0.00    +0.000 C 
ATOM     40  C   UNL     1     109.337 130.188 139.666  0.00  0.00    +0.000 C 
BRANCH  40  42
ATOM     41  O   UNL     1     108.020 130.114 140.216  0.00  0.00    +0.000 OA
ATOM     42  C   UNL     1     108.658 130.563 139.947  0.00  0.00    +0.000 C 
ENDBRANCH  40  42
BRANCH  36  43
ATOM     43  O   UNL     1     111.373 129.065 138.818  0.00  0.00    +0.000 OA
BRANCH  43  47
ATOM     44  O   UNL     1     110.564 128.071 138.188  0.00  0.00    +0.000 OA
ATOM     45  O   UNL     1     112.729 128.341 138.220  0.00  0.00    +0.000 OA
ATOM     46  O   UNL     1     111.111 126.351 136.960  0.00  0.00    +0.000 OA
ATOM     47  C   UNL     1     111.308 128.387 138.354  0.00  0.00    +0.000 C 
ATOM     48  C   UNL     1     111.986 128.025 138.055  0.00  0.00    +0.000 C 
ATOM     49  C   UNL     1     111.921 127.346 137.590  0.00  0.00    +0.000 C 
ATOM     50  C   UNL     1     111.176 127.030 137.424  0.00  0.00    +0.000 C 
ATOM     51  C   UNL     1     110.499 127.392 137.724  0.00  0.00    +0.000 C 
BRANCH  51  53
ATOM     52  O   UNL     1     109.318 126.712 138.156  0.00  0.00    +0.000 OA
ATOM     53  C   UNL     1     109.754 127.075 137.558  0.00  0.00    +0.000 C 
ENDBRANCH  51  53
BRANCH  49  54
ATOM     54  O   UNL     1     112.598 126.984 137.290  0.00  0.00    +0.000 OA
BRANCH  54  56
ATOM     55  O   UNL     1     112.778 126.286 138.524  0.00  0.00    +0.000 OA
ATOM     56  C   UNL     1     112.999 126.420 137.741  0.00  0.00    +0.000 C 
BRANCH  56  57
ATOM     57  C   UNL     1     113.620 125.991 137.407  0.00  0.00    +0.000 A 
ATOM     58  C   UNL     1     113.921 126.207 136.671  0.00  0.00    +0.000 A 
ATOM     59  C   UNL     1     113.938 125.346 137.810  0.00  0.00    +0.000 A 
ATOM     60  C   UNL     1     114.542 125.778 136.337  0.00  0.00    +0.000 A 
ATOM     61  C   UNL     1     114.559 124.917 137.478  0.00  0.00    +0.000 A 
ATOM     62  C   UNL     1     114.861 125.133 136.740  0.00  0.00    +0.000 A 
ENDBRANCH  56  57
ENDBRANCH  54  56
ENDBRANCH  49  54
ENDBRANCH  43  47
ENDBRANCH  36  43
ENDBRANCH   1  39
TORSDOF 12
ENDMDL
MODEL 4
REMARK VINA RESULT:     -10.6      1.975      3.420
REMARK  Name = 44259209
REMARK  12 active torsions:
REMARK  status: ('A' for Active; 'I' for Inactive)
REMARK    1  A    between atoms: O_1  and  C_23
REMARK    2  A    between atoms: O_1  and  C_25
REMARK    3  A    between atoms: O_4  and  C_30
REMARK    4  A    between atoms: O_4  and  C_39
REMARK    5  A    between atoms: O_5  and  C_27
REMARK    6  A    between atoms: O_5  and  C_41
REMARK    7  A    between atoms: O_13  and  C_40
REMARK    8  A    between atoms: O_13  and  C_48
REMARK    9  A    between atoms: C_31  and  C_33
REMARK   10  A    between atoms: C_32  and  C_34
REMARK   11  A    between atoms: C_41  and  C_47
REMARK   12  A    between atoms: C_42  and  C_50
REMARK                            x       y       z     vdW  Elec       q    Type
REMARK                         _______ _______ _______ _____ _____    ______ ____
ROOT
ATOM      1  O   UNL     1     111.418 130.080 141.015  0.00  0.00    +0.000 OA
ENDROOT
BRANCH   1   5
ATOM      2  O   UNL     1     111.637 129.816 143.171  0.00  0.00    +0.000 OA
ATOM      3  O   UNL     1     111.509 131.650 141.513  0.00  0.00    +0.000 OA
ATOM      4  O   UNL     1     111.642 132.640 142.554  0.00  0.00    +0.000 OA
ATOM      5  C   UNL     1     111.506 130.254 141.816  0.00  0.00    +0.000 A 
ATOM      6  C   UNL     1     111.549 129.642 142.370  0.00  0.00    +0.000 A 
ATOM      7  C   UNL     1     111.552 131.039 142.066  0.00  0.00    +0.000 A 
ATOM      8  C   UNL     1     111.640 131.213 142.868  0.00  0.00    +0.000 A 
ATOM      9  C   UNL     1     111.682 130.602 143.420  0.00  0.00    +0.000 A 
ATOM     10  C   UNL     1     111.822 131.586 144.523  0.00  0.00    +0.000 A 
ATOM     11  C   UNL     1     111.774 130.770 144.258  0.00  0.00    +0.000 A 
ATOM     12  C   UNL     1     111.686 132.035 143.114  0.00  0.00    +0.000 A 
ATOM     13  C   UNL     1     111.777 132.223 143.947  0.00  0.00    +0.000 A 
BRANCH   6  16
ATOM     14  O   UNL     1     110.020 127.264 141.950  0.00  0.00    +0.000 OA
ATOM     15  O   UNL     1     111.364 126.502 141.372  0.00  0.00    +0.000 OA
ATOM     16  C   UNL     1     111.503 128.857 142.120  0.00  0.00    +0.000 A 
ATOM     17  C   UNL     1     110.784 128.453 142.160  0.00  0.00    +0.000 A 
ATOM     18  C   UNL     1     112.176 128.476 141.831  0.00  0.00    +0.000 A 
ATOM     19  C   UNL     1     110.739 127.668 141.910  0.00  0.00    +0.000 A 
ATOM     20  C   UNL     1     112.129 127.691 141.582  0.00  0.00    +0.000 A 
ATOM     21  C   UNL     1     111.411 127.287 141.621  0.00  0.00    +0.000 A 
ENDBRANCH   6  16
BRANCH  10  22
ATOM     22  O   UNL     1     111.910 131.757 145.326  0.00  0.00    +0.000 OA
BRANCH  22  31
ATOM     23  O   UNL     1     110.520 131.935 145.606  0.00  0.00    +0.000 OA
ATOM     24  O   UNL     1     111.074 133.741 147.205  0.00  0.00    +0.000 OA
ATOM     25  O   UNL     1     109.499 133.318 146.953  0.00  0.00    +0.000 OA
ATOM     26  O   UNL     1     112.279 132.961 146.391  0.00  0.00    +0.000 OA
ATOM     27  C   UNL     1     110.889 133.139 146.672  0.00  0.00    +0.000 C 
ATOM     28  C   UNL     1     110.102 132.927 146.546  0.00  0.00    +0.000 C 
ATOM     29  C   UNL     1     111.491 132.749 146.265  0.00  0.00    +0.000 C 
ATOM     30  C   UNL     1     109.917 132.325 146.013  0.00  0.00    +0.000 C 
ATOM     31  C   UNL     1     111.307 132.147 145.733  0.00  0.00    +0.000 C 
ATOM     32  C   UNL     1     109.129 132.113 145.887  0.00  0.00    +0.000 C 
ENDBRANCH  22  31
ENDBRANCH  10  22
ENDBRANCH   1   5
BRANCH   1  39
ATOM     33  O   UNL     1     110.037 130.435 140.926  0.00  0.00    +0.000 OA
ATOM     34  O   UNL     1     110.409 131.306 138.639  0.00  0.00    +0.000 OA
ATOM     35  O   UNL     1     108.903 131.371 139.312  0.00  0.00    +0.000 OA
ATOM     36  C   UNL     1     110.914 130.693 139.827  0.00  0.00    +0.000 C 
ATOM     37  C   UNL     1     110.285 131.016 139.401  0.00  0.00    +0.000 C 
ATOM     38  C   UNL     1     109.533 131.048 139.738  0.00  0.00    +0.000 C 
ATOM     39  C   UNL     1     110.790 130.402 140.590  0.00  0.00    +0.000 C 
ATOM     40  C   UNL     1     109.409 130.757 140.501  0.00  0.00    +0.000 C 
BRANCH  40  42
ATOM     41  O   UNL     1     108.257 130.094 141.026  0.00  0.00    +0.000 OA
ATOM     42  C   UNL     1     108.656 130.790 140.837  0.00  0.00    +0.000 C 
ENDBRANCH  40  42
BRANCH  36  43
ATOM     43  O   UNL     1     111.666 130.660 139.490  0.00  0.00    +0.000 OA
BRANCH  43  47
ATOM     44  O   UNL     1     111.344 129.436 138.829  0.00  0.00    +0.000 OA
ATOM     45  O   UNL     1     113.008 130.819 138.543  0.00  0.00    +0.000 OA
ATOM     46  O   UNL     1     112.362 128.370 137.219  0.00  0.00    +0.000 OA
ATOM     47  C   UNL     1     111.840 130.088 138.923  0.00  0.00    +0.000 C 
ATOM     48  C   UNL     1     112.511 130.168 138.449  0.00  0.00    +0.000 C 
ATOM     49  C   UNL     1     112.685 129.595 137.881  0.00  0.00    +0.000 C 
ATOM     50  C   UNL     1     112.188 128.942 137.787  0.00  0.00    +0.000 C 
ATOM     51  C   UNL     1     111.518 128.864 138.261  0.00  0.00    +0.000 C 
BRANCH  51  53
ATOM     52  O   UNL     1     110.302 128.294 137.770  0.00  0.00    +0.000 OA
ATOM     53  C   UNL     1     111.021 128.211 138.166  0.00  0.00    +0.000 C 
ENDBRANCH  51  53
BRANCH  49  54
ATOM     54  O   UNL     1     113.356 129.674 137.407  0.00  0.00    +0.000 OA
BRANCH  54  56
ATOM     55  O   UNL     1     112.610 130.459 136.476  0.00  0.00    +0.000 OA
ATOM     56  C   UNL     1     113.309 130.079 136.690  0.00  0.00    +0.000 C 
BRANCH  56  57
ATOM     57  C   UNL     1     113.963 130.102 136.187  0.00  0.00    +0.000 A 
ATOM     58  C   UNL     1     114.002 129.598 135.536  0.00  0.00    +0.000 A 
ATOM     59  C   UNL     1     114.579 130.631 136.337  0.00  0.00    +0.000 A 
ATOM     60  C   UNL     1     114.656 129.622 135.034  0.00  0.00    +0.000 A 
ATOM     61  C   UNL     1     115.233 130.656 135.835  0.00  0.00    +0.000 A 
ATOM     62  C   UNL     1     115.272 130.151 135.183  0.00  0.00    +0.000 A 
ENDBRANCH  56  57
ENDBRANCH  54  56
ENDBRANCH  49  54
ENDBRANCH  43  47
ENDBRANCH  36  43
ENDBRANCH   1  39
TORSDOF 12
ENDMDL
MODEL 5
REMARK VINA RESULT:     -10.4      2.609      4.301
REMARK  Name = 44259209
REMARK  12 active torsions:
REMARK  status: ('A' for Active; 'I' for Inactive)
REMARK    1  A    between atoms: O_1  and  C_23
REMARK    2  A    between atoms: O_1  and  C_25
REMARK    3  A    between atoms: O_4  and  C_30
REMARK    4  A    between atoms: O_4  and  C_39
REMARK    5  A    between atoms: O_5  and  C_27
REMARK    6  A    between atoms: O_5  and  C_41
REMARK    7  A    between atoms: O_13  and  C_40
REMARK    8  A    between atoms: O_13  and  C_48
REMARK    9  A    between atoms: C_31  and  C_33
REMARK   10  A    between atoms: C_32  and  C_34
REMARK   11  A    between atoms: C_41  and  C_47
REMARK   12  A    between atoms: C_42  and  C_50
REMARK                            x       y       z     vdW  Elec       q    Type
REMARK                         _______ _______ _______ _____ _____    ______ ____
ROOT
ATOM      1  O   UNL     1     110.931 129.865 137.920  0.00  0.00    +0.000 OA
ENDROOT
BRANCH   1   5
ATOM      2  O   UNL     1     108.998 129.817 138.935  0.00  0.00    +0.000 OA
ATOM      3  O   UNL     1     111.310 130.603 139.346  0.00  0.00    +0.000 OA
ATOM      4  O   UNL     1     110.941 131.093 140.652  0.00  0.00    +0.000 OA
ATOM      5  C   UNL     1     110.350 129.972 138.496  0.00  0.00    +0.000 A 
ATOM      6  C   UNL     1     109.579 129.710 138.359  0.00  0.00    +0.000 A 
ATOM      7  C   UNL     1     110.539 130.341 139.209  0.00  0.00    +0.000 A 
ATOM      8  C   UNL     1     109.958 130.448 139.785  0.00  0.00    +0.000 A 
ATOM      9  C   UNL     1     109.188 130.187 139.648  0.00  0.00    +0.000 A 
ATOM     10  C   UNL     1     108.765 130.676 140.985  0.00  0.00    +0.000 A 
ATOM     11  C   UNL     1     108.574 130.292 140.240  0.00  0.00    +0.000 A 
ATOM     12  C   UNL     1     110.168 130.834 140.524  0.00  0.00    +0.000 A 
ATOM     13  C   UNL     1     109.568 130.949 141.128  0.00  0.00    +0.000 A 
BRANCH   6  16
ATOM     14  O   UNL     1     108.458 129.830 135.733  0.00  0.00    +0.000 OA
ATOM     15  O   UNL     1     108.822 128.237 135.504  0.00  0.00    +0.000 OA
ATOM     16  C   UNL     1     109.390 129.342 137.646  0.00  0.00    +0.000 A 
ATOM     17  C   UNL     1     109.018 129.770 137.046  0.00  0.00    +0.000 A 
ATOM     18  C   UNL     1     109.572 128.545 137.531  0.00  0.00    +0.000 A 
ATOM     19  C   UNL     1     108.829 129.402 136.332  0.00  0.00    +0.000 A 
ATOM     20  C   UNL     1     109.383 128.178 136.817  0.00  0.00    +0.000 A 
ATOM     21  C   UNL     1     109.012 128.605 136.218  0.00  0.00    +0.000 A 
ENDBRANCH   6  16
BRANCH  10  22
ATOM     22  O   UNL     1     108.182 130.781 141.559  0.00  0.00    +0.000 OA
BRANCH  22  31
ATOM     23  O   UNL     1     108.183 129.444 142.064  0.00  0.00    +0.000 OA
ATOM     24  O   UNL     1     107.864 130.310 144.360  0.00  0.00    +0.000 OA
ATOM     25  O   UNL     1     107.970 128.685 144.099  0.00  0.00    +0.000 OA
ATOM     26  O   UNL     1     107.970 131.358 143.090  0.00  0.00    +0.000 OA
ATOM     27  C   UNL     1     107.970 130.021 143.595  0.00  0.00    +0.000 C 
ATOM     28  C   UNL     1     108.023 129.209 143.464  0.00  0.00    +0.000 C 
ATOM     29  C   UNL     1     108.023 130.545 142.960  0.00  0.00    +0.000 C 
ATOM     30  C   UNL     1     108.130 128.920 142.699  0.00  0.00    +0.000 C 
ATOM     31  C   UNL     1     108.129 130.257 142.194  0.00  0.00    +0.000 C 
ATOM     32  C   UNL     1     108.183 128.107 142.568  0.00  0.00    +0.000 C 
ENDBRANCH  22  31
ENDBRANCH  10  22
ENDBRANCH   1   5
BRANCH   1  39
ATOM     33  O   UNL     1     110.975 131.224 137.479  0.00  0.00    +0.000 OA
ATOM     34  O   UNL     1     113.417 131.032 137.131  0.00  0.00    +0.000 OA
ATOM     35  O   UNL     1     112.647 132.455 136.806  0.00  0.00    +0.000 OA
ATOM     36  C   UNL     1     112.174 130.448 137.526  0.00  0.00    +0.000 C 
ATOM     37  C   UNL     1     112.603 131.096 137.247  0.00  0.00    +0.000 C 
ATOM     38  C   UNL     1     112.217 131.807 137.085  0.00  0.00    +0.000 C 
ATOM     39  C   UNL     1     111.359 130.512 137.642  0.00  0.00    +0.000 C 
ATOM     40  C   UNL     1     111.403 131.871 137.201  0.00  0.00    +0.000 C 
BRANCH  40  42
ATOM     41  O   UNL     1     110.415 132.607 136.477  0.00  0.00    +0.000 OA
ATOM     42  C   UNL     1     111.018 132.583 137.038  0.00  0.00    +0.000 C 
ENDBRANCH  40  42
BRANCH  36  43
ATOM     43  O   UNL     1     112.559 129.737 137.688  0.00  0.00    +0.000 OA
BRANCH  43  47
ATOM     44  O   UNL     1     112.591 129.434 136.292  0.00  0.00    +0.000 OA
ATOM     45  O   UNL     1     113.287 128.294 138.018  0.00  0.00    +0.000 OA
ATOM     46  O   UNL     1     113.351 127.688 135.226  0.00  0.00    +0.000 OA
ATOM     47  C   UNL     1     112.757 129.225 137.072  0.00  0.00    +0.000 C 
ATOM     48  C   UNL     1     113.121 128.503 137.238  0.00  0.00    +0.000 C 
ATOM     49  C   UNL     1     113.319 127.991 136.622  0.00  0.00    +0.000 C 
ATOM     50  C   UNL     1     113.153 128.200 135.841  0.00  0.00    +0.000 C 
ATOM     51  C   UNL     1     112.789 128.922 135.677  0.00  0.00    +0.000 C 
BRANCH  51  53
ATOM     52  O   UNL     1     111.849 129.089 134.613  0.00  0.00    +0.000 OA
ATOM     53  C   UNL     1     112.623 129.131 134.896  0.00  0.00    +0.000 C 
ENDBRANCH  51  53
BRANCH  49  54
ATOM     54  O   UNL     1     113.683 127.269 136.787  0.00  0.00    +0.000 OA
BRANCH  54  56
ATOM     55  O   UNL     1     112.409 126.680 137.051  0.00  0.00    +0.000 OA
ATOM     56  C   UNL     1     113.224 126.605 136.959  0.00  0.00    +0.000 C 
BRANCH  56  57
ATOM     57  C   UNL     1     113.583 125.866 137.037  0.00  0.00    +0.000 A 
ATOM     58  C   UNL     1     114.297 125.795 137.443  0.00  0.00    +0.000 A 
ATOM     59  C   UNL     1     113.226 125.198 136.709  0.00  0.00    +0.000 A 
ATOM     60  C   UNL     1     114.655 125.055 137.522  0.00  0.00    +0.000 A 
ATOM     61  C   UNL     1     113.584 124.459 136.788  0.00  0.00    +0.000 A 
ATOM     62  C   UNL     1     114.299 124.388 137.194  0.00  0.00    +0.000 A 
ENDBRANCH  56  57
ENDBRANCH  54  56
ENDBRANCH  49  54
ENDBRANCH  43  47
ENDBRANCH  36  43
ENDBRANCH   1  39
TORSDOF 12
ENDMDL
MODEL 6
REMARK VINA RESULT:     -10.4      2.060      3.845
REMARK  Name = 44259209
REMARK  12 active torsions:
REMARK  status: ('A' for Active; 'I' for Inactive)
REMARK    1  A    between atoms: O_1  and  C_23
REMARK    2  A    between atoms: O_1  and  C_25
REMARK    3  A    between atoms: O_4  and  C_30
REMARK    4  A    between atoms: O_4  and  C_39
REMARK    5  A    between atoms: O_5  and  C_27
REMARK    6  A    between atoms: O_5  and  C_41
REMARK    7  A    between atoms: O_13  and  C_40
REMARK    8  A    between atoms: O_13  and  C_48
REMARK    9  A    between atoms: C_31  and  C_33
REMARK   10  A    between atoms: C_32  and  C_34
REMARK   11  A    between atoms: C_41  and  C_47
REMARK   12  A    between atoms: C_42  and  C_50
REMARK                            x       y       z     vdW  Elec       q    Type
REMARK                         _______ _______ _______ _____ _____    ______ ____
ROOT
ATOM      1  O   UNL     1     110.190 128.639 141.959  0.00  0.00    +0.000 OA
ENDROOT
BRANCH   1   5
ATOM      2  O   UNL     1     109.949 130.660 142.747  0.00  0.00    +0.000 OA
ATOM      3  O   UNL     1     110.905 128.484 143.438  0.00  0.00    +0.000 OA
ATOM      4  O   UNL     1     111.316 129.035 144.707  0.00  0.00    +0.000 OA
ATOM      5  C   UNL     1     110.229 129.286 142.469  0.00  0.00    +0.000 A 
ATOM      6  C   UNL     1     109.910 130.013 142.238  0.00  0.00    +0.000 A 
ATOM      7  C   UNL     1     110.586 129.210 143.208  0.00  0.00    +0.000 A 
ATOM      8  C   UNL     1     110.625 129.858 143.717  0.00  0.00    +0.000 A 
ATOM      9  C   UNL     1     110.307 130.582 143.487  0.00  0.00    +0.000 A 
ATOM     10  C   UNL     1     110.712 131.191 144.780  0.00  0.00    +0.000 A 
ATOM     11  C   UNL     1     110.341 131.266 144.008  0.00  0.00    +0.000 A 
ATOM     12  C   UNL     1     111.000 129.764 144.485  0.00  0.00    +0.000 A 
ATOM     13  C   UNL     1     111.044 130.435 145.020  0.00  0.00    +0.000 A 
BRANCH   6  16
ATOM     14  O   UNL     1     107.620 129.717 140.554  0.00  0.00    +0.000 OA
ATOM     15  O   UNL     1     108.479 130.319 139.280  0.00  0.00    +0.000 OA
ATOM     16  C   UNL     1     109.553 130.089 141.499  0.00  0.00    +0.000 A 
ATOM     17  C   UNL     1     108.765 129.865 141.396  0.00  0.00    +0.000 A 
ATOM     18  C   UNL     1     109.982 130.390 140.862  0.00  0.00    +0.000 A 
ATOM     19  C   UNL     1     108.408 129.941 140.657  0.00  0.00    +0.000 A 
ATOM     20  C   UNL     1     109.624 130.467 140.122  0.00  0.00    +0.000 A 
ATOM     21  C   UNL     1     108.837 130.242 140.020  0.00  0.00    +0.000 A 
ENDBRANCH   6  16
BRANCH  10  22
ATOM     22  O   UNL     1     110.749 131.841 145.287  0.00  0.00    +0.000 OA
BRANCH  22  31
ATOM     23  O   UNL     1     112.047 132.354 144.982  0.00  0.00    +0.000 OA
ATOM     24  O   UNL     1     111.104 134.636 144.807  0.00  0.00    +0.000 OA
ATOM     25  O   UNL     1     112.717 134.389 144.560  0.00  0.00    +0.000 OA
ATOM     26  O   UNL     1     110.121 133.362 145.170  0.00  0.00    +0.000 OA
ATOM     27  C   UNL     1     111.419 133.875 144.865  0.00  0.00    +0.000 C 
ATOM     28  C   UNL     1     112.225 133.752 144.742  0.00  0.00    +0.000 C 
ATOM     29  C   UNL     1     110.927 133.238 145.047  0.00  0.00    +0.000 C 
ATOM     30  C   UNL     1     112.540 132.991 144.800  0.00  0.00    +0.000 C 
ATOM     31  C   UNL     1     111.241 132.478 145.105  0.00  0.00    +0.000 C 
ATOM     32  C   UNL     1     113.346 132.868 144.677  0.00  0.00    +0.000 C 
ENDBRANCH  22  31
ENDBRANCH  10  22
ENDBRANCH   1   5
BRANCH   1  39
ATOM     33  O   UNL     1     111.579 128.644 141.624  0.00  0.00    +0.000 OA
ATOM     34  O   UNL     1     111.540 126.177 141.425  0.00  0.00    +0.000 OA
ATOM     35  O   UNL     1     112.942 127.004 141.156  0.00  0.00    +0.000 OA
ATOM     36  C   UNL     1     110.864 127.408 141.692  0.00  0.00    +0.000 C 
ATOM     37  C   UNL     1     111.553 126.999 141.491  0.00  0.00    +0.000 C 
ATOM     38  C   UNL     1     112.253 127.413 141.357  0.00  0.00    +0.000 C 
ATOM     39  C   UNL     1     110.877 128.230 141.759  0.00  0.00    +0.000 C 
ATOM     40  C   UNL     1     112.267 128.235 141.423  0.00  0.00    +0.000 C 
BRANCH  40  42
ATOM     41  O   UNL     1     113.009 129.206 140.682  0.00  0.00    +0.000 OA
ATOM     42  C   UNL     1     112.968 128.649 141.289  0.00  0.00    +0.000 C 
ENDBRANCH  40  42
BRANCH  36  43
ATOM     43  O   UNL     1     110.164 126.994 141.827  0.00  0.00    +0.000 OA
BRANCH  43  47
ATOM     44  O   UNL     1     109.994 126.811 140.420  0.00  0.00    +0.000 OA
ATOM     45  O   UNL     1     108.673 126.338 142.092  0.00  0.00    +0.000 OA
ATOM     46  O   UNL     1     108.335 125.971 139.278  0.00  0.00    +0.000 OA
ATOM     47  C   UNL     1     109.707 126.738 141.189  0.00  0.00    +0.000 C 
ATOM     48  C   UNL     1     108.961 126.410 141.323  0.00  0.00    +0.000 C 
ATOM     49  C   UNL     1     108.504 126.154 140.685  0.00  0.00    +0.000 C 
ATOM     50  C   UNL     1     108.792 126.226 139.915  0.00  0.00    +0.000 C 
ATOM     51  C   UNL     1     109.537 126.555 139.783  0.00  0.00    +0.000 C 
BRANCH  51  53
ATOM     52  O   UNL     1     109.831 127.364 138.642  0.00  0.00    +0.000 OA
ATOM     53  C   UNL     1     109.825 126.627 139.013  0.00  0.00    +0.000 C 
ENDBRANCH  51  53
BRANCH  49  54
ATOM     54  O   UNL     1     107.759 125.826 140.817  0.00  0.00    +0.000 OA
BRANCH  54  56
ATOM     55  O   UNL     1     108.363 124.570 141.131  0.00  0.00    +0.000 OA
ATOM     56  C   UNL     1     107.687 125.026 141.005  0.00  0.00    +0.000 C 
BRANCH  56  57
ATOM     57  C   UNL     1     106.939 124.682 141.067  0.00  0.00    +0.000 A 
ATOM     58  C   UNL     1     106.354 125.046 141.520  0.00  0.00    +0.000 A 
ATOM     59  C   UNL     1     106.777 123.975 140.676  0.00  0.00    +0.000 A 
ATOM     60  C   UNL     1     105.607 124.703 141.582  0.00  0.00    +0.000 A 
ATOM     61  C   UNL     1     106.030 123.630 140.737  0.00  0.00    +0.000 A 
ATOM     62  C   UNL     1     105.445 123.995 141.191  0.00  0.00    +0.000 A 
ENDBRANCH  56  57
ENDBRANCH  54  56
ENDBRANCH  49  54
ENDBRANCH  43  47
ENDBRANCH  36  43
ENDBRANCH   1  39
TORSDOF 12
ENDMDL
MODEL 7
REMARK VINA RESULT:     -10.3      2.318      4.919
REMARK  Name = 44259209
REMARK  12 active torsions:
REMARK  status: ('A' for Active; 'I' for Inactive)
REMARK    1  A    between atoms: O_1  and  C_23
REMARK    2  A    between atoms: O_1  and  C_25
REMARK    3  A    between atoms: O_4  and  C_30
REMARK    4  A    between atoms: O_4  and  C_39
REMARK    5  A    between atoms: O_5  and  C_27
REMARK    6  A    between atoms: O_5  and  C_41
REMARK    7  A    between atoms: O_13  and  C_40
REMARK    8  A    between atoms: O_13  and  C_48
REMARK    9  A    between atoms: C_31  and  C_33
REMARK   10  A    between atoms: C_32  and  C_34
REMARK   11  A    between atoms: C_41  and  C_47
REMARK   12  A    between atoms: C_42  and  C_50
REMARK                            x       y       z     vdW  Elec       q    Type
REMARK                         _______ _______ _______ _____ _____    ______ ____
ROOT
ATOM      1  O   UNL     1     110.007 128.747 140.350  0.00  0.00    +0.000 OA
ENDROOT
BRANCH   1   5
ATOM      2  O   UNL     1     109.338 127.662 142.122  0.00  0.00    +0.000 OA
ATOM      3  O   UNL     1     108.450 129.281 140.473  0.00  0.00    +0.000 OA
ATOM      4  O   UNL     1     107.168 129.293 141.133  0.00  0.00    +0.000 OA
ATOM      5  C   UNL     1     109.525 128.475 140.961  0.00  0.00    +0.000 A 
ATOM      6  C   UNL     1     109.821 127.935 141.511  0.00  0.00    +0.000 A 
ATOM      7  C   UNL     1     108.746 128.741 141.023  0.00  0.00    +0.000 A 
ATOM      8  C   UNL     1     108.264 128.468 141.634  0.00  0.00    +0.000 A 
ATOM      9  C   UNL     1     108.560 127.929 142.183  0.00  0.00    +0.000 A 
ATOM     10  C   UNL     1     107.256 127.911 142.894  0.00  0.00    +0.000 A 
ATOM     11  C   UNL     1     108.068 127.637 142.825  0.00  0.00    +0.000 A 
ATOM     12  C   UNL     1     107.455 128.754 141.687  0.00  0.00    +0.000 A 
ATOM     13  C   UNL     1     106.948 128.474 142.321  0.00  0.00    +0.000 A 
BRANCH   6  16
ATOM     14  O   UNL     1     111.741 126.147 140.377  0.00  0.00    +0.000 OA
ATOM     15  O   UNL     1     112.933 126.867 141.261  0.00  0.00    +0.000 OA
ATOM     16  C   UNL     1     110.599 127.668 141.449  0.00  0.00    +0.000 A 
ATOM     17  C   UNL     1     110.781 127.041 140.944  0.00  0.00    +0.000 A 
ATOM     18  C   UNL     1     111.195 128.029 141.891  0.00  0.00    +0.000 A 
ATOM     19  C   UNL     1     111.559 126.774 140.882  0.00  0.00    +0.000 A 
ATOM     20  C   UNL     1     111.973 127.761 141.828  0.00  0.00    +0.000 A 
ATOM     21  C   UNL     1     112.155 127.135 141.324  0.00  0.00    +0.000 A 
ENDBRANCH   6  16
BRANCH  10  22
ATOM     22  O   UNL     1     106.776 127.637 143.507  0.00  0.00    +0.000 OA
BRANCH  22  31
ATOM     23  O   UNL     1     106.222 126.538 142.782  0.00  0.00    +0.000 OA
ATOM     24  O   UNL     1     106.161 125.196 144.861  0.00  0.00    +0.000 OA
ATOM     25  O   UNL     1     105.627 124.544 143.442  0.00  0.00    +0.000 OA
ATOM     26  O   UNL     1     106.736 126.743 144.892  0.00  0.00    +0.000 OA
ATOM     27  C   UNL     1     106.182 125.643 144.167  0.00  0.00    +0.000 C 
ATOM     28  C   UNL     1     105.914 125.317 143.458  0.00  0.00    +0.000 C 
ATOM     29  C   UNL     1     106.469 126.417 144.183  0.00  0.00    +0.000 C 
ATOM     30  C   UNL     1     105.934 125.764 142.765  0.00  0.00    +0.000 C 
ATOM     31  C   UNL     1     106.489 126.864 143.491  0.00  0.00    +0.000 C 
ATOM     32  C   UNL     1     105.667 125.438 142.056  0.00  0.00    +0.000 C 
ENDBRANCH  22  31
ENDBRANCH  10  22
ENDBRANCH   1   5
BRANCH   1  39
ATOM     33  O   UNL     1     110.257 130.041 140.901  0.00  0.00    +0.000 OA
ATOM     34  O   UNL     1     110.209 131.020 138.628  0.00  0.00    +0.000 OA
ATOM     35  O   UNL     1     110.475 131.988 139.938  0.00  0.00    +0.000 OA
ATOM     36  C   UNL     1     110.108 129.883 139.489  0.00  0.00    +0.000 C 
ATOM     37  C   UNL     1     110.225 130.694 139.386  0.00  0.00    +0.000 C 
ATOM     38  C   UNL     1     110.358 131.177 140.041  0.00  0.00    +0.000 C 
ATOM     39  C   UNL     1     110.124 129.557 140.247  0.00  0.00    +0.000 C 
ATOM     40  C   UNL     1     110.374 130.851 140.799  0.00  0.00    +0.000 C 
BRANCH  40  42
ATOM     41  O   UNL     1     111.257 131.372 141.795  0.00  0.00    +0.000 OA
ATOM     42  C   UNL     1     110.507 131.336 141.453  0.00  0.00    +0.000 C 
ENDBRANCH  40  42
BRANCH  36  43
ATOM     43  O   UNL     1     109.975 129.399 138.834  0.00  0.00    +0.000 OA
BRANCH  43  47
ATOM     44  O   UNL     1     111.374 129.404 138.545  0.00  0.00    +0.000 OA
ATOM     45  O   UNL     1     109.706 128.442 137.517  0.00  0.00    +0.000 OA
ATOM     46  O   UNL     1     112.505 128.453 136.938  0.00  0.00    +0.000 OA
ATOM     47  C   UNL     1     110.608 129.163 138.360  0.00  0.00    +0.000 C 
ATOM     48  C   UNL     1     110.472 128.684 137.702  0.00  0.00    +0.000 C 
ATOM     49  C   UNL     1     111.105 128.448 137.228  0.00  0.00    +0.000 C 
ATOM     50  C   UNL     1     111.872 128.689 137.412  0.00  0.00    +0.000 C 
ATOM     51  C   UNL     1     112.006 129.168 138.071  0.00  0.00    +0.000 C 
BRANCH  51  53
ATOM     52  O   UNL     1     113.169 129.075 138.898  0.00  0.00    +0.000 OA
ATOM     53  C   UNL     1     112.774 129.410 138.256  0.00  0.00    +0.000 C 
ENDBRANCH  51  53
BRANCH  49  54
ATOM     54  O   UNL     1     110.971 127.969 136.569  0.00  0.00    +0.000 OA
BRANCH  54  56
ATOM     55  O   UNL     1     111.158 126.803 137.373  0.00  0.00    +0.000 OA
ATOM     56  C   UNL     1     110.962 127.148 136.650  0.00  0.00    +0.000 C 
BRANCH  56  57
ATOM     57  C   UNL     1     110.758 126.673 136.007  0.00  0.00    +0.000 A 
ATOM     58  C   UNL     1     110.636 127.012 135.265  0.00  0.00    +0.000 A 
ATOM     59  C   UNL     1     110.676 125.858 136.106  0.00  0.00    +0.000 A 
ATOM     60  C   UNL     1     110.432 126.537 134.622  0.00  0.00    +0.000 A 
ATOM     61  C   UNL     1     110.473 125.382 135.464  0.00  0.00    +0.000 A 
ATOM     62  C   UNL     1     110.350 125.722 134.721  0.00  0.00    +0.000 A 
ENDBRANCH  56  57
ENDBRANCH  54  56
ENDBRANCH  49  54
ENDBRANCH  43  47
ENDBRANCH  36  43
ENDBRANCH   1  39
TORSDOF 12
ENDMDL
MODEL 8
REMARK VINA RESULT:     -10.2      3.544      6.312
REMARK  Name = 44259209
REMARK  12 active torsions:
REMARK  status: ('A' for Active; 'I' for Inactive)
REMARK    1  A    between atoms: O_1  and  C_23
REMARK    2  A    between atoms: O_1  and  C_25
REMARK    3  A    between atoms: O_4  and  C_30
REMARK    4  A    between atoms: O_4  and  C_39
REMARK    5  A    between atoms: O_5  and  C_27
REMARK    6  A    between atoms: O_5  and  C_41
REMARK    7  A    between atoms: O_13  and  C_40
REMARK    8  A    between atoms: O_13  and  C_48
REMARK    9  A    between atoms: C_31  and  C_33
REMARK   10  A    between atoms: C_32  and  C_34
REMARK   11  A    between atoms: C_41  and  C_47
REMARK   12  A    between atoms: C_42  and  C_50
REMARK                            x       y       z     vdW  Elec       q    Type
REMARK                         _______ _______ _______ _____ _____    ______ ____
ROOT
ATOM      1  O   UNL     1     108.673 130.042 143.875  0.00  0.00    +0.000 OA
ENDROOT
BRANCH   1   5
ATOM      2  O   UNL     1     109.027 131.055 145.777  0.00  0.00    +0.000 OA
ATOM      3  O   UNL     1     109.702 131.242 143.402  0.00  0.00    +0.000 OA
ATOM      4  O   UNL     1     110.522 132.393 143.696  0.00  0.00    +0.000 OA
ATOM      5  C   UNL     1     108.963 130.580 144.430  0.00  0.00    +0.000 A 
ATOM      6  C   UNL     1     108.738 130.517 145.222  0.00  0.00    +0.000 A 
ATOM      7  C   UNL     1     109.477 131.180 144.194  0.00  0.00    +0.000 A 
ATOM      8  C   UNL     1     109.767 131.717 144.749  0.00  0.00    +0.000 A 
ATOM      9  C   UNL     1     109.542 131.655 145.540  0.00  0.00    +0.000 A 
ATOM     10  C   UNL     1     110.373 132.836 145.888  0.00  0.00    +0.000 A 
ATOM     11  C   UNL     1     109.836 132.209 146.128  0.00  0.00    +0.000 A 
ATOM     12  C   UNL     1     110.302 132.338 144.490  0.00  0.00    +0.000 A 
ATOM     13  C   UNL     1     110.607 132.901 145.063  0.00  0.00    +0.000 A 
BRANCH   6  16
ATOM     14  O   UNL     1     108.312 127.911 146.314  0.00  0.00    +0.000 OA
ATOM     15  O   UNL     1     106.681 128.115 146.166  0.00  0.00    +0.000 OA
ATOM     16  C   UNL     1     108.223 129.917 145.458  0.00  0.00    +0.000 A 
ATOM     17  C   UNL     1     108.525 129.214 145.768  0.00  0.00    +0.000 A 
ATOM     18  C   UNL     1     107.408 130.020 145.384  0.00  0.00    +0.000 A 
ATOM     19  C   UNL     1     108.010 128.614 146.004  0.00  0.00    +0.000 A 
ATOM     20  C   UNL     1     106.894 129.419 145.620  0.00  0.00    +0.000 A 
ATOM     21  C   UNL     1     107.195 128.716 145.930  0.00  0.00    +0.000 A 
ENDBRANCH   6  16
BRANCH  10  22
ATOM     22  O   UNL     1     110.661 133.372 146.444  0.00  0.00    +0.000 OA
BRANCH  22  31
ATOM     23  O   UNL     1     111.904 132.708 146.680  0.00  0.00    +0.000 OA
ATOM     24  O   UNL     1     111.796 133.349 149.067  0.00  0.00    +0.000 OA
ATOM     25  O   UNL     1     113.075 132.471 148.506  0.00  0.00    +0.000 OA
ATOM     26  O   UNL     1     110.589 133.799 148.036  0.00  0.00    +0.000 OA
ATOM     27  C   UNL     1     111.832 133.135 148.271  0.00  0.00    +0.000 C 
ATOM     28  C   UNL     1     112.472 132.696 147.991  0.00  0.00    +0.000 C 
ATOM     29  C   UNL     1     111.228 133.360 147.756  0.00  0.00    +0.000 C 
ATOM     30  C   UNL     1     112.508 132.482 147.195  0.00  0.00    +0.000 C 
ATOM     31  C   UNL     1     111.264 133.147 146.960  0.00  0.00    +0.000 C 
ATOM     32  C   UNL     1     113.148 132.043 146.914  0.00  0.00    +0.000 C 
ENDBRANCH  22  31
ENDBRANCH  10  22
ENDBRANCH   1   5
BRANCH   1  39
ATOM     33  O   UNL     1     109.944 129.433 143.639  0.00  0.00    +0.000 OA
ATOM     34  O   UNL     1     109.259 128.902 141.321  0.00  0.00    +0.000 OA
ATOM     35  O   UNL     1     110.758 128.469 141.858  0.00  0.00    +0.000 OA
ATOM     36  C   UNL     1     108.966 129.472 142.599  0.00  0.00    +0.000 C 
ATOM     37  C   UNL     1     109.487 129.079 142.094  0.00  0.00    +0.000 C 
ATOM     38  C   UNL     1     110.236 128.863 142.363  0.00  0.00    +0.000 C 
ATOM     39  C   UNL     1     109.194 129.649 143.371  0.00  0.00    +0.000 C 
ATOM     40  C   UNL     1     110.465 129.040 143.135  0.00  0.00    +0.000 C 
BRANCH  40  42
ATOM     41  O   UNL     1     111.295 128.392 144.101  0.00  0.00    +0.000 OA
ATOM     42  C   UNL     1     111.215 128.823 143.403  0.00  0.00    +0.000 C 
ENDBRANCH  40  42
BRANCH  36  43
ATOM     43  O   UNL     1     108.216 129.688 142.330  0.00  0.00    +0.000 OA
BRANCH  43  47
ATOM     44  O   UNL     1     107.789 128.329 142.426  0.00  0.00    +0.000 OA
ATOM     45  O   UNL     1     106.722 130.119 141.779  0.00  0.00    +0.000 OA
ATOM     46  O   UNL     1     105.867 127.399 141.971  0.00  0.00    +0.000 OA
ATOM     47  C   UNL     1     107.629 129.116 142.240  0.00  0.00    +0.000 C 
ATOM     48  C   UNL     1     106.882 129.332 141.964  0.00  0.00    +0.000 C 
ATOM     49  C   UNL     1     106.294 128.760 141.875  0.00  0.00    +0.000 C 
ATOM     50  C   UNL     1     106.454 127.971 142.061  0.00  0.00    +0.000 C 
ATOM     51  C   UNL     1     107.201 127.756 142.336  0.00  0.00    +0.000 C 
BRANCH  51  53
ATOM     52  O   UNL     1     107.487 126.746 143.307  0.00  0.00    +0.000 OA
ATOM     53  C   UNL     1     107.361 126.968 142.522  0.00  0.00    +0.000 C 
ENDBRANCH  51  53
BRANCH  49  54
ATOM     54  O   UNL     1     105.547 128.974 141.599  0.00  0.00    +0.000 OA
BRANCH  54  56
ATOM     55  O   UNL     1     105.074 129.063 142.944  0.00  0.00    +0.000 OA
ATOM     56  C   UNL     1     104.944 129.147 142.134  0.00  0.00    +0.000 C 
BRANCH  56  57
ATOM     57  C   UNL     1     104.210 129.406 141.859  0.00  0.00    +0.000 A 
ATOM     58  C   UNL     1     103.826 130.033 142.231  0.00  0.00    +0.000 A 
ATOM     59  C   UNL     1     103.861 129.036 141.209  0.00  0.00    +0.000 A 
ATOM     60  C   UNL     1     103.092 130.291 141.956  0.00  0.00    +0.000 A 
ATOM     61  C   UNL     1     103.127 129.293 140.932  0.00  0.00    +0.000 A 
ATOM     62  C   UNL     1     102.743 129.921 141.306  0.00  0.00    +0.000 A 
ENDBRANCH  56  57
ENDBRANCH  54  56
ENDBRANCH  49  54
ENDBRANCH  43  47
ENDBRANCH  36  43
ENDBRANCH   1  39
TORSDOF 12
ENDMDL
MODEL 9
REMARK VINA RESULT:     -10.1      2.393      5.859
REMARK  Name = 44259209
REMARK  12 active torsions:
REMARK  status: ('A' for Active; 'I' for Inactive)
REMARK    1  A    between atoms: O_1  and  C_23
REMARK    2  A    between atoms: O_1  and  C_25
REMARK    3  A    between atoms: O_4  and  C_30
REMARK    4  A    between atoms: O_4  and  C_39
REMARK    5  A    between atoms: O_5  and  C_27
REMARK    6  A    between atoms: O_5  and  C_41
REMARK    7  A    between atoms: O_13  and  C_40
REMARK    8  A    between atoms: O_13  and  C_48
REMARK    9  A    between atoms: C_31  and  C_33
REMARK   10  A    between atoms: C_32  and  C_34
REMARK   11  A    between atoms: C_41  and  C_47
REMARK   12  A    between atoms: C_42  and  C_50
REMARK                            x       y       z     vdW  Elec       q    Type
REMARK                         _______ _______ _______ _____ _____    ______ ____
ROOT
ATOM      1  O   UNL     1     109.390 128.881 141.585  0.00  0.00    +0.000 OA
ENDROOT
BRANCH   1   5
ATOM      2  O   UNL     1     108.268 127.062 142.035  0.00  0.00    +0.000 OA
ATOM      3  O   UNL     1     108.171 129.489 142.518  0.00  0.00    +0.000 OA
ATOM      4  O   UNL     1     106.973 129.314 143.302  0.00  0.00    +0.000 OA
ATOM      5  C   UNL     1     108.813 128.376 141.891  0.00  0.00    +0.000 A 
ATOM      6  C   UNL     1     108.845 127.567 141.730  0.00  0.00    +0.000 A 
ATOM      7  C   UNL     1     108.204 128.680 142.357  0.00  0.00    +0.000 A 
ATOM      8  C   UNL     1     107.627 128.175 142.662  0.00  0.00    +0.000 A 
ATOM      9  C   UNL     1     107.659 127.367 142.502  0.00  0.00    +0.000 A 
ATOM     10  C   UNL     1     106.428 127.141 143.300  0.00  0.00    +0.000 A 
ATOM     11  C   UNL     1     107.065 126.830 142.814  0.00  0.00    +0.000 A 
ATOM     12  C   UNL     1     106.998 128.504 143.147  0.00  0.00    +0.000 A 
ATOM     13  C   UNL     1     106.394 127.984 143.468  0.00  0.00    +0.000 A 
BRANCH   6  16
ATOM     14  O   UNL     1     111.384 126.274 141.512  0.00  0.00    +0.000 OA
ATOM     15  O   UNL     1     111.284 126.354 139.867  0.00  0.00    +0.000 OA
ATOM     16  C   UNL     1     109.454 127.264 141.264  0.00  0.00    +0.000 A 
ATOM     17  C   UNL     1     110.115 126.920 141.621  0.00  0.00    +0.000 A 
ATOM     18  C   UNL     1     109.404 127.304 140.441  0.00  0.00    +0.000 A 
ATOM     19  C   UNL     1     110.724 126.617 141.155  0.00  0.00    +0.000 A 
ATOM     20  C   UNL     1     110.014 127.000 139.976  0.00  0.00    +0.000 A 
ATOM     21  C   UNL     1     110.674 126.657 140.332  0.00  0.00    +0.000 A 
ENDBRANCH   6  16
BRANCH  10  22
ATOM     22  O   UNL     1     105.853 126.634 143.604  0.00  0.00    +0.000 OA
BRANCH  22  31
ATOM     23  O   UNL     1     106.310 126.560 144.956  0.00  0.00    +0.000 OA
ATOM     24  O   UNL     1     105.883 124.123 144.969  0.00  0.00    +0.000 OA
ATOM     25  O   UNL     1     106.483 124.862 146.317  0.00  0.00    +0.000 OA
ATOM     26  O   UNL     1     105.568 125.009 143.613  0.00  0.00    +0.000 OA
ATOM     27  C   UNL     1     106.025 124.935 144.965  0.00  0.00    +0.000 C 
ATOM     28  C   UNL     1     106.325 125.305 145.639  0.00  0.00    +0.000 C 
ATOM     29  C   UNL     1     105.868 125.378 144.287  0.00  0.00    +0.000 C 
ATOM     30  C   UNL     1     106.467 126.118 145.635  0.00  0.00    +0.000 C 
ATOM     31  C   UNL     1     106.010 126.191 144.282  0.00  0.00    +0.000 C 
ATOM     32  C   UNL     1     106.767 126.488 146.309  0.00  0.00    +0.000 C 
ENDBRANCH  22  31
ENDBRANCH  10  22
ENDBRANCH   1   5
BRANCH   1  39
ATOM     33  O   UNL     1     110.068 129.125 142.819  0.00  0.00    +0.000 OA
ATOM     34  O   UNL     1     110.478 131.467 142.130  0.00  0.00    +0.000 OA
ATOM     35  O   UNL     1     111.020 130.931 143.593  0.00  0.00    +0.000 OA
ATOM     36  C   UNL     1     109.933 130.174 141.857  0.00  0.00    +0.000 C 
ATOM     37  C   UNL     1     110.341 130.686 142.360  0.00  0.00    +0.000 C 
ATOM     38  C   UNL     1     110.612 130.418 143.091  0.00  0.00    +0.000 C 
ATOM     39  C   UNL     1     109.797 129.393 142.087  0.00  0.00    +0.000 C 
ATOM     40  C   UNL     1     110.475 129.637 143.321  0.00  0.00    +0.000 C 
BRANCH  40  42
ATOM     41  O   UNL     1     111.284 128.745 144.091  0.00  0.00    +0.000 OA
ATOM     42  C   UNL     1     110.747 129.369 144.053  0.00  0.00    +0.000 C 
ENDBRANCH  40  42
BRANCH  36  43
ATOM     43  O   UNL     1     109.663 130.442 141.126  0.00  0.00    +0.000 OA
BRANCH  43  47
ATOM     44  O   UNL     1     110.980 130.317 140.588  0.00  0.00    +0.000 OA
ATOM     45  O   UNL     1     109.144 131.098 139.703  0.00  0.00    +0.000 OA
ATOM     46  O   UNL     1     111.780 130.847 138.627  0.00  0.00    +0.000 OA
ATOM     47  C   UNL     1     110.192 130.544 140.501  0.00  0.00    +0.000 C 
ATOM     48  C   UNL     1     109.932 130.871 139.790  0.00  0.00    +0.000 C 
ATOM     49  C   UNL     1     110.461 130.972 139.165  0.00  0.00    +0.000 C 
ATOM     50  C   UNL     1     111.250 130.746 139.252  0.00  0.00    +0.000 C 
ATOM     51  C   UNL     1     111.509 130.418 139.964  0.00  0.00    +0.000 C 
BRANCH  51  53
ATOM     52  O   UNL     1     112.498 129.391 140.069  0.00  0.00    +0.000 OA
ATOM     53  C   UNL     1     112.298 130.192 140.050  0.00  0.00    +0.000 C 
ENDBRANCH  51  53
BRANCH  49  54
ATOM     54  O   UNL     1     110.203 131.300 138.454  0.00  0.00    +0.000 OA
BRANCH  54  56
ATOM     55  O   UNL     1     110.283 132.614 139.008  0.00  0.00    +0.000 OA
ATOM     56  C   UNL     1     110.195 132.119 138.355  0.00  0.00    +0.000 C 
BRANCH  56  57
ATOM     57  C   UNL     1     110.099 132.442 137.601  0.00  0.00    +0.000 A 
ATOM     58  C   UNL     1     109.553 132.115 137.078  0.00  0.00    +0.000 A 
ATOM     59  C   UNL     1     110.552 133.093 137.372  0.00  0.00    +0.000 A 
ATOM     60  C   UNL     1     109.457 132.438 136.325  0.00  0.00    +0.000 A 
ATOM     61  C   UNL     1     110.457 133.416 136.619  0.00  0.00    +0.000 A 
ATOM     62  C   UNL     1     109.909 133.088 136.095  0.00  0.00    +0.000 A 
ENDBRANCH  56  57
ENDBRANCH  54  56
ENDBRANCH  49  54
ENDBRANCH  43  47
ENDBRANCH  36  43
ENDBRANCH   1  39
TORSDOF 12
ENDMDL
MODEL 10
REMARK VINA RESULT:     -10.1      1.984      4.472
REMARK  Name = 44259209
REMARK  12 active torsions:
REMARK  status: ('A' for Active; 'I' for Inactive)
REMARK    1  A    between atoms: O_1  and  C_23
REMARK    2  A    between atoms: O_1  and  C_25
REMARK    3  A    between atoms: O_4  and  C_30
REMARK    4  A    between atoms: O_4  and  C_39
REMARK    5  A    between atoms: O_5  and  C_27
REMARK    6  A    between atoms: O_5  and  C_41
REMARK    7  A    between atoms: O_13  and  C_40
REMARK    8  A    between atoms: O_13  and  C_48
REMARK    9  A    between atoms: C_31  and  C_33
REMARK   10  A    between atoms: C_32  and  C_34
REMARK   11  A    between atoms: C_41  and  C_47
REMARK   12  A    between atoms: C_42  and  C_50
REMARK                            x       y       z     vdW  Elec       q    Type
REMARK                         _______ _______ _______ _____ _____    ______ ____
ROOT
ATOM      1  O   UNL     1     111.613 129.920 140.957  0.00  0.00    +0.000 OA
ENDROOT
BRANCH   1   5
ATOM      2  O   UNL     1     111.280 129.651 143.098  0.00  0.00    +0.000 OA
ATOM      3  O   UNL     1     112.196 131.348 141.544  0.00  0.00    +0.000 OA
ATOM      4  O   UNL     1     112.486 132.238 142.642  0.00  0.00    +0.000 OA
ATOM      5  C   UNL     1     111.599 130.069 141.768  0.00  0.00    +0.000 A 
ATOM      6  C   UNL     1     111.294 129.503 142.286  0.00  0.00    +0.000 A 
ATOM      7  C   UNL     1     111.890 130.782 142.063  0.00  0.00    +0.000 A 
ATOM      8  C   UNL     1     111.877 130.931 142.874  0.00  0.00    +0.000 A 
ATOM      9  C   UNL     1     111.572 130.366 143.391  0.00  0.00    +0.000 A 
ATOM     10  C   UNL     1     111.853 131.249 144.551  0.00  0.00    +0.000 A 
ATOM     11  C   UNL     1     111.551 130.508 144.239  0.00  0.00    +0.000 A 
ATOM     12  C   UNL     1     112.183 131.678 143.167  0.00  0.00    +0.000 A 
ATOM     13  C   UNL     1     112.172 131.839 144.011  0.00  0.00    +0.000 A 
BRANCH   6  16
ATOM     14  O   UNL     1     111.662 126.726 141.721  0.00  0.00    +0.000 OA
ATOM     15  O   UNL     1     110.132 126.647 141.109  0.00  0.00    +0.000 OA
ATOM     16  C   UNL     1     111.003 128.789 141.992  0.00  0.00    +0.000 A 
ATOM     17  C   UNL     1     111.478 128.114 142.004  0.00  0.00    +0.000 A 
ATOM     18  C   UNL     1     110.238 128.750 141.686  0.00  0.00    +0.000 A 
ATOM     19  C   UNL     1     111.187 127.401 141.709  0.00  0.00    +0.000 A 
ATOM     20  C   UNL     1     109.948 128.036 141.392  0.00  0.00    +0.000 A 
ATOM     21  C   UNL     1     110.422 127.362 141.404  0.00  0.00    +0.000 A 
ENDBRANCH   6  16
BRANCH  10  22
ATOM     22  O   UNL     1     111.838 131.395 145.363  0.00  0.00    +0.000 OA
BRANCH  22  31
ATOM     23  O   UNL     1     110.484 131.837 145.470  0.00  0.00    +0.000 OA
ATOM     24  O   UNL     1     111.188 133.614 147.042  0.00  0.00    +0.000 OA
ATOM     25  O   UNL     1     109.598 133.464 146.626  0.00  0.00    +0.000 OA
ATOM     26  O   UNL     1     112.307 132.580 146.411  0.00  0.00    +0.000 OA
ATOM     27  C   UNL     1     110.953 133.022 146.518  0.00  0.00    +0.000 C 
ATOM     28  C   UNL     1     110.158 132.947 146.310  0.00  0.00    +0.000 C 
ATOM     29  C   UNL     1     111.512 132.505 146.202  0.00  0.00    +0.000 C 
ATOM     30  C   UNL     1     109.923 132.355 145.786  0.00  0.00    +0.000 C 
ATOM     31  C   UNL     1     111.278 131.912 145.679  0.00  0.00    +0.000 C 
ATOM     32  C   UNL     1     109.128 132.280 145.577  0.00  0.00    +0.000 C 
ENDBRANCH  22  31
ENDBRANCH  10  22
ENDBRANCH   1   5
BRANCH   1  39
ATOM     33  O   UNL     1     113.018 129.681 140.853  0.00  0.00    +0.000 OA
ATOM     34  O   UNL     1     113.046 130.801 138.647  0.00  0.00    +0.000 OA
ATOM     35  O   UNL     1     114.442 130.188 139.279  0.00  0.00    +0.000 OA
ATOM     36  C   UNL     1     112.329 130.361 139.802  0.00  0.00    +0.000 C 
ATOM     37  C   UNL     1     113.037 130.428 139.382  0.00  0.00    +0.000 C 
ATOM     38  C   UNL     1     113.734 130.121 139.699  0.00  0.00    +0.000 C 
ATOM     39  C   UNL     1     112.320 129.987 140.538  0.00  0.00    +0.000 C 
ATOM     40  C   UNL     1     113.725 129.748 140.434  0.00  0.00    +0.000 C 
BRANCH  40  42
ATOM     41  O   UNL     1     114.481 128.637 140.920  0.00  0.00    +0.000 OA
ATOM     42  C   UNL     1     114.423 129.441 140.750  0.00  0.00    +0.000 C 
ENDBRANCH  40  42
BRANCH  36  43
ATOM     43  O   UNL     1     111.632 130.667 139.486  0.00  0.00    +0.000 OA
BRANCH  43  47
ATOM     44  O   UNL     1     111.504 129.525 138.637  0.00  0.00    +0.000 OA
ATOM     45  O   UNL     1     110.376 131.393 138.699  0.00  0.00    +0.000 OA
ATOM     46  O   UNL     1     110.119 129.108 137.002  0.00  0.00    +0.000 OA
ATOM     47  C   UNL     1     111.254 130.277 138.865  0.00  0.00    +0.000 C 
ATOM     48  C   UNL     1     110.626 130.641 138.472  0.00  0.00    +0.000 C 
ATOM     49  C   UNL     1     110.248 130.251 137.851  0.00  0.00    +0.000 C 
ATOM     50  C   UNL     1     110.498 129.498 137.623  0.00  0.00    +0.000 C 
ATOM     51  C   UNL     1     111.126 129.136 138.016  0.00  0.00    +0.000 C 
BRANCH  51  53
ATOM     52  O   UNL     1     111.229 127.734 138.276  0.00  0.00    +0.000 OA
ATOM     53  C   UNL     1     111.376 128.383 137.788  0.00  0.00    +0.000 C 
ENDBRANCH  51  53
BRANCH  49  54
ATOM     54  O   UNL     1     109.620 130.613 137.457  0.00  0.00    +0.000 OA
BRANCH  54  56
ATOM     55  O   UNL     1     110.538 131.343 136.642  0.00  0.00    +0.000 OA
ATOM     56  C   UNL     1     109.766 131.110 136.815  0.00  0.00    +0.000 C 
BRANCH  56  57
ATOM     57  C   UNL     1     109.140 131.374 136.347  0.00  0.00    +0.000 A 
ATOM     58  C   UNL     1     108.392 131.477 136.678  0.00  0.00    +0.000 A 
ATOM     59  C   UNL     1     109.263 131.536 135.548  0.00  0.00    +0.000 A 
ATOM     60  C   UNL     1     107.765 131.741 136.210  0.00  0.00    +0.000 A 
ATOM     61  C   UNL     1     108.637 131.800 135.079  0.00  0.00    +0.000 A 
ATOM     62  C   UNL     1     107.888 131.902 135.411  0.00  0.00    +0.000 A 
ENDBRANCH  56  57
ENDBRANCH  54  56
ENDBRANCH  49  54
ENDBRANCH  43  47
ENDBRANCH  36  43
ENDBRANCH   1  39
TORSDOF 12
ENDMDL
