MODEL 1
REMARK VINA RESULT:     -10.3      0.000      0.000
REMARK  Name = 74819427
REMARK  7 active torsions:
REMARK  status: ('A' for Active; 'I' for Inactive)
REMARK    1  A    between atoms: O_3  and  C_25
REMARK    2  A    between atoms: O_3  and  C_29
REMARK    3  A    between atoms: O_4  and  C_26
REMARK    4  A    between atoms: O_4  and  C_30
REMARK    5  A    between atoms: C_23  and  C_27
REMARK    6  A    between atoms: C_24  and  C_28
REMARK    7  A    between atoms: C_35  and  C_38
REMARK                            x       y       z     vdW  Elec       q    Type
REMARK                         _______ _______ _______ _____ _____    ______ ____
ROOT
ATOM      1  O   UNL     1     113.278 128.901 139.376  0.00  0.00    +0.000 OA
ATOM      2  O   UNL     1     112.404 126.163 139.714  0.00  0.00    +0.000 OA
ATOM      3  O   UNL     1     113.096 126.814 140.799  0.00  0.00    +0.000 OA
ATOM      4  C   UNL     1     112.146 126.846 138.485  0.00  0.00    +0.000 A 
ATOM      5  C   UNL     1     112.204 127.524 138.020  0.00  0.00    +0.000 A 
ATOM      6  C   UNL     1     112.461 126.841 139.248  0.00  0.00    +0.000 A 
ATOM      7  C   UNL     1     112.834 127.514 139.545  0.00  0.00    +0.000 A 
ATOM      8  C   UNL     1     112.892 128.193 139.079  0.00  0.00    +0.000 A 
ATOM      9  C   UNL     1     112.577 128.198 138.316  0.00  0.00    +0.000 A 
ATOM     10  C   UNL     1     113.609 128.902 140.170  0.00  0.00    +0.000 C 
ATOM     11  C   UNL     1     113.548 128.195 140.655  0.00  0.00    +0.000 C 
ATOM     12  C   UNL     1     113.158 127.497 140.340  0.00  0.00    +0.000 C 
ENDROOT
BRANCH  10  14
ATOM     13  O   UNL     1     115.099 131.601 141.345  0.00  0.00    +0.000 OA
ATOM     14  C   UNL     1     113.981 129.576 140.464  0.00  0.00    +0.000 A 
ATOM     15  C   UNL     1     114.733 129.783 140.194  0.00  0.00    +0.000 A 
ATOM     16  C   UNL     1     113.602 130.045 141.027  0.00  0.00    +0.000 A 
ATOM     17  C   UNL     1     115.106 130.458 140.488  0.00  0.00    +0.000 A 
ATOM     18  C   UNL     1     113.975 130.720 141.321  0.00  0.00    +0.000 A 
ATOM     19  C   UNL     1     114.726 130.926 141.051  0.00  0.00    +0.000 A 
ENDBRANCH  10  14
BRANCH   4  20
ATOM     20  O   UNL     1     111.773 126.173 138.189  0.00  0.00    +0.000 OA
BRANCH  20  29
ATOM     21  O   UNL     1     113.025 125.699 137.689  0.00  0.00    +0.000 OA
ATOM     22  O   UNL     1     111.926 123.625 136.903  0.00  0.00    +0.000 OA
ATOM     23  O   UNL     1     113.544 123.842 136.665  0.00  0.00    +0.000 OA
ATOM     24  O   UNL     1     111.041 124.791 137.665  0.00  0.00    +0.000 OA
ATOM     25  C   UNL     1     112.292 124.316 137.165  0.00  0.00    +0.000 C 
ATOM     26  C   UNL     1     113.101 124.424 137.046  0.00  0.00    +0.000 C 
ATOM     27  C   UNL     1     111.849 124.899 137.546  0.00  0.00    +0.000 C 
ATOM     28  C   UNL     1     113.467 125.116 137.308  0.00  0.00    +0.000 C 
ATOM     29  C   UNL     1     112.215 125.590 137.808  0.00  0.00    +0.000 C 
BRANCH  28  31
ATOM     30  O   UNL     1     114.802 125.134 137.819  0.00  0.00    +0.000 OA
ATOM     31  C   UNL     1     114.277 125.224 137.189  0.00  0.00    +0.000 C 
ENDBRANCH  28  31
ENDBRANCH  20  29
ENDBRANCH   4  20
BRANCH   5  32
ATOM     32  O   UNL     1     111.889 127.530 137.257  0.00  0.00    +0.000 OA
BRANCH  32  41
ATOM     33  O   UNL     1     110.777 128.406 137.448  0.00  0.00    +0.000 OA
ATOM     34  O   UNL     1     111.357 129.598 135.358  0.00  0.00    +0.000 OA
ATOM     35  O   UNL     1     110.052 130.077 136.246  0.00  0.00    +0.000 OA
ATOM     36  O   UNL     1     112.276 128.324 135.863  0.00  0.00    +0.000 OA
ATOM     37  C   UNL     1     111.164 129.201 136.055  0.00  0.00    +0.000 C 
ATOM     38  C   UNL     1     110.511 129.440 136.499  0.00  0.00    +0.000 C 
ATOM     39  C   UNL     1     111.623 128.563 136.308  0.00  0.00    +0.000 C 
ATOM     40  C   UNL     1     110.318 129.043 137.196  0.00  0.00    +0.000 C 
ATOM     41  C   UNL     1     111.430 128.166 137.005  0.00  0.00    +0.000 C 
BRANCH  40  43
ATOM     42  O   UNL     1     109.163 128.719 137.973  0.00  0.00    +0.000 OA
ATOM     43  C   UNL     1     109.666 129.283 137.639  0.00  0.00    +0.000 C 
ENDBRANCH  40  43
ENDBRANCH  32  41
ENDBRANCH   5  32
TORSDOF 7
ENDMDL
MODEL 2
REMARK VINA RESULT:      -9.9      7.981      9.870
REMARK  Name = 74819427
REMARK  7 active torsions:
REMARK  status: ('A' for Active; 'I' for Inactive)
REMARK    1  A    between atoms: O_3  and  C_25
REMARK    2  A    between atoms: O_3  and  C_29
REMARK    3  A    between atoms: O_4  and  C_26
REMARK    4  A    between atoms: O_4  and  C_30
REMARK    5  A    between atoms: C_23  and  C_27
REMARK    6  A    between atoms: C_24  and  C_28
REMARK    7  A    between atoms: C_35  and  C_38
REMARK                            x       y       z     vdW  Elec       q    Type
REMARK                         _______ _______ _______ _____ _____    ______ ____
ROOT
ATOM      1  O   UNL     1     104.834 127.956 143.027  0.00  0.00    +0.000 OA
ATOM      2  O   UNL     1     106.216 127.563 145.539  0.00  0.00    +0.000 OA
ATOM      3  O   UNL     1     105.568 128.827 145.289  0.00  0.00    +0.000 OA
ATOM      4  C   UNL     1     106.185 126.512 144.571  0.00  0.00    +0.000 A 
ATOM      5  C   UNL     1     105.948 126.226 143.835  0.00  0.00    +0.000 A 
ATOM      6  C   UNL     1     105.979 127.277 144.803  0.00  0.00    +0.000 A 
ATOM      7  C   UNL     1     105.535 127.755 144.298  0.00  0.00    +0.000 A 
ATOM      8  C   UNL     1     105.297 127.468 143.561  0.00  0.00    +0.000 A 
ATOM      9  C   UNL     1     105.504 126.704 143.330  0.00  0.00    +0.000 A 
ATOM     10  C   UNL     1     104.616 128.754 143.262  0.00  0.00    +0.000 C 
ATOM     11  C   UNL     1     104.863 129.052 144.029  0.00  0.00    +0.000 C 
ATOM     12  C   UNL     1     105.326 128.548 144.551  0.00  0.00    +0.000 C 
ENDROOT
BRANCH  10  14
ATOM     13  O   UNL     1     102.839 130.657 141.236  0.00  0.00    +0.000 OA
ATOM     14  C   UNL     1     104.172 129.229 142.756  0.00  0.00    +0.000 A 
ATOM     15  C   UNL     1     103.742 129.865 143.058  0.00  0.00    +0.000 A 
ATOM     16  C   UNL     1     104.158 129.070 141.946  0.00  0.00    +0.000 A 
ATOM     17  C   UNL     1     103.297 130.341 142.552  0.00  0.00    +0.000 A 
ATOM     18  C   UNL     1     103.713 129.546 141.440  0.00  0.00    +0.000 A 
ATOM     19  C   UNL     1     103.283 130.181 141.743  0.00  0.00    +0.000 A 
ENDBRANCH  10  14
BRANCH   4  20
ATOM     20  O   UNL     1     106.630 126.034 145.076  0.00  0.00    +0.000 OA
BRANCH  20  29
ATOM     21  O   UNL     1     105.448 125.512 145.686  0.00  0.00    +0.000 OA
ATOM     22  O   UNL     1     106.790 124.727 147.612  0.00  0.00    +0.000 OA
ATOM     23  O   UNL     1     105.160 124.467 147.581  0.00  0.00    +0.000 OA
ATOM     24  O   UNL     1     107.524 125.511 146.360  0.00  0.00    +0.000 OA
ATOM     25  C   UNL     1     106.342 124.989 146.970  0.00  0.00    +0.000 C 
ATOM     26  C   UNL     1     105.528 124.859 146.955  0.00  0.00    +0.000 C 
ATOM     27  C   UNL     1     106.710 125.381 146.344  0.00  0.00    +0.000 C 
ATOM     28  C   UNL     1     105.081 125.120 146.313  0.00  0.00    +0.000 C 
ATOM     29  C   UNL     1     106.263 125.642 145.702  0.00  0.00    +0.000 C 
BRANCH  28  31
ATOM     30  O   UNL     1     103.946 124.447 145.765  0.00  0.00    +0.000 OA
ATOM     31  C   UNL     1     104.266 124.990 146.297  0.00  0.00    +0.000 C 
ENDBRANCH  28  31
ENDBRANCH  20  29
ENDBRANCH   4  20
BRANCH   5  32
ATOM     32  O   UNL     1     106.155 125.461 143.603  0.00  0.00    +0.000 OA
BRANCH  32  41
ATOM     33  O   UNL     1     107.002 125.722 142.482  0.00  0.00    +0.000 OA
ATOM     34  O   UNL     1     105.763 124.039 141.155  0.00  0.00    +0.000 OA
ATOM     35  O   UNL     1     107.023 124.860 140.477  0.00  0.00    +0.000 OA
ATOM     36  O   UNL     1     105.329 124.340 142.718  0.00  0.00    +0.000 OA
ATOM     37  C   UNL     1     106.176 124.600 141.597  0.00  0.00    +0.000 C 
ATOM     38  C   UNL     1     106.806 125.011 141.259  0.00  0.00    +0.000 C 
ATOM     39  C   UNL     1     105.959 124.750 142.380  0.00  0.00    +0.000 C 
ATOM     40  C   UNL     1     107.219 125.572 141.701  0.00  0.00    +0.000 C 
ATOM     41  C   UNL     1     106.372 125.311 142.822  0.00  0.00    +0.000 C 
BRANCH  40  43
ATOM     42  O   UNL     1     108.537 126.116 141.797  0.00  0.00    +0.000 OA
ATOM     43  C   UNL     1     107.848 125.982 141.362  0.00  0.00    +0.000 C 
ENDBRANCH  40  43
ENDBRANCH  32  41
ENDBRANCH   5  32
TORSDOF 7
ENDMDL
MODEL 3
REMARK VINA RESULT:      -9.9      2.472      5.226
REMARK  Name = 74819427
REMARK  7 active torsions:
REMARK  status: ('A' for Active; 'I' for Inactive)
REMARK    1  A    between atoms: O_3  and  C_25
REMARK    2  A    between atoms: O_3  and  C_29
REMARK    3  A    between atoms: O_4  and  C_26
REMARK    4  A    between atoms: O_4  and  C_30
REMARK    5  A    between atoms: C_23  and  C_27
REMARK    6  A    between atoms: C_24  and  C_28
REMARK    7  A    between atoms: C_35  and  C_38
REMARK                            x       y       z     vdW  Elec       q    Type
REMARK                         _______ _______ _______ _____ _____    ______ ____
ROOT
ATOM      1  O   UNL     1     112.237 126.630 137.882  0.00  0.00    +0.000 OA
ATOM      2  O   UNL     1     111.478 129.392 137.474  0.00  0.00    +0.000 OA
ATOM      3  O   UNL     1     112.753 128.937 136.977  0.00  0.00    +0.000 OA
ATOM      4  C   UNL     1     110.592 128.504 138.159  0.00  0.00    +0.000 A 
ATOM      5  C   UNL     1     110.421 127.754 138.455  0.00  0.00    +0.000 A 
ATOM      6  C   UNL     1     111.307 128.642 137.770  0.00  0.00    +0.000 A 
ATOM      7  C   UNL     1     111.850 128.028 137.677  0.00  0.00    +0.000 A 
ATOM      8  C   UNL     1     111.679 127.277 137.973  0.00  0.00    +0.000 A 
ATOM      9  C   UNL     1     110.965 127.140 138.362  0.00  0.00    +0.000 A 
ATOM     10  C   UNL     1     112.983 126.766 137.478  0.00  0.00    +0.000 C 
ATOM     11  C   UNL     1     113.161 127.548 137.170  0.00  0.00    +0.000 C 
ATOM     12  C   UNL     1     112.590 128.183 137.270  0.00  0.00    +0.000 C 
ENDROOT
BRANCH  10  14
ATOM     13  O   UNL     1     115.149 124.304 137.111  0.00  0.00    +0.000 OA
ATOM     14  C   UNL     1     113.524 126.151 137.386  0.00  0.00    +0.000 A 
ATOM     15  C   UNL     1     114.000 125.922 138.020  0.00  0.00    +0.000 A 
ATOM     16  C   UNL     1     113.591 125.764 136.660  0.00  0.00    +0.000 A 
ATOM     17  C   UNL     1     114.542 125.307 137.929  0.00  0.00    +0.000 A 
ATOM     18  C   UNL     1     114.132 125.148 136.569  0.00  0.00    +0.000 A 
ATOM     19  C   UNL     1     114.608 124.920 137.203  0.00  0.00    +0.000 A 
ENDBRANCH  10  14
BRANCH   4  20
ATOM     20  O   UNL     1     110.049 129.118 138.253  0.00  0.00    +0.000 OA
BRANCH  20  29
ATOM     21  O   UNL     1     109.432 128.816 136.999  0.00  0.00    +0.000 OA
ATOM     22  O   UNL     1     108.387 131.059 136.974  0.00  0.00    +0.000 OA
ATOM     23  O   UNL     1     108.118 130.010 135.729  0.00  0.00    +0.000 OA
ATOM     24  O   UNL     1     109.352 130.613 138.235  0.00  0.00    +0.000 OA
ATOM     25  C   UNL     1     108.735 130.312 136.982  0.00  0.00    +0.000 C 
ATOM     26  C   UNL     1     108.601 129.787 136.360  0.00  0.00    +0.000 C 
ATOM     27  C   UNL     1     109.218 130.089 137.614  0.00  0.00    +0.000 C 
ATOM     28  C   UNL     1     108.949 129.040 136.369  0.00  0.00    +0.000 C 
ATOM     29  C   UNL     1     109.566 129.341 137.622  0.00  0.00    +0.000 C 
BRANCH  28  31
ATOM     30  O   UNL     1     108.383 127.823 135.876  0.00  0.00    +0.000 OA
ATOM     31  C   UNL     1     108.815 128.514 135.746  0.00  0.00    +0.000 C 
ENDBRANCH  28  31
ENDBRANCH  20  29
ENDBRANCH   4  20
BRANCH   5  32
ATOM     32  O   UNL     1     109.707 127.616 138.844  0.00  0.00    +0.000 OA
BRANCH  32  41
ATOM     33  O   UNL     1     110.163 127.466 140.190  0.00  0.00    +0.000 OA
ATOM     34  O   UNL     1     108.744 125.455 140.447  0.00  0.00    +0.000 OA
ATOM     35  O   UNL     1     109.673 125.975 141.706  0.00  0.00    +0.000 OA
ATOM     36  O   UNL     1     108.760 126.275 139.016  0.00  0.00    +0.000 OA
ATOM     37  C   UNL     1     109.217 126.125 140.361  0.00  0.00    +0.000 C 
ATOM     38  C   UNL     1     109.682 126.385 140.991  0.00  0.00    +0.000 C 
ATOM     39  C   UNL     1     109.225 126.536 139.645  0.00  0.00    +0.000 C 
ATOM     40  C   UNL     1     110.155 127.056 140.905  0.00  0.00    +0.000 C 
ATOM     41  C   UNL     1     109.699 127.206 139.559  0.00  0.00    +0.000 C 
BRANCH  40  43
ATOM     42  O   UNL     1     110.670 128.121 141.706  0.00  0.00    +0.000 OA
ATOM     43  C   UNL     1     110.620 127.315 141.535  0.00  0.00    +0.000 C 
ENDBRANCH  40  43
ENDBRANCH  32  41
ENDBRANCH   5  32
TORSDOF 7
ENDMDL
MODEL 4
REMARK VINA RESULT:      -9.8      1.281      4.794
REMARK  Name = 74819427
REMARK  7 active torsions:
REMARK  status: ('A' for Active; 'I' for Inactive)
REMARK    1  A    between atoms: O_3  and  C_25
REMARK    2  A    between atoms: O_3  and  C_29
REMARK    3  A    between atoms: O_4  and  C_26
REMARK    4  A    between atoms: O_4  and  C_30
REMARK    5  A    between atoms: C_23  and  C_27
REMARK    6  A    between atoms: C_24  and  C_28
REMARK    7  A    between atoms: C_35  and  C_38
REMARK                            x       y       z     vdW  Elec       q    Type
REMARK                         _______ _______ _______ _____ _____    ______ ____
ROOT
ATOM      1  O   UNL     1     112.993 127.225 138.193  0.00  0.00    +0.000 OA
ATOM      2  O   UNL     1     112.842 128.079 140.954  0.00  0.00    +0.000 OA
ATOM      3  O   UNL     1     113.296 126.741 140.660  0.00  0.00    +0.000 OA
ATOM      4  C   UNL     1     112.470 128.980 139.909  0.00  0.00    +0.000 A 
ATOM      5  C   UNL     1     112.370 129.140 139.106  0.00  0.00    +0.000 A 
ATOM      6  C   UNL     1     112.743 128.240 140.151  0.00  0.00    +0.000 A 
ATOM      7  C   UNL     1     112.916 127.660 139.590  0.00  0.00    +0.000 A 
ATOM      8  C   UNL     1     112.816 127.821 138.787  0.00  0.00    +0.000 A 
ATOM      9  C   UNL     1     112.543 128.561 138.545  0.00  0.00    +0.000 A 
ATOM     10  C   UNL     1     113.277 126.452 138.438  0.00  0.00    +0.000 C 
ATOM     11  C   UNL     1     113.381 126.285 139.275  0.00  0.00    +0.000 C 
ATOM     12  C   UNL     1     113.199 126.894 139.855  0.00  0.00    +0.000 C 
ENDROOT
BRANCH  10  14
ATOM     13  O   UNL     1     113.965 124.142 136.186  0.00  0.00    +0.000 OA
ATOM     14  C   UNL     1     113.449 125.875 137.876  0.00  0.00    +0.000 A 
ATOM     15  C   UNL     1     112.842 125.417 137.555  0.00  0.00    +0.000 A 
ATOM     16  C   UNL     1     114.229 125.754 137.632  0.00  0.00    +0.000 A 
ATOM     17  C   UNL     1     113.013 124.839 136.992  0.00  0.00    +0.000 A 
ATOM     18  C   UNL     1     114.400 125.176 137.069  0.00  0.00    +0.000 A 
ATOM     19  C   UNL     1     113.792 124.719 136.749  0.00  0.00    +0.000 A 
ENDBRANCH  10  14
BRANCH   4  20
ATOM     20  O   UNL     1     112.297 129.559 140.470  0.00  0.00    +0.000 OA
BRANCH  20  29
ATOM     21  O   UNL     1     113.650 130.019 140.427  0.00  0.00    +0.000 OA
ATOM     22  O   UNL     1     113.213 131.485 142.372  0.00  0.00    +0.000 OA
ATOM     23  O   UNL     1     114.711 131.455 141.681  0.00  0.00    +0.000 OA
ATOM     24  O   UNL     1     112.006 130.537 141.767  0.00  0.00    +0.000 OA
ATOM     25  C   UNL     1     113.359 130.996 141.724  0.00  0.00    +0.000 C 
ATOM     26  C   UNL     1     114.107 130.982 141.379  0.00  0.00    +0.000 C 
ATOM     27  C   UNL     1     112.755 130.522 141.421  0.00  0.00    +0.000 C 
ATOM     28  C   UNL     1     114.253 130.493 140.730  0.00  0.00    +0.000 C 
ATOM     29  C   UNL     1     112.900 130.034 140.773  0.00  0.00    +0.000 C 
BRANCH  28  31
ATOM     30  O   UNL     1     115.108 130.766 139.619  0.00  0.00    +0.000 OA
ATOM     31  C   UNL     1     115.002 130.478 140.384  0.00  0.00    +0.000 C 
ENDBRANCH  28  31
ENDBRANCH  20  29
ENDBRANCH   4  20
BRANCH   5  32
ATOM     32  O   UNL     1     112.098 129.880 138.864  0.00  0.00    +0.000 OA
BRANCH  32  41
ATOM     33  O   UNL     1     110.787 129.524 138.421  0.00  0.00    +0.000 OA
ATOM     34  O   UNL     1     111.089 130.923 136.401  0.00  0.00    +0.000 OA
ATOM     35  O   UNL     1     109.678 130.100 136.632  0.00  0.00    +0.000 OA
ATOM     36  O   UNL     1     112.299 130.813 137.517  0.00  0.00    +0.000 OA
ATOM     37  C   UNL     1     110.988 130.457 137.074  0.00  0.00    +0.000 C 
ATOM     38  C   UNL     1     110.283 130.045 137.190  0.00  0.00    +0.000 C 
ATOM     39  C   UNL     1     111.594 130.401 137.633  0.00  0.00    +0.000 C 
ATOM     40  C   UNL     1     110.182 129.579 137.863  0.00  0.00    +0.000 C 
ATOM     41  C   UNL     1     111.493 129.935 138.306  0.00  0.00    +0.000 C 
BRANCH  40  43
ATOM     42  O   UNL     1     109.124 129.153 138.724  0.00  0.00    +0.000 OA
ATOM     43  C   UNL     1     109.477 129.168 137.978  0.00  0.00    +0.000 C 
ENDBRANCH  40  43
ENDBRANCH  32  41
ENDBRANCH   5  32
TORSDOF 7
ENDMDL
MODEL 5
REMARK VINA RESULT:      -9.8      1.713      5.858
REMARK  Name = 74819427
REMARK  7 active torsions:
REMARK  status: ('A' for Active; 'I' for Inactive)
REMARK    1  A    between atoms: O_3  and  C_25
REMARK    2  A    between atoms: O_3  and  C_29
REMARK    3  A    between atoms: O_4  and  C_26
REMARK    4  A    between atoms: O_4  and  C_30
REMARK    5  A    between atoms: C_23  and  C_27
REMARK    6  A    between atoms: C_24  and  C_28
REMARK    7  A    between atoms: C_35  and  C_38
REMARK                            x       y       z     vdW  Elec       q    Type
REMARK                         _______ _______ _______ _____ _____    ______ ____
ROOT
ATOM      1  O   UNL     1     112.607 127.792 137.358  0.00  0.00    +0.000 OA
ATOM      2  O   UNL     1     112.115 130.294 135.989  0.00  0.00    +0.000 OA
ATOM      3  O   UNL     1     112.529 129.146 135.220  0.00  0.00    +0.000 OA
ATOM      4  C   UNL     1     111.946 130.212 137.406  0.00  0.00    +0.000 A 
ATOM      5  C   UNL     1     111.970 129.774 138.104  0.00  0.00    +0.000 A 
ATOM      6  C   UNL     1     112.139 129.856 136.687  0.00  0.00    +0.000 A 
ATOM      7  C   UNL     1     112.357 129.061 136.667  0.00  0.00    +0.000 A 
ATOM      8  C   UNL     1     112.381 128.621 137.366  0.00  0.00    +0.000 A 
ATOM      9  C   UNL     1     112.188 128.979 138.084  0.00  0.00    +0.000 A 
ATOM     10  C   UNL     1     112.810 127.414 136.613  0.00  0.00    +0.000 C 
ATOM     11  C   UNL     1     112.784 127.872 135.886  0.00  0.00    +0.000 C 
ATOM     12  C   UNL     1     112.556 128.700 135.913  0.00  0.00    +0.000 C 
ENDROOT
BRANCH  10  14
ATOM     13  O   UNL     1     113.679 124.233 136.545  0.00  0.00    +0.000 OA
ATOM     14  C   UNL     1     113.027 126.620 136.596  0.00  0.00    +0.000 A 
ATOM     15  C   UNL     1     112.455 126.038 136.474  0.00  0.00    +0.000 A 
ATOM     16  C   UNL     1     113.817 126.405 136.700  0.00  0.00    +0.000 A 
ATOM     17  C   UNL     1     112.671 125.242 136.457  0.00  0.00    +0.000 A 
ATOM     18  C   UNL     1     114.034 125.609 136.683  0.00  0.00    +0.000 A 
ATOM     19  C   UNL     1     113.461 125.028 136.562  0.00  0.00    +0.000 A 
ENDBRANCH  10  14
BRANCH   4  20
ATOM     20  O   UNL     1     111.728 131.008 137.426  0.00  0.00    +0.000 OA
BRANCH  20  29
ATOM     21  O   UNL     1     110.349 130.677 137.246  0.00  0.00    +0.000 OA
ATOM     22  O   UNL     1     109.881 133.006 136.551  0.00  0.00    +0.000 OA
ATOM     23  O   UNL     1     108.658 131.899 136.603  0.00  0.00    +0.000 OA
ATOM     24  O   UNL     1     111.416 132.560 136.962  0.00  0.00    +0.000 OA
ATOM     25  C   UNL     1     110.037 132.230 136.783  0.00  0.00    +0.000 C 
ATOM     26  C   UNL     1     109.426 131.677 136.809  0.00  0.00    +0.000 C 
ATOM     27  C   UNL     1     110.805 132.007 136.988  0.00  0.00    +0.000 C 
ATOM     28  C   UNL     1     109.582 130.900 137.040  0.00  0.00    +0.000 C 
ATOM     29  C   UNL     1     110.961 131.231 137.220  0.00  0.00    +0.000 C 
BRANCH  28  31
ATOM     30  O   UNL     1     108.719 130.045 137.791  0.00  0.00    +0.000 OA
ATOM     31  C   UNL     1     108.970 130.346 137.066  0.00  0.00    +0.000 C 
ENDBRANCH  28  31
ENDBRANCH  20  29
ENDBRANCH   4  20
BRANCH   5  32
ATOM     32  O   UNL     1     111.776 130.130 138.822  0.00  0.00    +0.000 OA
BRANCH  32  41
ATOM     33  O   UNL     1     113.076 130.239 139.406  0.00  0.00    +0.000 OA
ATOM     34  O   UNL     1     112.179 129.413 141.559  0.00  0.00    +0.000 OA
ATOM     35  O   UNL     1     113.777 129.797 141.424  0.00  0.00    +0.000 OA
ATOM     36  O   UNL     1     111.178 129.579 140.258  0.00  0.00    +0.000 OA
ATOM     37  C   UNL     1     112.478 129.688 140.841  0.00  0.00    +0.000 C 
ATOM     38  C   UNL     1     113.277 129.881 140.773  0.00  0.00    +0.000 C 
ATOM     39  C   UNL     1     111.978 129.772 140.190  0.00  0.00    +0.000 C 
ATOM     40  C   UNL     1     113.576 130.156 140.056  0.00  0.00    +0.000 C 
ATOM     41  C   UNL     1     112.277 130.047 139.472  0.00  0.00    +0.000 C 
BRANCH  40  43
ATOM     42  O   UNL     1     114.602 131.048 139.615  0.00  0.00    +0.000 OA
ATOM     43  C   UNL     1     114.375 130.348 139.989  0.00  0.00    +0.000 C 
ENDBRANCH  40  43
ENDBRANCH  32  41
ENDBRANCH   5  32
TORSDOF 7
ENDMDL
MODEL 6
REMARK VINA RESULT:      -9.8      1.739      5.617
REMARK  Name = 74819427
REMARK  7 active torsions:
REMARK  status: ('A' for Active; 'I' for Inactive)
REMARK    1  A    between atoms: O_3  and  C_25
REMARK    2  A    between atoms: O_3  and  C_29
REMARK    3  A    between atoms: O_4  and  C_26
REMARK    4  A    between atoms: O_4  and  C_30
REMARK    5  A    between atoms: C_23  and  C_27
REMARK    6  A    between atoms: C_24  and  C_28
REMARK    7  A    between atoms: C_35  and  C_38
REMARK                            x       y       z     vdW  Elec       q    Type
REMARK                         _______ _______ _______ _____ _____    ______ ____
ROOT
ATOM      1  O   UNL     1     111.429 127.076 137.170  0.00  0.00    +0.000 OA
ATOM      2  O   UNL     1     108.975 128.515 137.702  0.00  0.00    +0.000 OA
ATOM      3  O   UNL     1     108.930 127.078 137.574  0.00  0.00    +0.000 OA
ATOM      4  C   UNL     1     110.206 129.230 137.570  0.00  0.00    +0.000 A 
ATOM      5  C   UNL     1     111.019 129.232 137.439  0.00  0.00    +0.000 A 
ATOM      6  C   UNL     1     109.789 128.517 137.571  0.00  0.00    +0.000 A 
ATOM      7  C   UNL     1     110.188 127.807 137.439  0.00  0.00    +0.000 A 
ATOM      8  C   UNL     1     111.003 127.809 137.308  0.00  0.00    +0.000 A 
ATOM      9  C   UNL     1     111.418 128.522 137.307  0.00  0.00    +0.000 A 
ATOM     10  C   UNL     1     111.002 126.330 137.168  0.00  0.00    +0.000 C 
ATOM     11  C   UNL     1     110.153 126.328 137.306  0.00  0.00    +0.000 C 
ATOM     12  C   UNL     1     109.744 127.072 137.442  0.00  0.00    +0.000 C 
ENDROOT
BRANCH  10  14
ATOM     13  O   UNL     1     112.606 123.496 136.643  0.00  0.00    +0.000 OA
ATOM     14  C   UNL     1     111.402 125.622 137.037  0.00  0.00    +0.000 A 
ATOM     15  C   UNL     1     111.762 125.228 137.667  0.00  0.00    +0.000 A 
ATOM     16  C   UNL     1     111.445 125.306 136.276  0.00  0.00    +0.000 A 
ATOM     17  C   UNL     1     112.163 124.519 137.536  0.00  0.00    +0.000 A 
ATOM     18  C   UNL     1     111.846 124.597 136.145  0.00  0.00    +0.000 A 
ATOM     19  C   UNL     1     112.205 124.204 136.775  0.00  0.00    +0.000 A 
ENDBRANCH  10  14
BRANCH   4  20
ATOM     20  O   UNL     1     109.807 129.940 137.702  0.00  0.00    +0.000 OA
BRANCH  20  29
ATOM     21  O   UNL     1     109.559 130.114 136.305  0.00  0.00    +0.000 OA
ATOM     22  O   UNL     1     107.738 131.706 136.826  0.00  0.00    +0.000 OA
ATOM     23  O   UNL     1     108.097 131.349 135.256  0.00  0.00    +0.000 OA
ATOM     24  O   UNL     1     108.593 131.002 138.049  0.00  0.00    +0.000 OA
ATOM     25  C   UNL     1     108.345 131.175 136.653  0.00  0.00    +0.000 C 
ATOM     26  C   UNL     1     108.524 130.997 135.868  0.00  0.00    +0.000 C 
ATOM     27  C   UNL     1     108.772 130.823 137.265  0.00  0.00    +0.000 C 
ATOM     28  C   UNL     1     109.131 130.466 135.694  0.00  0.00    +0.000 C 
ATOM     29  C   UNL     1     109.379 130.292 137.091  0.00  0.00    +0.000 C 
BRANCH  28  31
ATOM     30  O   UNL     1     110.064 130.446 134.612  0.00  0.00    +0.000 OA
ATOM     31  C   UNL     1     109.311 130.287 134.908  0.00  0.00    +0.000 C 
ENDBRANCH  28  31
ENDBRANCH  20  29
ENDBRANCH   4  20
BRANCH   5  32
ATOM     32  O   UNL     1     111.436 129.944 137.438  0.00  0.00    +0.000 OA
BRANCH  32  41
ATOM     33  O   UNL     1     112.128 129.832 138.684  0.00  0.00    +0.000 OA
ATOM     34  O   UNL     1     114.210 130.613 137.597  0.00  0.00    +0.000 OA
ATOM     35  O   UNL     1     114.208 130.240 139.204  0.00  0.00    +0.000 OA
ATOM     36  O   UNL     1     112.824 130.465 136.714  0.00  0.00    +0.000 OA
ATOM     37  C   UNL     1     113.516 130.353 137.959  0.00  0.00    +0.000 C 
ATOM     38  C   UNL     1     113.514 130.166 138.763  0.00  0.00    +0.000 C 
ATOM     39  C   UNL     1     112.822 130.279 137.518  0.00  0.00    +0.000 C 
ATOM     40  C   UNL     1     112.820 129.905 139.125  0.00  0.00    +0.000 C 
ATOM     41  C   UNL     1     112.128 130.018 137.880  0.00  0.00    +0.000 C 
BRANCH  40  43
ATOM     42  O   UNL     1     112.217 129.999 140.417  0.00  0.00    +0.000 OA
ATOM     43  C   UNL     1     112.820 129.719 139.928  0.00  0.00    +0.000 C 
ENDBRANCH  40  43
ENDBRANCH  32  41
ENDBRANCH   5  32
TORSDOF 7
ENDMDL
MODEL 7
REMARK VINA RESULT:      -9.7      1.688      3.964
REMARK  Name = 74819427
REMARK  7 active torsions:
REMARK  status: ('A' for Active; 'I' for Inactive)
REMARK    1  A    between atoms: O_3  and  C_25
REMARK    2  A    between atoms: O_3  and  C_29
REMARK    3  A    between atoms: O_4  and  C_26
REMARK    4  A    between atoms: O_4  and  C_30
REMARK    5  A    between atoms: C_23  and  C_27
REMARK    6  A    between atoms: C_24  and  C_28
REMARK    7  A    between atoms: C_35  and  C_38
REMARK                            x       y       z     vdW  Elec       q    Type
REMARK                         _______ _______ _______ _____ _____    ______ ____
ROOT
ATOM      1  O   UNL     1     111.987 129.045 137.562  0.00  0.00    +0.000 OA
ATOM      2  O   UNL     1     113.584 127.019 136.252  0.00  0.00    +0.000 OA
ATOM      3  O   UNL     1     113.417 128.300 135.610  0.00  0.00    +0.000 OA
ATOM      4  C   UNL     1     112.977 126.740 137.515  0.00  0.00    +0.000 A 
ATOM      5  C   UNL     1     112.511 126.980 138.152  0.00  0.00    +0.000 A 
ATOM      6  C   UNL     1     113.119 127.259 136.889  0.00  0.00    +0.000 A 
ATOM      7  C   UNL     1     112.795 128.017 136.900  0.00  0.00    +0.000 A 
ATOM      8  C   UNL     1     112.329 128.258 137.538  0.00  0.00    +0.000 A 
ATOM      9  C   UNL     1     112.188 127.739 138.163  0.00  0.00    +0.000 A 
ATOM     10  C   UNL     1     112.131 129.591 136.913  0.00  0.00    +0.000 C 
ATOM     11  C   UNL     1     112.616 129.340 136.250  0.00  0.00    +0.000 C 
ATOM     12  C   UNL     1     112.950 128.548 136.243  0.00  0.00    +0.000 C 
ENDROOT
BRANCH  10  14
ATOM     13  O   UNL     1     110.831 132.622 136.970  0.00  0.00    +0.000 OA
ATOM     14  C   UNL     1     111.806 130.348 136.928  0.00  0.00    +0.000 A 
ATOM     15  C   UNL     1     111.041 130.474 136.647  0.00  0.00    +0.000 A 
ATOM     16  C   UNL     1     112.246 130.981 137.223  0.00  0.00    +0.000 A 
ATOM     17  C   UNL     1     110.715 131.232 136.661  0.00  0.00    +0.000 A 
ATOM     18  C   UNL     1     111.921 131.739 137.237  0.00  0.00    +0.000 A 
ATOM     19  C   UNL     1     111.156 131.864 136.956  0.00  0.00    +0.000 A 
ENDBRANCH  10  14
BRANCH   4  20
ATOM     20  O   UNL     1     113.300 125.982 137.503  0.00  0.00    +0.000 OA
BRANCH  20  29
ATOM     21  O   UNL     1     112.148 125.500 136.808  0.00  0.00    +0.000 OA
ATOM     22  O   UNL     1     113.075 123.206 136.861  0.00  0.00    +0.000 OA
ATOM     23  O   UNL     1     111.614 123.489 136.149  0.00  0.00    +0.000 OA
ATOM     24  O   UNL     1     113.918 124.452 137.539  0.00  0.00    +0.000 OA
ATOM     25  C   UNL     1     112.766 123.971 136.844  0.00  0.00    +0.000 C 
ATOM     26  C   UNL     1     112.036 124.112 136.487  0.00  0.00    +0.000 C 
ATOM     27  C   UNL     1     113.188 124.593 137.182  0.00  0.00    +0.000 C 
ATOM     28  C   UNL     1     111.727 124.877 136.470  0.00  0.00    +0.000 C 
ATOM     29  C   UNL     1     112.879 125.358 137.165  0.00  0.00    +0.000 C 
BRANCH  28  31
ATOM     30  O   UNL     1     110.962 125.390 135.377  0.00  0.00    +0.000 OA
ATOM     31  C   UNL     1     110.996 125.019 136.113  0.00  0.00    +0.000 C 
ENDBRANCH  28  31
ENDBRANCH  20  29
ENDBRANCH   4  20
BRANCH   5  32
ATOM     32  O   UNL     1     112.369 126.462 138.778  0.00  0.00    +0.000 OA
BRANCH  32  41
ATOM     33  O   UNL     1     113.151 127.095 139.792  0.00  0.00    +0.000 OA
ATOM     34  O   UNL     1     111.320 126.748 141.421  0.00  0.00    +0.000 OA
ATOM     35  O   UNL     1     112.712 127.496 141.892  0.00  0.00    +0.000 OA
ATOM     36  O   UNL     1     111.148 126.230 139.864  0.00  0.00    +0.000 OA
ATOM     37  C   UNL     1     111.931 126.864 140.878  0.00  0.00    +0.000 C 
ATOM     38  C   UNL     1     112.627 127.238 141.113  0.00  0.00    +0.000 C 
ATOM     39  C   UNL     1     111.845 126.605 140.099  0.00  0.00    +0.000 C 
ATOM     40  C   UNL     1     113.237 127.354 140.570  0.00  0.00    +0.000 C 
ATOM     41  C   UNL     1     112.455 126.720 139.556  0.00  0.00    +0.000 C 
BRANCH  40  43
ATOM     42  O   UNL     1     114.664 127.386 140.636  0.00  0.00    +0.000 OA
ATOM     43  C   UNL     1     113.933 127.728 140.806  0.00  0.00    +0.000 C 
ENDBRANCH  40  43
ENDBRANCH  32  41
ENDBRANCH   5  32
TORSDOF 7
ENDMDL
MODEL 8
REMARK VINA RESULT:      -9.7      1.943      4.737
REMARK  Name = 74819427
REMARK  7 active torsions:
REMARK  status: ('A' for Active; 'I' for Inactive)
REMARK    1  A    between atoms: O_3  and  C_25
REMARK    2  A    between atoms: O_3  and  C_29
REMARK    3  A    between atoms: O_4  and  C_26
REMARK    4  A    between atoms: O_4  and  C_30
REMARK    5  A    between atoms: C_23  and  C_27
REMARK    6  A    between atoms: C_24  and  C_28
REMARK    7  A    between atoms: C_35  and  C_38
REMARK                            x       y       z     vdW  Elec       q    Type
REMARK                         _______ _______ _______ _____ _____    ______ ____
ROOT
ATOM      1  O   UNL     1     112.023 127.140 138.069  0.00  0.00    +0.000 OA
ATOM      2  O   UNL     1     110.069 127.680 140.134  0.00  0.00    +0.000 OA
ATOM      3  O   UNL     1     110.959 126.555 140.291  0.00  0.00    +0.000 OA
ATOM      4  C   UNL     1     110.139 128.523 138.982  0.00  0.00    +0.000 A 
ATOM      5  C   UNL     1     110.484 128.715 138.258  0.00  0.00    +0.000 A 
ATOM      6  C   UNL     1     110.413 127.873 139.410  0.00  0.00    +0.000 A 
ATOM      7  C   UNL     1     111.032 127.415 139.114  0.00  0.00    +0.000 A 
ATOM      8  C   UNL     1     111.378 127.608 138.389  0.00  0.00    +0.000 A 
ATOM      9  C   UNL     1     111.103 128.258 137.962  0.00  0.00    +0.000 A 
ATOM     10  C   UNL     1     112.314 126.461 138.510  0.00  0.00    +0.000 C 
ATOM     11  C   UNL     1     111.954 126.260 139.264  0.00  0.00    +0.000 C 
ATOM     12  C   UNL     1     111.309 126.741 139.568  0.00  0.00    +0.000 C 
ENDROOT
BRANCH  10  14
ATOM     13  O   UNL     1     114.790 124.639 137.313  0.00  0.00    +0.000 OA
ATOM     14  C   UNL     1     112.932 126.006 138.211  0.00  0.00    +0.000 A 
ATOM     15  C   UNL     1     112.782 125.426 137.644  0.00  0.00    +0.000 A 
ATOM     16  C   UNL     1     113.703 126.130 138.479  0.00  0.00    +0.000 A 
ATOM     17  C   UNL     1     113.400 124.970 137.344  0.00  0.00    +0.000 A 
ATOM     18  C   UNL     1     114.322 125.674 138.179  0.00  0.00    +0.000 A 
ATOM     19  C   UNL     1     114.171 125.094 137.613  0.00  0.00    +0.000 A 
ENDBRANCH  10  14
BRANCH   4  20
ATOM     20  O   UNL     1     109.520 128.980 139.279  0.00  0.00    +0.000 OA
BRANCH  20  29
ATOM     21  O   UNL     1     110.456 129.777 140.007  0.00  0.00    +0.000 OA
ATOM     22  O   UNL     1     108.589 131.069 140.993  0.00  0.00    +0.000 OA
ATOM     23  O   UNL     1     110.148 131.435 141.393  0.00  0.00    +0.000 OA
ATOM     24  O   UNL     1     108.275 129.841 139.936  0.00  0.00    +0.000 OA
ATOM     25  C   UNL     1     109.211 130.638 140.664  0.00  0.00    +0.000 C 
ATOM     26  C   UNL     1     109.990 130.822 140.864  0.00  0.00    +0.000 C 
ATOM     27  C   UNL     1     109.054 130.024 140.136  0.00  0.00    +0.000 C 
ATOM     28  C   UNL     1     110.612 130.391 140.535  0.00  0.00    +0.000 C 
ATOM     29  C   UNL     1     109.676 129.594 139.807  0.00  0.00    +0.000 C 
BRANCH  28  31
ATOM     30  O   UNL     1     111.887 130.929 140.179  0.00  0.00    +0.000 OA
ATOM     31  C   UNL     1     111.392 130.574 140.735  0.00  0.00    +0.000 C 
ENDBRANCH  28  31
ENDBRANCH  20  29
ENDBRANCH   4  20
BRANCH   5  32
ATOM     32  O   UNL     1     110.210 129.365 137.830  0.00  0.00    +0.000 OA
BRANCH  32  41
ATOM     33  O   UNL     1     109.537 128.695 136.762  0.00  0.00    +0.000 OA
ATOM     34  O   UNL     1     110.562 130.255 135.137  0.00  0.00    +0.000 OA
ATOM     35  O   UNL     1     109.548 129.066 134.612  0.00  0.00    +0.000 OA
ATOM     36  O   UNL     1     110.894 130.405 136.747  0.00  0.00    +0.000 OA
ATOM     37  C   UNL     1     110.221 129.735 135.679  0.00  0.00    +0.000 C 
ATOM     38  C   UNL     1     109.713 129.140 135.417  0.00  0.00    +0.000 C 
ATOM     39  C   UNL     1     110.386 129.810 136.484  0.00  0.00    +0.000 C 
ATOM     40  C   UNL     1     109.371 128.620 135.958  0.00  0.00    +0.000 C 
ATOM     41  C   UNL     1     110.044 129.290 137.026  0.00  0.00    +0.000 C 
BRANCH  40  43
ATOM     42  O   UNL     1     108.184 127.842 136.126  0.00  0.00    +0.000 OA
ATOM     43  C   UNL     1     108.864 128.026 135.696  0.00  0.00    +0.000 C 
ENDBRANCH  40  43
ENDBRANCH  32  41
ENDBRANCH   5  32
TORSDOF 7
ENDMDL
MODEL 9
REMARK VINA RESULT:      -9.6      1.939      3.789
REMARK  Name = 74819427
REMARK  7 active torsions:
REMARK  status: ('A' for Active; 'I' for Inactive)
REMARK    1  A    between atoms: O_3  and  C_25
REMARK    2  A    between atoms: O_3  and  C_29
REMARK    3  A    between atoms: O_4  and  C_26
REMARK    4  A    between atoms: O_4  and  C_30
REMARK    5  A    between atoms: C_23  and  C_27
REMARK    6  A    between atoms: C_24  and  C_28
REMARK    7  A    between atoms: C_35  and  C_38
REMARK                            x       y       z     vdW  Elec       q    Type
REMARK                         _______ _______ _______ _____ _____    ______ ____
ROOT
ATOM      1  O   UNL     1     113.828 128.849 136.632  0.00  0.00    +0.000 OA
ATOM      2  O   UNL     1     111.622 127.042 136.141  0.00  0.00    +0.000 OA
ATOM      3  O   UNL     1     111.998 127.982 135.113  0.00  0.00    +0.000 OA
ATOM      4  C   UNL     1     112.319 126.993 137.387  0.00  0.00    +0.000 A 
ATOM      5  C   UNL     1     112.914 127.273 137.884  0.00  0.00    +0.000 A 
ATOM      6  C   UNL     1     112.217 127.322 136.638  0.00  0.00    +0.000 A 
ATOM      7  C   UNL     1     112.711 127.933 136.386  0.00  0.00    +0.000 A 
ATOM      8  C   UNL     1     113.307 128.214 136.883  0.00  0.00    +0.000 A 
ATOM      9  C   UNL     1     113.408 127.884 137.632  0.00  0.00    +0.000 A 
ATOM     10  C   UNL     1     113.728 129.198 135.852  0.00  0.00    +0.000 C 
ATOM     11  C   UNL     1     113.107 128.905 135.335  0.00  0.00    +0.000 C 
ATOM     12  C   UNL     1     112.596 128.268 135.604  0.00  0.00    +0.000 C 
ENDROOT
BRANCH  10  14
ATOM     13  O   UNL     1     115.710 131.639 134.854  0.00  0.00    +0.000 OA
ATOM     14  C   UNL     1     114.223 129.808 135.603  0.00  0.00    +0.000 A 
ATOM     15  C   UNL     1     114.753 129.681 134.984  0.00  0.00    +0.000 A 
ATOM     16  C   UNL     1     114.188 130.545 135.972  0.00  0.00    +0.000 A 
ATOM     17  C   UNL     1     115.249 130.291 134.734  0.00  0.00    +0.000 A 
ATOM     18  C   UNL     1     114.684 131.155 135.722  0.00  0.00    +0.000 A 
ATOM     19  C   UNL     1     115.214 131.028 135.103  0.00  0.00    +0.000 A 
ENDBRANCH  10  14
BRANCH   4  20
ATOM     20  O   UNL     1     111.825 126.382 137.640  0.00  0.00    +0.000 OA
BRANCH  20  29
ATOM     21  O   UNL     1     112.688 125.427 137.018  0.00  0.00    +0.000 OA
ATOM     22  O   UNL     1     111.218 123.594 137.794  0.00  0.00    +0.000 OA
ATOM     23  O   UNL     1     112.570 123.250 136.914  0.00  0.00    +0.000 OA
ATOM     24  O   UNL     1     110.845 125.160 138.157  0.00  0.00    +0.000 OA
ATOM     25  C   UNL     1     111.708 124.205 137.535  0.00  0.00    +0.000 C 
ATOM     26  C   UNL     1     112.383 124.033 137.096  0.00  0.00    +0.000 C 
ATOM     27  C   UNL     1     111.521 124.988 137.717  0.00  0.00    +0.000 C 
ATOM     28  C   UNL     1     112.873 124.644 136.837  0.00  0.00    +0.000 C 
ATOM     29  C   UNL     1     112.011 125.599 137.459  0.00  0.00    +0.000 C 
BRANCH  28  31
ATOM     30  O   UNL     1     114.297 124.602 136.722  0.00  0.00    +0.000 OA
ATOM     31  C   UNL     1     113.550 124.473 136.396  0.00  0.00    +0.000 C 
ENDBRANCH  28  31
ENDBRANCH  20  29
ENDBRANCH   4  20
BRANCH   5  32
ATOM     32  O   UNL     1     113.016 126.943 138.634  0.00  0.00    +0.000 OA
BRANCH  32  41
ATOM     33  O   UNL     1     112.592 128.051 139.431  0.00  0.00    +0.000 OA
ATOM     34  O   UNL     1     114.485 127.663 140.977  0.00  0.00    +0.000 OA
ATOM     35  O   UNL     1     113.431 128.900 141.258  0.00  0.00    +0.000 OA
ATOM     36  O   UNL     1     114.278 126.685 139.665  0.00  0.00    +0.000 OA
ATOM     37  C   UNL     1     113.854 127.793 140.462  0.00  0.00    +0.000 C 
ATOM     38  C   UNL     1     113.327 128.411 140.602  0.00  0.00    +0.000 C 
ATOM     39  C   UNL     1     113.751 127.303 139.805  0.00  0.00    +0.000 C 
ATOM     40  C   UNL     1     112.696 128.540 140.086  0.00  0.00    +0.000 C 
ATOM     41  C   UNL     1     113.120 127.432 139.289  0.00  0.00    +0.000 C 
BRANCH  40  43
ATOM     42  O   UNL     1     111.358 129.008 140.273  0.00  0.00    +0.000 OA
ATOM     43  C   UNL     1     112.169 129.158 140.227  0.00  0.00    +0.000 C 
ENDBRANCH  40  43
ENDBRANCH  32  41
ENDBRANCH   5  32
TORSDOF 7
ENDMDL
MODEL 10
REMARK VINA RESULT:      -9.6      1.935      4.413
REMARK  Name = 74819427
REMARK  7 active torsions:
REMARK  status: ('A' for Active; 'I' for Inactive)
REMARK    1  A    between atoms: O_3  and  C_25
REMARK    2  A    between atoms: O_3  and  C_29
REMARK    3  A    between atoms: O_4  and  C_26
REMARK    4  A    between atoms: O_4  and  C_30
REMARK    5  A    between atoms: C_23  and  C_27
REMARK    6  A    between atoms: C_24  and  C_28
REMARK    7  A    between atoms: C_35  and  C_38
REMARK                            x       y       z     vdW  Elec       q    Type
REMARK                         _______ _______ _______ _____ _____    ______ ____
ROOT
ATOM      1  O   UNL     1     113.609 128.616 136.887  0.00  0.00    +0.000 OA
ATOM      2  O   UNL     1     111.163 128.643 138.433  0.00  0.00    +0.000 OA
ATOM      3  O   UNL     1     111.530 129.821 137.686  0.00  0.00    +0.000 OA
ATOM      4  C   UNL     1     111.984 127.473 138.420  0.00  0.00    +0.000 A 
ATOM      5  C   UNL     1     112.660 127.079 138.161  0.00  0.00    +0.000 A 
ATOM      6  C   UNL     1     111.839 128.248 138.175  0.00  0.00    +0.000 A 
ATOM      7  C   UNL     1     112.371 128.627 137.671  0.00  0.00    +0.000 A 
ATOM      8  C   UNL     1     113.048 128.232 137.412  0.00  0.00    +0.000 A 
ATOM      9  C   UNL     1     113.192 127.458 137.657  0.00  0.00    +0.000 A 
ATOM     10  C   UNL     1     113.464 129.423 136.627  0.00  0.00    +0.000 C 
ATOM     11  C   UNL     1     112.759 129.834 136.897  0.00  0.00    +0.000 C 
ATOM     12  C   UNL     1     112.209 129.433 137.423  0.00  0.00    +0.000 C 
ENDROOT
BRANCH  10  14
ATOM     13  O   UNL     1     115.598 130.930 134.612  0.00  0.00    +0.000 OA
ATOM     14  C   UNL     1     113.997 129.799 136.124  0.00  0.00    +0.000 A 
ATOM     15  C   UNL     1     114.446 130.434 136.399  0.00  0.00    +0.000 A 
ATOM     16  C   UNL     1     114.082 129.542 135.344  0.00  0.00    +0.000 A 
ATOM     17  C   UNL     1     114.980 130.812 135.896  0.00  0.00    +0.000 A 
ATOM     18  C   UNL     1     114.615 129.919 134.841  0.00  0.00    +0.000 A 
ATOM     19  C   UNL     1     115.064 130.554 135.117  0.00  0.00    +0.000 A 
ENDBRANCH  10  14
BRANCH   4  20
ATOM     20  O   UNL     1     111.453 127.094 138.924  0.00  0.00    +0.000 OA
BRANCH  20  29
ATOM     21  O   UNL     1     112.149 127.598 140.065  0.00  0.00    +0.000 OA
ATOM     22  O   UNL     1     110.281 126.880 141.522  0.00  0.00    +0.000 OA
ATOM     23  O   UNL     1     111.601 127.622 142.178  0.00  0.00    +0.000 OA
ATOM     24  O   UNL     1     110.207 126.616 139.895  0.00  0.00    +0.000 OA
ATOM     25  C   UNL     1     110.904 127.119 141.036  0.00  0.00    +0.000 C 
ATOM     26  C   UNL     1     111.563 127.490 141.364  0.00  0.00    +0.000 C 
ATOM     27  C   UNL     1     110.866 126.987 140.223  0.00  0.00    +0.000 C 
ATOM     28  C   UNL     1     112.186 127.729 140.879  0.00  0.00    +0.000 C 
ATOM     29  C   UNL     1     111.489 127.226 139.737  0.00  0.00    +0.000 C 
BRANCH  28  31
ATOM     30  O   UNL     1     113.570 127.707 141.232  0.00  0.00    +0.000 OA
ATOM     31  C   UNL     1     112.846 128.101 141.207  0.00  0.00    +0.000 C 
ENDBRANCH  28  31
ENDBRANCH  20  29
ENDBRANCH   4  20
BRANCH   5  32
ATOM     32  O   UNL     1     112.805 126.304 138.406  0.00  0.00    +0.000 OA
BRANCH  32  41
ATOM     33  O   UNL     1     112.422 125.523 137.273  0.00  0.00    +0.000 OA
ATOM     34  O   UNL     1     114.606 124.362 137.333  0.00  0.00    +0.000 OA
ATOM     35  O   UNL     1     113.494 123.968 136.180  0.00  0.00    +0.000 OA
ATOM     36  O   UNL     1     114.262 125.530 138.446  0.00  0.00    +0.000 OA
ATOM     37  C   UNL     1     113.878 124.749 137.313  0.00  0.00    +0.000 C 
ATOM     38  C   UNL     1     113.322 124.552 136.737  0.00  0.00    +0.000 C 
ATOM     39  C   UNL     1     113.706 125.333 137.870  0.00  0.00    +0.000 C 
ATOM     40  C   UNL     1     112.593 124.939 136.716  0.00  0.00    +0.000 C 
ATOM     41  C   UNL     1     112.977 125.720 137.850  0.00  0.00    +0.000 C 
BRANCH  40  43
ATOM     42  O   UNL     1     111.247 124.631 136.349  0.00  0.00    +0.000 OA
ATOM     43  C   UNL     1     112.038 124.742 136.140  0.00  0.00    +0.000 C 
ENDBRANCH  40  43
ENDBRANCH  32  41
ENDBRANCH   5  32
TORSDOF 7
ENDMDL
