MODEL 1
REMARK VINA RESULT:      -9.4      0.000      0.000
REMARK  Name = 13963762
REMARK  6 active torsions:
REMARK  status: ('A' for Active; 'I' for Inactive)
REMARK    1  A    between atoms: O_2  and  C_15
REMARK    2  A    between atoms: O_2  and  C_17
REMARK    3  A    between atoms: O_8  and  C_24
REMARK    4  A    between atoms: O_10  and  C_26
REMARK    5  A    between atoms: C_14  and  C_16
REMARK    6  A    between atoms: C_19  and  C_25
REMARK                            x       y       z     vdW  Elec       q    Type
REMARK                         _______ _______ _______ _____ _____    ______ ____
ROOT
ATOM      1  O   UNL     1     102.919 124.806 147.282  0.00  0.00    +0.000 OA
ATOM      2  O   UNL     1     105.095 123.835 146.427  0.00  0.00    +0.000 OA
ATOM      3  C   UNL     1     105.083 125.296 147.250  0.00  0.00    +0.000 A 
ATOM      4  C   UNL     1     104.372 124.895 147.125  0.00  0.00    +0.000 A 
ATOM      5  C   UNL     1     102.909 124.056 146.862  0.00  0.00    +0.000 C 
ATOM      6  C   UNL     1     103.646 123.725 146.570  0.00  0.00    +0.000 C 
ATOM      7  C   UNL     1     103.665 125.214 147.405  0.00  0.00    +0.000 A 
ATOM      8  C   UNL     1     104.383 124.147 146.703  0.00  0.00    +0.000 C 
ATOM      9  C   UNL     1     105.086 126.015 147.653  0.00  0.00    +0.000 A 
ATOM     10  C   UNL     1     103.667 125.934 147.809  0.00  0.00    +0.000 A 
ATOM     11  C   UNL     1     104.378 126.334 147.933  0.00  0.00    +0.000 A 
ENDROOT
BRANCH   5  12
ATOM     12  C   UNL     1     102.196 123.658 146.739  0.00  0.00    +0.000 A 
ATOM     13  C   UNL     1     101.911 123.136 147.311  0.00  0.00    +0.000 A 
ATOM     14  C   UNL     1     101.769 123.783 146.044  0.00  0.00    +0.000 A 
ATOM     15  C   UNL     1     101.200 122.739 147.189  0.00  0.00    +0.000 A 
ATOM     16  C   UNL     1     101.057 123.385 145.921  0.00  0.00    +0.000 A 
ATOM     17  C   UNL     1     100.772 122.863 146.493  0.00  0.00    +0.000 A 
ENDBRANCH   5  12
BRANCH  10  18
ATOM     18  O   UNL     1     102.960 126.252 148.089  0.00  0.00    +0.000 OA
ATOM     19  C   UNL     1     102.791 126.236 148.896  0.00  0.00    +0.000 C 
ENDBRANCH  10  18
BRANCH  11  20
ATOM     20  O   UNL     1     104.381 127.053 148.338  0.00  0.00    +0.000 OA
ATOM     21  C   UNL     1     104.887 127.659 148.097  0.00  0.00    +0.000 C 
ENDBRANCH  11  20
BRANCH   3  22
ATOM     22  O   UNL     1     105.790 124.978 146.970  0.00  0.00    +0.000 OA
BRANCH  22  31
ATOM     23  O   UNL     1     106.346 124.615 148.235  0.00  0.00    +0.000 OA
ATOM     24  O   UNL     1     108.586 125.322 147.453  0.00  0.00    +0.000 OA
ATOM     25  O   UNL     1     108.395 124.724 148.979  0.00  0.00    +0.000 OA
ATOM     26  O   UNL     1     107.283 125.449 146.449  0.00  0.00    +0.000 OA
ATOM     27  C   UNL     1     107.839 125.086 147.714  0.00  0.00    +0.000 C 
ATOM     28  C   UNL     1     107.744 124.788 148.477  0.00  0.00    +0.000 C 
ATOM     29  C   UNL     1     107.188 125.150 147.211  0.00  0.00    +0.000 C 
ATOM     30  C   UNL     1     106.998 124.552 148.737  0.00  0.00    +0.000 C 
ATOM     31  C   UNL     1     106.442 124.914 147.472  0.00  0.00    +0.000 C 
BRANCH  30  33
ATOM     32  O   UNL     1     106.554 123.513 149.612  0.00  0.00    +0.000 OA
ATOM     33  C   UNL     1     106.902 124.253 149.500  0.00  0.00    +0.000 C 
ENDBRANCH  30  33
ENDBRANCH  22  31
ENDBRANCH   3  22
TORSDOF 6
ENDMDL
MODEL 2
REMARK VINA RESULT:      -8.9     11.531     12.958
REMARK  Name = 13963762
REMARK  6 active torsions:
REMARK  status: ('A' for Active; 'I' for Inactive)
REMARK    1  A    between atoms: O_2  and  C_15
REMARK    2  A    between atoms: O_2  and  C_17
REMARK    3  A    between atoms: O_8  and  C_24
REMARK    4  A    between atoms: O_10  and  C_26
REMARK    5  A    between atoms: C_14  and  C_16
REMARK    6  A    between atoms: C_19  and  C_25
REMARK                            x       y       z     vdW  Elec       q    Type
REMARK                         _______ _______ _______ _____ _____    ______ ____
ROOT
ATOM      1  O   UNL     1     113.197 127.115 137.812  0.00  0.00    +0.000 OA
ATOM      2  O   UNL     1     113.436 127.256 140.328  0.00  0.00    +0.000 OA
ATOM      3  C   UNL     1     112.889 128.577 139.452  0.00  0.00    +0.000 A 
ATOM      4  C   UNL     1     113.080 127.879 139.056  0.00  0.00    +0.000 A 
ATOM      5  C   UNL     1     113.479 126.429 138.247  0.00  0.00    +0.000 C 
ATOM      6  C   UNL     1     113.560 126.474 139.101  0.00  0.00    +0.000 C 
ATOM      7  C   UNL     1     113.001 127.836 138.236  0.00  0.00    +0.000 A 
ATOM      8  C   UNL     1     113.360 127.205 139.508  0.00  0.00    +0.000 C 
ATOM      9  C   UNL     1     112.619 129.231 139.029  0.00  0.00    +0.000 A 
ATOM     10  C   UNL     1     112.731 128.491 137.812  0.00  0.00    +0.000 A 
ATOM     11  C   UNL     1     112.541 129.188 138.209  0.00  0.00    +0.000 A 
ENDROOT
BRANCH   5  12
ATOM     12  C   UNL     1     113.669 125.733 137.847  0.00  0.00    +0.000 A 
ATOM     13  C   UNL     1     114.459 125.533 137.718  0.00  0.00    +0.000 A 
ATOM     14  C   UNL     1     113.068 125.236 137.577  0.00  0.00    +0.000 A 
ATOM     15  C   UNL     1     114.648 124.838 137.318  0.00  0.00    +0.000 A 
ATOM     16  C   UNL     1     113.257 124.540 137.177  0.00  0.00    +0.000 A 
ATOM     17  C   UNL     1     114.047 124.340 137.048  0.00  0.00    +0.000 A 
ENDBRANCH   5  12
BRANCH  10  18
ATOM     18  O   UNL     1     112.653 128.447 136.992  0.00  0.00    +0.000 OA
ATOM     19  C   UNL     1     113.194 128.835 136.505  0.00  0.00    +0.000 C 
ENDBRANCH  10  18
BRANCH  11  20
ATOM     20  O   UNL     1     112.271 129.843 137.785  0.00  0.00    +0.000 OA
ATOM     21  C   UNL     1     111.607 130.258 138.046  0.00  0.00    +0.000 C 
ENDBRANCH  11  20
BRANCH   3  22
ATOM     22  O   UNL     1     112.968 128.620 140.272  0.00  0.00    +0.000 OA
BRANCH  22  31
ATOM     23  O   UNL     1     114.016 129.586 140.376  0.00  0.00    +0.000 OA
ATOM     24  O   UNL     1     112.762 130.757 142.159  0.00  0.00    +0.000 OA
ATOM     25  O   UNL     1     114.228 131.331 141.669  0.00  0.00    +0.000 OA
ATOM     26  O   UNL     1     112.131 129.401 141.461  0.00  0.00    +0.000 OA
ATOM     27  C   UNL     1     113.180 130.366 141.565  0.00  0.00    +0.000 C 
ATOM     28  C   UNL     1     113.913 130.654 141.320  0.00  0.00    +0.000 C 
ATOM     29  C   UNL     1     112.864 129.689 141.216  0.00  0.00    +0.000 C 
ATOM     30  C   UNL     1     114.331 130.263 140.726  0.00  0.00    +0.000 C 
ATOM     31  C   UNL     1     113.282 129.298 140.622  0.00  0.00    +0.000 C 
BRANCH  30  33
ATOM     32  O   UNL     1     115.710 130.038 140.426  0.00  0.00    +0.000 OA
ATOM     33  C   UNL     1     115.064 130.550 140.480  0.00  0.00    +0.000 C 
ENDBRANCH  30  33
ENDBRANCH  22  31
ENDBRANCH   3  22
TORSDOF 6
ENDMDL
MODEL 3
REMARK VINA RESULT:      -8.8     11.543     13.711
REMARK  Name = 13963762
REMARK  6 active torsions:
REMARK  status: ('A' for Active; 'I' for Inactive)
REMARK    1  A    between atoms: O_2  and  C_15
REMARK    2  A    between atoms: O_2  and  C_17
REMARK    3  A    between atoms: O_8  and  C_24
REMARK    4  A    between atoms: O_10  and  C_26
REMARK    5  A    between atoms: C_14  and  C_16
REMARK    6  A    between atoms: C_19  and  C_25
REMARK                            x       y       z     vdW  Elec       q    Type
REMARK                         _______ _______ _______ _____ _____    ______ ____
ROOT
ATOM      1  O   UNL     1     112.793 126.684 137.595  0.00  0.00    +0.000 OA
ATOM      2  O   UNL     1     110.971 126.377 135.865  0.00  0.00    +0.000 OA
ATOM      3  C   UNL     1     110.792 127.501 137.096  0.00  0.00    +0.000 A 
ATOM      4  C   UNL     1     111.480 127.048 137.058  0.00  0.00    +0.000 A 
ATOM      5  C   UNL     1     112.899 126.103 136.970  0.00  0.00    +0.000 C 
ATOM      6  C   UNL     1     112.283 125.997 136.381  0.00  0.00    +0.000 C 
ATOM      7  C   UNL     1     112.072 127.149 137.623  0.00  0.00    +0.000 A 
ATOM      8  C   UNL     1     111.568 126.473 136.426  0.00  0.00    +0.000 C 
ATOM      9  C   UNL     1     110.696 128.056 137.698  0.00  0.00    +0.000 A 
ATOM     10  C   UNL     1     111.976 127.705 138.226  0.00  0.00    +0.000 A 
ATOM     11  C   UNL     1     111.288 128.158 138.263  0.00  0.00    +0.000 A 
ENDROOT
BRANCH   5  12
ATOM     12  C   UNL     1     113.589 125.651 136.936  0.00  0.00    +0.000 A 
ATOM     13  C   UNL     1     113.661 124.971 137.397  0.00  0.00    +0.000 A 
ATOM     14  C   UNL     1     114.207 125.880 136.439  0.00  0.00    +0.000 A 
ATOM     15  C   UNL     1     114.350 124.520 137.362  0.00  0.00    +0.000 A 
ATOM     16  C   UNL     1     114.897 125.429 136.405  0.00  0.00    +0.000 A 
ATOM     17  C   UNL     1     114.969 124.749 136.866  0.00  0.00    +0.000 A 
ENDBRANCH   5  12
BRANCH  10  18
ATOM     18  O   UNL     1     112.569 127.807 138.791  0.00  0.00    +0.000 OA
ATOM     19  C   UNL     1     113.040 128.483 138.777  0.00  0.00    +0.000 C 
ENDBRANCH  10  18
BRANCH  11  20
ATOM     20  O   UNL     1     111.192 128.714 138.866  0.00  0.00    +0.000 OA
ATOM     21  C   UNL     1     110.470 128.773 139.261  0.00  0.00    +0.000 C 
ENDBRANCH  11  20
BRANCH   3  22
ATOM     22  O   UNL     1     110.200 127.400 136.531  0.00  0.00    +0.000 OA
BRANCH  22  31
ATOM     23  O   UNL     1     110.354 128.605 135.780  0.00  0.00    +0.000 OA
ATOM     24  O   UNL     1     107.900 128.928 135.793  0.00  0.00    +0.000 OA
ATOM     25  O   UNL     1     108.873 130.026 135.038  0.00  0.00    +0.000 OA
ATOM     26  O   UNL     1     108.564 127.615 136.540  0.00  0.00    +0.000 OA
ATOM     27  C   UNL     1     108.718 128.821 135.789  0.00  0.00    +0.000 C 
ATOM     28  C   UNL     1     109.204 129.369 135.411  0.00  0.00    +0.000 C 
ATOM     29  C   UNL     1     109.049 128.163 136.162  0.00  0.00    +0.000 C 
ATOM     30  C   UNL     1     110.022 129.262 135.407  0.00  0.00    +0.000 C 
ATOM     31  C   UNL     1     109.867 128.056 136.158  0.00  0.00    +0.000 C 
BRANCH  30  33
ATOM     32  O   UNL     1     111.200 129.559 134.655  0.00  0.00    +0.000 OA
ATOM     33  C   UNL     1     110.509 129.810 135.029  0.00  0.00    +0.000 C 
ENDBRANCH  30  33
ENDBRANCH  22  31
ENDBRANCH   3  22
TORSDOF 6
ENDMDL
MODEL 4
REMARK VINA RESULT:      -8.7     12.313     14.062
REMARK  Name = 13963762
REMARK  6 active torsions:
REMARK  status: ('A' for Active; 'I' for Inactive)
REMARK    1  A    between atoms: O_2  and  C_15
REMARK    2  A    between atoms: O_2  and  C_17
REMARK    3  A    between atoms: O_8  and  C_24
REMARK    4  A    between atoms: O_10  and  C_26
REMARK    5  A    between atoms: C_14  and  C_16
REMARK    6  A    between atoms: C_19  and  C_25
REMARK                            x       y       z     vdW  Elec       q    Type
REMARK                         _______ _______ _______ _____ _____    ______ ____
ROOT
ATOM      1  O   UNL     1     113.419 127.417 136.919  0.00  0.00    +0.000 OA
ATOM      2  O   UNL     1     111.020 127.168 137.690  0.00  0.00    +0.000 OA
ATOM      3  C   UNL     1     111.602 128.661 137.196  0.00  0.00    +0.000 A 
ATOM      4  C   UNL     1     112.104 128.006 137.186  0.00  0.00    +0.000 A 
ATOM      5  C   UNL     1     113.135 126.645 137.169  0.00  0.00    +0.000 C 
ATOM      6  C   UNL     1     112.321 126.558 137.431  0.00  0.00    +0.000 C 
ATOM      7  C   UNL     1     112.886 128.090 136.934  0.00  0.00    +0.000 A 
ATOM      8  C   UNL     1     111.803 127.243 137.440  0.00  0.00    +0.000 C 
ATOM      9  C   UNL     1     111.880 129.398 136.955  0.00  0.00    +0.000 A 
ATOM     10  C   UNL     1     113.164 128.829 136.692  0.00  0.00    +0.000 A 
ATOM     11  C   UNL     1     112.661 129.482 136.703  0.00  0.00    +0.000 A 
ENDROOT
BRANCH   5  12
ATOM     12  C   UNL     1     113.640 125.993 137.157  0.00  0.00    +0.000 A 
ATOM     13  C   UNL     1     113.693 125.523 136.481  0.00  0.00    +0.000 A 
ATOM     14  C   UNL     1     114.093 125.811 137.822  0.00  0.00    +0.000 A 
ATOM     15  C   UNL     1     114.198 124.872 136.470  0.00  0.00    +0.000 A 
ATOM     16  C   UNL     1     114.599 125.159 137.812  0.00  0.00    +0.000 A 
ATOM     17  C   UNL     1     114.652 124.689 137.135  0.00  0.00    +0.000 A 
ENDBRANCH   5  12
BRANCH  10  18
ATOM     18  O   UNL     1     113.946 128.913 136.441  0.00  0.00    +0.000 OA
ATOM     19  C   UNL     1     114.111 129.027 135.641  0.00  0.00    +0.000 C 
ENDBRANCH  10  18
BRANCH  11  20
ATOM     20  O   UNL     1     112.940 130.221 136.461  0.00  0.00    +0.000 OA
ATOM     21  C   UNL     1     112.762 130.894 136.905  0.00  0.00    +0.000 C 
ENDBRANCH  11  20
BRANCH   3  22
ATOM     22  O   UNL     1     110.821 128.577 137.448  0.00  0.00    +0.000 OA
BRANCH  22  31
ATOM     23  O   UNL     1     110.153 128.715 136.192  0.00  0.00    +0.000 OA
ATOM     24  O   UNL     1     108.467 130.186 137.252  0.00  0.00    +0.000 OA
ATOM     25  O   UNL     1     108.361 129.833 135.644  0.00  0.00    +0.000 OA
ATOM     26  O   UNL     1     109.697 129.557 138.154  0.00  0.00    +0.000 OA
ATOM     27  C   UNL     1     109.029 129.695 136.899  0.00  0.00    +0.000 C 
ATOM     28  C   UNL     1     108.976 129.520 136.095  0.00  0.00    +0.000 C 
ATOM     29  C   UNL     1     109.644 129.381 137.350  0.00  0.00    +0.000 C 
ATOM     30  C   UNL     1     109.537 129.029 135.742  0.00  0.00    +0.000 C 
ATOM     31  C   UNL     1     110.206 128.891 136.997  0.00  0.00    +0.000 C 
BRANCH  30  33
ATOM     32  O   UNL     1     109.689 128.100 134.667  0.00  0.00    +0.000 OA
ATOM     33  C   UNL     1     109.485 128.853 134.938  0.00  0.00    +0.000 C 
ENDBRANCH  30  33
ENDBRANCH  22  31
ENDBRANCH   3  22
TORSDOF 6
ENDMDL
MODEL 5
REMARK VINA RESULT:      -8.7     12.481     14.653
REMARK  Name = 13963762
REMARK  6 active torsions:
REMARK  status: ('A' for Active; 'I' for Inactive)
REMARK    1  A    between atoms: O_2  and  C_15
REMARK    2  A    between atoms: O_2  and  C_17
REMARK    3  A    between atoms: O_8  and  C_24
REMARK    4  A    between atoms: O_10  and  C_26
REMARK    5  A    between atoms: C_14  and  C_16
REMARK    6  A    between atoms: C_19  and  C_25
REMARK                            x       y       z     vdW  Elec       q    Type
REMARK                         _______ _______ _______ _____ _____    ______ ____
ROOT
ATOM      1  O   UNL     1     113.047 129.043 135.314  0.00  0.00    +0.000 OA
ATOM      2  O   UNL     1     113.922 127.008 136.540  0.00  0.00    +0.000 OA
ATOM      3  C   UNL     1     112.336 127.056 135.999  0.00  0.00    +0.000 A 
ATOM      4  C   UNL     1     112.831 127.702 135.863  0.00  0.00    +0.000 A 
ATOM      5  C   UNL     1     113.863 129.033 135.586  0.00  0.00    +0.000 C 
ATOM      6  C   UNL     1     114.163 128.344 136.002  0.00  0.00    +0.000 C 
ATOM      7  C   UNL     1     112.543 128.364 135.463  0.00  0.00    +0.000 A 
ATOM      8  C   UNL     1     113.642 127.674 136.141  0.00  0.00    +0.000 C 
ATOM      9  C   UNL     1     111.554 127.072 135.737  0.00  0.00    +0.000 A 
ATOM     10  C   UNL     1     111.760 128.380 135.200  0.00  0.00    +0.000 A 
ATOM     11  C   UNL     1     111.267 127.734 135.337  0.00  0.00    +0.000 A 
ENDROOT
BRANCH   5  12
ATOM     12  C   UNL     1     114.355 129.682 135.447  0.00  0.00    +0.000 A 
ATOM     13  C   UNL     1     114.402 130.290 136.002  0.00  0.00    +0.000 A 
ATOM     14  C   UNL     1     114.798 129.721 134.752  0.00  0.00    +0.000 A 
ATOM     15  C   UNL     1     114.893 130.938 135.863  0.00  0.00    +0.000 A 
ATOM     16  C   UNL     1     115.290 130.369 134.613  0.00  0.00    +0.000 A 
ATOM     17  C   UNL     1     115.338 130.977 135.168  0.00  0.00    +0.000 A 
ENDBRANCH   5  12
BRANCH  10  18
ATOM     18  O   UNL     1     111.473 129.042 134.800  0.00  0.00    +0.000 OA
ATOM     19  C   UNL     1     110.925 129.538 135.165  0.00  0.00    +0.000 C 
ENDBRANCH  10  18
BRANCH  11  20
ATOM     20  O   UNL     1     110.484 127.749 135.074  0.00  0.00    +0.000 OA
ATOM     21  C   UNL     1     110.166 127.092 134.690  0.00  0.00    +0.000 C 
ENDBRANCH  11  20
BRANCH   3  22
ATOM     22  O   UNL     1     112.623 126.394 136.399  0.00  0.00    +0.000 OA
BRANCH  22  31
ATOM     23  O   UNL     1     111.890 126.522 137.619  0.00  0.00    +0.000 OA
ATOM     24  O   UNL     1     111.428 124.090 137.595  0.00  0.00    +0.000 OA
ATOM     25  O   UNL     1     110.848 125.028 138.821  0.00  0.00    +0.000 OA
ATOM     26  O   UNL     1     112.315 124.774 136.383  0.00  0.00    +0.000 OA
ATOM     27  C   UNL     1     111.582 124.901 137.603  0.00  0.00    +0.000 C 
ATOM     28  C   UNL     1     111.292 125.369 138.216  0.00  0.00    +0.000 C 
ATOM     29  C   UNL     1     112.026 125.242 136.996  0.00  0.00    +0.000 C 
ATOM     30  C   UNL     1     111.446 126.180 138.224  0.00  0.00    +0.000 C 
ATOM     31  C   UNL     1     112.180 126.052 137.005  0.00  0.00    +0.000 C 
BRANCH  30  33
ATOM     32  O   UNL     1     111.648 127.207 139.197  0.00  0.00    +0.000 OA
ATOM     33  C   UNL     1     111.156 126.649 138.837  0.00  0.00    +0.000 C 
ENDBRANCH  30  33
ENDBRANCH  22  31
ENDBRANCH   3  22
TORSDOF 6
ENDMDL
MODEL 6
REMARK VINA RESULT:      -8.6      9.941     12.184
REMARK  Name = 13963762
REMARK  6 active torsions:
REMARK  status: ('A' for Active; 'I' for Inactive)
REMARK    1  A    between atoms: O_2  and  C_15
REMARK    2  A    between atoms: O_2  and  C_17
REMARK    3  A    between atoms: O_8  and  C_24
REMARK    4  A    between atoms: O_10  and  C_26
REMARK    5  A    between atoms: C_14  and  C_16
REMARK    6  A    between atoms: C_19  and  C_25
REMARK                            x       y       z     vdW  Elec       q    Type
REMARK                         _______ _______ _______ _____ _____    ______ ____
ROOT
ATOM      1  O   UNL     1     112.982 126.820 137.643  0.00  0.00    +0.000 OA
ATOM      2  O   UNL     1     113.768 126.722 140.048  0.00  0.00    +0.000 OA
ATOM      3  C   UNL     1     112.733 127.940 139.542  0.00  0.00    +0.000 A 
ATOM      4  C   UNL     1     112.985 127.371 139.000  0.00  0.00    +0.000 A 
ATOM      5  C   UNL     1     113.512 126.189 137.887  0.00  0.00    +0.000 C 
ATOM      6  C   UNL     1     113.781 126.153 138.703  0.00  0.00    +0.000 C 
ATOM      7  C   UNL     1     112.727 127.406 138.217  0.00  0.00    +0.000 A 
ATOM      8  C   UNL     1     113.515 126.749 139.263  0.00  0.00    +0.000 C 
ATOM      9  C   UNL     1     112.224 128.542 139.302  0.00  0.00    +0.000 A 
ATOM     10  C   UNL     1     112.217 128.009 137.977  0.00  0.00    +0.000 A 
ATOM     11  C   UNL     1     111.966 128.577 138.519  0.00  0.00    +0.000 A 
ENDROOT
BRANCH   5  12
ATOM     12  C   UNL     1     113.762 125.622 137.342  0.00  0.00    +0.000 A 
ATOM     13  C   UNL     1     114.447 125.748 136.899  0.00  0.00    +0.000 A 
ATOM     14  C   UNL     1     113.327 124.929 137.240  0.00  0.00    +0.000 A 
ATOM     15  C   UNL     1     114.696 125.182 136.355  0.00  0.00    +0.000 A 
ATOM     16  C   UNL     1     113.576 124.362 136.695  0.00  0.00    +0.000 A 
ATOM     17  C   UNL     1     114.260 124.488 136.252  0.00  0.00    +0.000 A 
ENDBRANCH   5  12
BRANCH  10  18
ATOM     18  O   UNL     1     111.960 128.043 137.194  0.00  0.00    +0.000 OA
ATOM     19  C   UNL     1     111.180 127.851 137.008  0.00  0.00    +0.000 C 
ENDBRANCH  10  18
BRANCH  11  20
ATOM     20  O   UNL     1     111.456 129.180 138.279  0.00  0.00    +0.000 OA
ATOM     21  C   UNL     1     111.582 129.953 138.538  0.00  0.00    +0.000 C 
ENDBRANCH  11  20
BRANCH   3  22
ATOM     22  O   UNL     1     112.990 127.906 140.325  0.00  0.00    +0.000 OA
BRANCH  22  31
ATOM     23  O   UNL     1     111.800 127.419 140.949  0.00  0.00    +0.000 OA
ATOM     24  O   UNL     1     112.085 129.064 142.776  0.00  0.00    +0.000 OA
ATOM     25  O   UNL     1     110.801 128.029 142.791  0.00  0.00    +0.000 OA
ATOM     26  O   UNL     1     113.180 129.002 141.543  0.00  0.00    +0.000 OA
ATOM     27  C   UNL     1     111.990 128.515 142.167  0.00  0.00    +0.000 C 
ATOM     28  C   UNL     1     111.348 127.998 142.175  0.00  0.00    +0.000 C 
ATOM     29  C   UNL     1     112.538 128.485 141.551  0.00  0.00    +0.000 C 
ATOM     30  C   UNL     1     111.253 127.450 141.566  0.00  0.00    +0.000 C 
ATOM     31  C   UNL     1     112.443 127.937 140.942  0.00  0.00    +0.000 C 
BRANCH  30  33
ATOM     32  O   UNL     1     110.729 126.128 141.429  0.00  0.00    +0.000 OA
ATOM     33  C   UNL     1     110.611 126.932 141.573  0.00  0.00    +0.000 C 
ENDBRANCH  30  33
ENDBRANCH  22  31
ENDBRANCH   3  22
TORSDOF 6
ENDMDL
MODEL 7
REMARK VINA RESULT:      -8.6     13.186     14.612
REMARK  Name = 13963762
REMARK  6 active torsions:
REMARK  status: ('A' for Active; 'I' for Inactive)
REMARK    1  A    between atoms: O_2  and  C_15
REMARK    2  A    between atoms: O_2  and  C_17
REMARK    3  A    between atoms: O_8  and  C_24
REMARK    4  A    between atoms: O_10  and  C_26
REMARK    5  A    between atoms: C_14  and  C_16
REMARK    6  A    between atoms: C_19  and  C_25
REMARK                            x       y       z     vdW  Elec       q    Type
REMARK                         _______ _______ _______ _____ _____    ______ ____
ROOT
ATOM      1  O   UNL     1     113.826 127.483 136.471  0.00  0.00    +0.000 OA
ATOM      2  O   UNL     1     112.092 128.344 138.103  0.00  0.00    +0.000 OA
ATOM      3  C   UNL     1     112.927 129.408 137.112  0.00  0.00    +0.000 A 
ATOM      4  C   UNL     1     113.086 128.599 137.064  0.00  0.00    +0.000 A 
ATOM      5  C   UNL     1     113.407 126.925 136.973  0.00  0.00    +0.000 C 
ATOM      6  C   UNL     1     112.818 127.214 137.528  0.00  0.00    +0.000 C 
ATOM      7  C   UNL     1     113.651 128.322 136.531  0.00  0.00    +0.000 A 
ATOM      8  C   UNL     1     112.656 128.058 137.574  0.00  0.00    +0.000 C 
ATOM      9  C   UNL     1     113.333 129.938 136.628  0.00  0.00    +0.000 A 
ATOM     10  C   UNL     1     114.058 128.852 136.047  0.00  0.00    +0.000 A 
ATOM     11  C   UNL     1     113.898 129.660 136.096  0.00  0.00    +0.000 A 
ENDROOT
BRANCH   5  12
ATOM     12  C   UNL     1     113.569 126.117 136.922  0.00  0.00    +0.000 A 
ATOM     13  C   UNL     1     113.081 125.626 136.474  0.00  0.00    +0.000 A 
ATOM     14  C   UNL     1     114.219 125.802 137.320  0.00  0.00    +0.000 A 
ATOM     15  C   UNL     1     113.243 124.819 136.423  0.00  0.00    +0.000 A 
ATOM     16  C   UNL     1     114.382 124.995 137.269  0.00  0.00    +0.000 A 
ATOM     17  C   UNL     1     113.894 124.503 136.821  0.00  0.00    +0.000 A 
ENDBRANCH   5  12
BRANCH  10  18
ATOM     18  O   UNL     1     114.623 128.575 135.514  0.00  0.00    +0.000 OA
ATOM     19  C   UNL     1     114.499 128.652 134.703  0.00  0.00    +0.000 C 
ENDBRANCH  10  18
BRANCH  11  20
ATOM     20  O   UNL     1     114.305 130.191 135.611  0.00  0.00    +0.000 OA
ATOM     21  C   UNL     1     114.624 130.880 135.932  0.00  0.00    +0.000 C 
ENDBRANCH  11  20
BRANCH   3  22
ATOM     22  O   UNL     1     112.361 129.685 137.645  0.00  0.00    +0.000 OA
BRANCH  22  31
ATOM     23  O   UNL     1     111.331 130.079 136.736  0.00  0.00    +0.000 OA
ATOM     24  O   UNL     1     111.040 132.196 137.985  0.00  0.00    +0.000 OA
ATOM     25  O   UNL     1     110.107 131.884 136.661  0.00  0.00    +0.000 OA
ATOM     26  O   UNL     1     112.167 131.097 138.477  0.00  0.00    +0.000 OA
ATOM     27  C   UNL     1     111.137 131.491 137.569  0.00  0.00    +0.000 C 
ATOM     28  C   UNL     1     110.670 131.335 136.907  0.00  0.00    +0.000 C 
ATOM     29  C   UNL     1     111.701 130.941 137.815  0.00  0.00    +0.000 C 
ATOM     30  C   UNL     1     110.767 130.629 136.491  0.00  0.00    +0.000 C 
ATOM     31  C   UNL     1     111.798 130.235 137.399  0.00  0.00    +0.000 C 
BRANCH  30  33
ATOM     32  O   UNL     1     109.990 129.717 135.713  0.00  0.00    +0.000 OA
ATOM     33  C   UNL     1     110.301 130.473 135.829  0.00  0.00    +0.000 C 
ENDBRANCH  30  33
ENDBRANCH  22  31
ENDBRANCH   3  22
TORSDOF 6
ENDMDL
MODEL 8
REMARK VINA RESULT:      -8.3     11.607     13.656
REMARK  Name = 13963762
REMARK  6 active torsions:
REMARK  status: ('A' for Active; 'I' for Inactive)
REMARK    1  A    between atoms: O_2  and  C_15
REMARK    2  A    between atoms: O_2  and  C_17
REMARK    3  A    between atoms: O_8  and  C_24
REMARK    4  A    between atoms: O_10  and  C_26
REMARK    5  A    between atoms: C_14  and  C_16
REMARK    6  A    between atoms: C_19  and  C_25
REMARK                            x       y       z     vdW  Elec       q    Type
REMARK                         _______ _______ _______ _____ _____    ______ ____
ROOT
ATOM      1  O   UNL     1     112.792 126.291 137.949  0.00  0.00    +0.000 OA
ATOM      2  O   UNL     1     113.244 127.939 136.080  0.00  0.00    +0.000 OA
ATOM      3  C   UNL     1     113.231 128.450 137.678  0.00  0.00    +0.000 A 
ATOM      4  C   UNL     1     113.089 127.655 137.504  0.00  0.00    +0.000 A 
ATOM      5  C   UNL     1     112.796 126.015 137.134  0.00  0.00    +0.000 C 
ATOM      6  C   UNL     1     112.949 126.572 136.499  0.00  0.00    +0.000 C 
ATOM      7  C   UNL     1     112.942 127.121 138.115  0.00  0.00    +0.000 A 
ATOM      8  C   UNL     1     113.096 127.398 136.685  0.00  0.00    +0.000 C 
ATOM      9  C   UNL     1     113.226 128.709 138.460  0.00  0.00    +0.000 A 
ATOM     10  C   UNL     1     112.937 127.380 138.899  0.00  0.00    +0.000 A 
ATOM     11  C   UNL     1     113.079 128.174 139.071  0.00  0.00    +0.000 A 
ENDROOT
BRANCH   5  12
ATOM     12  C   UNL     1     112.653 125.219 136.966  0.00  0.00    +0.000 A 
ATOM     13  C   UNL     1     113.270 124.673 136.998  0.00  0.00    +0.000 A 
ATOM     14  C   UNL     1     111.893 124.971 136.764  0.00  0.00    +0.000 A 
ATOM     15  C   UNL     1     113.128 123.879 136.830  0.00  0.00    +0.000 A 
ATOM     16  C   UNL     1     111.749 124.177 136.595  0.00  0.00    +0.000 A 
ATOM     17  C   UNL     1     112.366 123.630 136.628  0.00  0.00    +0.000 A 
ENDBRANCH   5  12
BRANCH  10  18
ATOM     18  O   UNL     1     112.790 126.845 139.510  0.00  0.00    +0.000 OA
ATOM     19  C   UNL     1     112.067 126.860 139.906  0.00  0.00    +0.000 C 
ENDBRANCH  10  18
BRANCH  11  20
ATOM     20  O   UNL     1     113.075 128.433 139.855  0.00  0.00    +0.000 OA
ATOM     21  C   UNL     1     113.668 128.939 140.124  0.00  0.00    +0.000 C 
ENDBRANCH  11  20
BRANCH   3  22
ATOM     22  O   UNL     1     113.378 128.984 137.067  0.00  0.00    +0.000 OA
BRANCH  22  31
ATOM     23  O   UNL     1     112.161 129.732 137.102  0.00  0.00    +0.000 OA
ATOM     24  O   UNL     1     113.447 131.836 136.889  0.00  0.00    +0.000 OA
ATOM     25  O   UNL     1     111.802 131.882 136.996  0.00  0.00    +0.000 OA
ATOM     26  O   UNL     1     114.236 130.387 136.925  0.00  0.00    +0.000 OA
ATOM     27  C   UNL     1     113.019 131.135 136.960  0.00  0.00    +0.000 C 
ATOM     28  C   UNL     1     112.196 131.158 137.013  0.00  0.00    +0.000 C 
ATOM     29  C   UNL     1     113.413 130.410 136.978  0.00  0.00    +0.000 C 
ATOM     30  C   UNL     1     111.767 130.457 137.084  0.00  0.00    +0.000 C 
ATOM     31  C   UNL     1     112.985 129.709 137.049  0.00  0.00    +0.000 C 
BRANCH  30  33
ATOM     32  O   UNL     1     110.489 129.944 136.706  0.00  0.00    +0.000 OA
ATOM     33  C   UNL     1     110.945 130.480 137.138  0.00  0.00    +0.000 C 
ENDBRANCH  30  33
ENDBRANCH  22  31
ENDBRANCH   3  22
TORSDOF 6
ENDMDL
MODEL 9
REMARK VINA RESULT:      -8.3     11.298     13.483
REMARK  Name = 13963762
REMARK  6 active torsions:
REMARK  status: ('A' for Active; 'I' for Inactive)
REMARK    1  A    between atoms: O_2  and  C_15
REMARK    2  A    between atoms: O_2  and  C_17
REMARK    3  A    between atoms: O_8  and  C_24
REMARK    4  A    between atoms: O_10  and  C_26
REMARK    5  A    between atoms: C_14  and  C_16
REMARK    6  A    between atoms: C_19  and  C_25
REMARK                            x       y       z     vdW  Elec       q    Type
REMARK                         _______ _______ _______ _____ _____    ______ ____
ROOT
ATOM      1  O   UNL     1     112.419 126.642 137.893  0.00  0.00    +0.000 OA
ATOM      2  O   UNL     1     113.378 128.922 137.350  0.00  0.00    +0.000 OA
ATOM      3  C   UNL     1     111.882 128.785 138.095  0.00  0.00    +0.000 A 
ATOM      4  C   UNL     1     112.305 128.102 137.906  0.00  0.00    +0.000 A 
ATOM      5  C   UNL     1     113.188 126.696 137.511  0.00  0.00    +0.000 C 
ATOM      6  C   UNL     1     113.516 127.468 137.326  0.00  0.00    +0.000 C 
ATOM      7  C   UNL     1     111.990 127.361 138.084  0.00  0.00    +0.000 A 
ATOM      8  C   UNL     1     113.071 128.176 137.525  0.00  0.00    +0.000 C 
ATOM      9  C   UNL     1     111.146 128.727 138.461  0.00  0.00    +0.000 A 
ATOM     10  C   UNL     1     111.252 127.302 138.451  0.00  0.00    +0.000 A 
ATOM     11  C   UNL     1     110.831 127.986 138.639  0.00  0.00    +0.000 A 
ENDROOT
BRANCH   5  12
ATOM     12  C   UNL     1     113.607 126.010 137.323  0.00  0.00    +0.000 A 
ATOM     13  C   UNL     1     113.488 125.638 136.597  0.00  0.00    +0.000 A 
ATOM     14  C   UNL     1     114.147 125.697 137.864  0.00  0.00    +0.000 A 
ATOM     15  C   UNL     1     113.907 124.953 136.410  0.00  0.00    +0.000 A 
ATOM     16  C   UNL     1     114.566 125.011 137.677  0.00  0.00    +0.000 A 
ATOM     17  C   UNL     1     114.447 124.639 136.951  0.00  0.00    +0.000 A 
ENDBRANCH   5  12
BRANCH  10  18
ATOM     18  O   UNL     1     110.938 126.561 138.629  0.00  0.00    +0.000 OA
ATOM     19  C   UNL     1     110.303 126.267 138.193  0.00  0.00    +0.000 C 
ENDBRANCH  10  18
BRANCH  11  20
ATOM     20  O   UNL     1     110.093 127.927 139.006  0.00  0.00    +0.000 OA
ATOM     21  C   UNL     1     109.912 128.414 139.646  0.00  0.00    +0.000 C 
ENDBRANCH  11  20
BRANCH   3  22
ATOM     22  O   UNL     1     112.197 129.527 137.917  0.00  0.00    +0.000 OA
BRANCH  22  31
ATOM     23  O   UNL     1     111.329 129.914 136.850  0.00  0.00    +0.000 OA
ATOM     24  O   UNL     1     111.117 132.172 137.842  0.00  0.00    +0.000 OA
ATOM     25  O   UNL     1     110.320 131.807 136.445  0.00  0.00    +0.000 OA
ATOM     26  O   UNL     1     112.055 131.032 138.579  0.00  0.00    +0.000 OA
ATOM     27  C   UNL     1     111.188 131.419 137.511  0.00  0.00    +0.000 C 
ATOM     28  C   UNL     1     110.789 131.237 136.813  0.00  0.00    +0.000 C 
ATOM     29  C   UNL     1     111.657 130.850 137.880  0.00  0.00    +0.000 C 
ATOM     30  C   UNL     1     110.860 130.485 136.482  0.00  0.00    +0.000 C 
ATOM     31  C   UNL     1     111.728 130.097 137.550  0.00  0.00    +0.000 C 
BRANCH  30  33
ATOM     32  O   UNL     1     110.839 129.858 135.198  0.00  0.00    +0.000 OA
ATOM     33  C   UNL     1     110.462 130.302 135.784  0.00  0.00    +0.000 C 
ENDBRANCH  30  33
ENDBRANCH  22  31
ENDBRANCH   3  22
TORSDOF 6
ENDMDL
MODEL 10
REMARK VINA RESULT:      -8.2     11.487     13.353
REMARK  Name = 13963762
REMARK  6 active torsions:
REMARK  status: ('A' for Active; 'I' for Inactive)
REMARK    1  A    between atoms: O_2  and  C_15
REMARK    2  A    between atoms: O_2  and  C_17
REMARK    3  A    between atoms: O_8  and  C_24
REMARK    4  A    between atoms: O_10  and  C_26
REMARK    5  A    between atoms: C_14  and  C_16
REMARK    6  A    between atoms: C_19  and  C_25
REMARK                            x       y       z     vdW  Elec       q    Type
REMARK                         _______ _______ _______ _____ _____    ______ ____
ROOT
ATOM      1  O   UNL     1     112.917 126.978 136.660  0.00  0.00    +0.000 OA
ATOM      2  O   UNL     1     111.083 126.987 138.405  0.00  0.00    +0.000 OA
ATOM      3  C   UNL     1     111.184 128.220 137.273  0.00  0.00    +0.000 A 
ATOM      4  C   UNL     1     111.738 127.609 137.257  0.00  0.00    +0.000 A 
ATOM      5  C   UNL     1     112.879 126.339 137.234  0.00  0.00    +0.000 C 
ATOM      6  C   UNL     1     112.257 126.340 137.827  0.00  0.00    +0.000 C 
ATOM      7  C   UNL     1     112.334 127.609 136.688  0.00  0.00    +0.000 A 
ATOM      8  C   UNL     1     111.683 126.979 137.839  0.00  0.00    +0.000 C 
ATOM      9  C   UNL     1     111.226 128.830 136.721  0.00  0.00    +0.000 A 
ATOM     10  C   UNL     1     112.377 128.219 136.134  0.00  0.00    +0.000 A 
ATOM     11  C   UNL     1     111.823 128.830 136.151  0.00  0.00    +0.000 A 
ENDROOT
BRANCH   5  12
ATOM     12  C   UNL     1     113.435 125.730 137.215  0.00  0.00    +0.000 A 
ATOM     13  C   UNL     1     113.342 125.102 136.687  0.00  0.00    +0.000 A 
ATOM     14  C   UNL     1     114.084 125.749 137.723  0.00  0.00    +0.000 A 
ATOM     15  C   UNL     1     113.897 124.494 136.668  0.00  0.00    +0.000 A 
ATOM     16  C   UNL     1     114.641 125.140 137.704  0.00  0.00    +0.000 A 
ATOM     17  C   UNL     1     114.548 124.512 137.177  0.00  0.00    +0.000 A 
ENDBRANCH   5  12
BRANCH  10  18
ATOM     18  O   UNL     1     112.974 128.219 135.564  0.00  0.00    +0.000 OA
ATOM     19  C   UNL     1     113.602 128.749 135.625  0.00  0.00    +0.000 C 
ENDBRANCH  10  18
BRANCH  11  20
ATOM     20  O   UNL     1     111.865 129.441 135.597  0.00  0.00    +0.000 OA
ATOM     21  C   UNL     1     111.184 129.688 135.204  0.00  0.00    +0.000 C 
ENDBRANCH  11  20
BRANCH   3  22
ATOM     22  O   UNL     1     110.587 128.220 137.843  0.00  0.00    +0.000 OA
BRANCH  22  31
ATOM     23  O   UNL     1     111.022 129.306 138.664  0.00  0.00    +0.000 OA
ATOM     24  O   UNL     1     108.709 130.184 138.729  0.00  0.00    +0.000 OA
ATOM     25  O   UNL     1     109.915 130.976 139.528  0.00  0.00    +0.000 OA
ATOM     26  O   UNL     1     109.045 128.806 137.886  0.00  0.00    +0.000 OA
ATOM     27  C   UNL     1     109.480 129.891 138.707  0.00  0.00    +0.000 C 
ATOM     28  C   UNL     1     110.082 130.288 139.107  0.00  0.00    +0.000 C 
ATOM     29  C   UNL     1     109.647 129.202 138.286  0.00  0.00    +0.000 C 
ATOM     30  C   UNL     1     110.853 129.995 139.085  0.00  0.00    +0.000 C 
ATOM     31  C   UNL     1     110.418 128.909 138.264  0.00  0.00    +0.000 C 
BRANCH  30  33
ATOM     32  O   UNL     1     112.022 129.962 139.908  0.00  0.00    +0.000 OA
ATOM     33  C   UNL     1     111.457 130.391 139.485  0.00  0.00    +0.000 C 
ENDBRANCH  30  33
ENDBRANCH  22  31
ENDBRANCH   3  22
TORSDOF 6
ENDMDL
