MODEL 1
REMARK VINA RESULT:      -9.0      0.000      0.000
REMARK  Name = 44258530
REMARK  6 active torsions:
REMARK  status: ('A' for Active; 'I' for Inactive)
REMARK    1  A    between atoms: O_2  and  C_17
REMARK    2  A    between atoms: O_2  and  C_19
REMARK    3  A    between atoms: O_6  and  C_20
REMARK    4  A    between atoms: O_8  and  C_23
REMARK    5  A    between atoms: O_11  and  C_33
REMARK    6  A    between atoms: C_22  and  C_25
REMARK                            x       y       z     vdW  Elec       q    Type
REMARK                         _______ _______ _______ _____ _____    ______ ____
ROOT
ATOM      1  C   UNL     1     106.643 125.474 147.004  0.00  0.00    +0.000 A 
ATOM      2  C   UNL     1     106.949 125.196 147.719  0.00  0.00    +0.000 A 
ATOM      3  C   UNL     1     105.915 125.197 146.733  0.00  0.00    +0.000 A 
ATOM      4  C   UNL     1     105.492 124.644 147.175  0.00  0.00    +0.000 A 
ATOM      5  C   UNL     1     106.527 124.643 148.161  0.00  0.00    +0.000 A 
ATOM      6  C   UNL     1     105.798 124.367 147.889  0.00  0.00    +0.000 A 
ENDROOT
BRANCH   4  11
ATOM      7  O   UNL     1     104.036 124.641 147.268  0.00  0.00    +0.000 OA
ATOM      8  O   UNL     1     103.922 122.986 145.356  0.00  0.00    +0.000 OA
ATOM      9  O   UNL     1     102.483 122.997 145.462  0.00  0.00    +0.000 OA
ATOM     10  O   UNL     1     101.158 124.608 147.416  0.00  0.00    +0.000 OA
ATOM     11  C   UNL     1     104.764 124.368 146.903  0.00  0.00    +0.000 A 
ATOM     12  C   UNL     1     104.729 123.807 146.255  0.00  0.00    +0.000 A 
ATOM     13  C   UNL     1     103.247 123.810 146.355  0.00  0.00    +0.000 A 
ATOM     14  C   UNL     1     103.281 124.349 146.978  0.00  0.00    +0.000 A 
ATOM     15  C   UNL     1     103.964 123.525 145.978  0.00  0.00    +0.000 A 
ATOM     16  C   UNL     1     102.517 123.536 146.086  0.00  0.00    +0.000 A 
ATOM     17  C   UNL     1     102.584 124.615 147.332  0.00  0.00    +0.000 A 
ATOM     18  C   UNL     1     101.820 123.802 146.439  0.00  0.00    +0.000 A 
ATOM     19  C   UNL     1     101.854 124.342 147.063  0.00  0.00    +0.000 A 
BRANCH  18  20
ATOM     20  O   UNL     1     101.090 123.529 146.170  0.00  0.00    +0.000 OA
ATOM     21  C   UNL     1     100.711 122.911 146.564  0.00  0.00    +0.000 C 
ENDBRANCH  18  20
ENDBRANCH   4  11
BRANCH   2  22
ATOM     22  O   UNL     1     107.678 125.472 147.989  0.00  0.00    +0.000 OA
ATOM     23  C   UNL     1     108.345 124.988 147.945  0.00  0.00    +0.000 C 
ENDBRANCH   2  22
BRANCH   5  24
ATOM     24  O   UNL     1     106.833 124.366 148.875  0.00  0.00    +0.000 OA
ATOM     25  C   UNL     1     106.327 124.213 149.509  0.00  0.00    +0.000 C 
ENDBRANCH   5  24
BRANCH   1  26
ATOM     26  O   UNL     1     107.066 126.027 146.561  0.00  0.00    +0.000 OA
BRANCH  26  35
ATOM     27  O   UNL     1     106.309 127.201 146.864  0.00  0.00    +0.000 OA
ATOM     28  O   UNL     1     106.385 127.866 144.482  0.00  0.00    +0.000 OA
ATOM     29  O   UNL     1     105.603 128.817 145.579  0.00  0.00    +0.000 OA
ATOM     30  O   UNL     1     107.117 126.471 144.973  0.00  0.00    +0.000 OA
ATOM     31  C   UNL     1     106.360 127.644 145.276  0.00  0.00    +0.000 C 
ATOM     32  C   UNL     1     105.969 128.119 145.825  0.00  0.00    +0.000 C 
ATOM     33  C   UNL     1     106.726 126.946 145.522  0.00  0.00    +0.000 C 
ATOM     34  C   UNL     1     105.943 127.898 146.619  0.00  0.00    +0.000 C 
ATOM     35  C   UNL     1     106.700 126.724 146.316  0.00  0.00    +0.000 C 
ATOM     36  C   UNL     1     105.552 128.373 147.167  0.00  0.00    +0.000 C 
ENDBRANCH  26  35
ENDBRANCH   1  26
TORSDOF 6
ENDMDL
MODEL 2
REMARK VINA RESULT:      -8.9     10.589     13.507
REMARK  Name = 44258530
REMARK  6 active torsions:
REMARK  status: ('A' for Active; 'I' for Inactive)
REMARK    1  A    between atoms: O_2  and  C_17
REMARK    2  A    between atoms: O_2  and  C_19
REMARK    3  A    between atoms: O_6  and  C_20
REMARK    4  A    between atoms: O_8  and  C_23
REMARK    5  A    between atoms: O_11  and  C_33
REMARK    6  A    between atoms: C_22  and  C_25
REMARK                            x       y       z     vdW  Elec       q    Type
REMARK                         _______ _______ _______ _____ _____    ______ ____
ROOT
ATOM      1  C   UNL     1     112.221 125.739 136.452  0.00  0.00    +0.000 A 
ATOM      2  C   UNL     1     112.740 125.224 136.835  0.00  0.00    +0.000 A 
ATOM      3  C   UNL     1     112.412 126.538 136.379  0.00  0.00    +0.000 A 
ATOM      4  C   UNL     1     113.122 126.823 136.688  0.00  0.00    +0.000 A 
ATOM      5  C   UNL     1     113.450 125.509 137.144  0.00  0.00    +0.000 A 
ATOM      6  C   UNL     1     113.641 126.308 137.070  0.00  0.00    +0.000 A 
ENDROOT
BRANCH   4  11
ATOM      7  O   UNL     1     113.077 128.180 137.223  0.00  0.00    +0.000 OA
ATOM      8  O   UNL     1     114.359 129.013 135.205  0.00  0.00    +0.000 OA
ATOM      9  O   UNL     1     114.304 130.348 135.750  0.00  0.00    +0.000 OA
ATOM     10  O   UNL     1     113.011 130.874 138.244  0.00  0.00    +0.000 OA
ATOM     11  C   UNL     1     113.313 127.622 136.614  0.00  0.00    +0.000 A 
ATOM     12  C   UNL     1     113.748 127.901 135.928  0.00  0.00    +0.000 A 
ATOM     13  C   UNL     1     113.697 129.280 136.480  0.00  0.00    +0.000 A 
ATOM     14  C   UNL     1     113.280 129.011 137.138  0.00  0.00    +0.000 A 
ATOM     15  C   UNL     1     113.941 128.737 135.860  0.00  0.00    +0.000 A 
ATOM     16  C   UNL     1     113.886 130.080 136.409  0.00  0.00    +0.000 A 
ATOM     17  C   UNL     1     113.051 129.543 137.727  0.00  0.00    +0.000 A 
ATOM     18  C   UNL     1     113.658 130.611 136.997  0.00  0.00    +0.000 A 
ATOM     19  C   UNL     1     113.240 130.343 137.656  0.00  0.00    +0.000 A 
BRANCH  18  20
ATOM     20  O   UNL     1     113.846 131.411 136.926  0.00  0.00    +0.000 OA
ATOM     21  C   UNL     1     113.275 131.948 136.671  0.00  0.00    +0.000 C 
ENDBRANCH  18  20
ENDBRANCH   4  11
BRANCH   2  22
ATOM     22  O   UNL     1     112.548 124.425 136.909  0.00  0.00    +0.000 OA
ATOM     23  C   UNL     1     112.941 123.863 136.448  0.00  0.00    +0.000 C 
ENDBRANCH   2  22
BRANCH   5  24
ATOM     24  O   UNL     1     113.969 124.994 137.526  0.00  0.00    +0.000 OA
ATOM     25  C   UNL     1     114.578 125.295 137.994  0.00  0.00    +0.000 C 
ENDBRANCH   5  24
BRANCH   1  26
ATOM     26  O   UNL     1     111.510 125.455 136.143  0.00  0.00    +0.000 OA
BRANCH  26  35
ATOM     27  O   UNL     1     110.607 125.986 137.114  0.00  0.00    +0.000 OA
ATOM     28  O   UNL     1     109.056 126.656 135.305  0.00  0.00    +0.000 OA
ATOM     29  O   UNL     1     108.670 126.964 136.878  0.00  0.00    +0.000 OA
ATOM     30  O   UNL     1     110.477 125.901 134.937  0.00  0.00    +0.000 OA
ATOM     31  C   UNL     1     109.573 126.433 135.908  0.00  0.00    +0.000 C 
ATOM     32  C   UNL     1     109.380 126.586 136.695  0.00  0.00    +0.000 C 
ATOM     33  C   UNL     1     110.284 126.055 135.724  0.00  0.00    +0.000 C 
ATOM     34  C   UNL     1     109.897 126.363 137.298  0.00  0.00    +0.000 C 
ATOM     35  C   UNL     1     110.801 125.832 136.327  0.00  0.00    +0.000 C 
ATOM     36  C   UNL     1     109.703 126.517 138.084  0.00  0.00    +0.000 C 
ENDBRANCH  26  35
ENDBRANCH   1  26
TORSDOF 6
ENDMDL
MODEL 3
REMARK VINA RESULT:      -8.8     10.965     13.049
REMARK  Name = 44258530
REMARK  6 active torsions:
REMARK  status: ('A' for Active; 'I' for Inactive)
REMARK    1  A    between atoms: O_2  and  C_17
REMARK    2  A    between atoms: O_2  and  C_19
REMARK    3  A    between atoms: O_6  and  C_20
REMARK    4  A    between atoms: O_8  and  C_23
REMARK    5  A    between atoms: O_11  and  C_33
REMARK    6  A    between atoms: C_22  and  C_25
REMARK                            x       y       z     vdW  Elec       q    Type
REMARK                         _______ _______ _______ _____ _____    ______ ____
ROOT
ATOM      1  C   UNL     1     112.797 129.382 136.981  0.00  0.00    +0.000 A 
ATOM      2  C   UNL     1     113.303 129.729 136.430  0.00  0.00    +0.000 A 
ATOM      3  C   UNL     1     112.765 128.561 137.052  0.00  0.00    +0.000 A 
ATOM      4  C   UNL     1     113.239 128.087 136.571  0.00  0.00    +0.000 A 
ATOM      5  C   UNL     1     113.778 129.255 135.949  0.00  0.00    +0.000 A 
ATOM      6  C   UNL     1     113.745 128.434 136.021  0.00  0.00    +0.000 A 
ENDROOT
BRANCH   4  11
ATOM      7  O   UNL     1     112.534 126.831 136.332  0.00  0.00    +0.000 OA
ATOM      8  O   UNL     1     114.411 125.566 137.465  0.00  0.00    +0.000 OA
ATOM      9  O   UNL     1     113.698 124.335 137.219  0.00  0.00    +0.000 OA
ATOM     10  O   UNL     1     111.174 124.331 135.880  0.00  0.00    +0.000 OA
ATOM     11  C   UNL     1     113.207 127.265 136.643  0.00  0.00    +0.000 A 
ATOM     12  C   UNL     1     113.846 126.839 137.027  0.00  0.00    +0.000 A 
ATOM     13  C   UNL     1     113.121 125.566 136.780  0.00  0.00    +0.000 A 
ATOM     14  C   UNL     1     112.508 125.976 136.411  0.00  0.00    +0.000 A 
ATOM     15  C   UNL     1     113.802 125.983 137.097  0.00  0.00    +0.000 A 
ATOM     16  C   UNL     1     113.085 124.745 136.850  0.00  0.00    +0.000 A 
ATOM     17  C   UNL     1     111.858 125.564 136.110  0.00  0.00    +0.000 A 
ATOM     18  C   UNL     1     112.436 124.333 136.550  0.00  0.00    +0.000 A 
ATOM     19  C   UNL     1     111.823 124.743 136.180  0.00  0.00    +0.000 A 
BRANCH  18  20
ATOM     20  O   UNL     1     112.400 123.512 136.619  0.00  0.00    +0.000 OA
ATOM     21  C   UNL     1     111.931 123.168 137.204  0.00  0.00    +0.000 C 
ENDBRANCH  18  20
ENDBRANCH   4  11
BRANCH   2  22
ATOM     22  O   UNL     1     113.335 130.551 136.359  0.00  0.00    +0.000 OA
ATOM     23  C   UNL     1     113.959 130.970 136.701  0.00  0.00    +0.000 C 
ENDBRANCH   2  22
BRANCH   5  24
ATOM     24  O   UNL     1     114.284 129.602 135.399  0.00  0.00    +0.000 OA
ATOM     25  C   UNL     1     114.531 129.174 134.739  0.00  0.00    +0.000 C 
ENDBRANCH   5  24
BRANCH   1  26
ATOM     26  O   UNL     1     112.322 129.856 137.462  0.00  0.00    +0.000 OA
BRANCH  26  35
ATOM     27  O   UNL     1     111.053 129.622 136.848  0.00  0.00    +0.000 OA
ATOM     28  O   UNL     1     110.016 129.386 139.082  0.00  0.00    +0.000 OA
ATOM     29  O   UNL     1     109.093 129.231 137.724  0.00  0.00    +0.000 OA
ATOM     30  O   UNL     1     111.631 129.698 138.951  0.00  0.00    +0.000 OA
ATOM     31  C   UNL     1     110.362 129.465 138.337  0.00  0.00    +0.000 C 
ATOM     32  C   UNL     1     109.901 129.387 137.658  0.00  0.00    +0.000 C 
ATOM     33  C   UNL     1     111.170 129.621 138.272  0.00  0.00    +0.000 C 
ATOM     34  C   UNL     1     110.246 129.466 136.913  0.00  0.00    +0.000 C 
ATOM     35  C   UNL     1     111.515 129.700 137.527  0.00  0.00    +0.000 C 
ATOM     36  C   UNL     1     109.785 129.389 136.234  0.00  0.00    +0.000 C 
ENDBRANCH  26  35
ENDBRANCH   1  26
TORSDOF 6
ENDMDL
MODEL 4
REMARK VINA RESULT:      -8.6     10.173     13.255
REMARK  Name = 44258530
REMARK  6 active torsions:
REMARK  status: ('A' for Active; 'I' for Inactive)
REMARK    1  A    between atoms: O_2  and  C_17
REMARK    2  A    between atoms: O_2  and  C_19
REMARK    3  A    between atoms: O_6  and  C_20
REMARK    4  A    between atoms: O_8  and  C_23
REMARK    5  A    between atoms: O_11  and  C_33
REMARK    6  A    between atoms: C_22  and  C_25
REMARK                            x       y       z     vdW  Elec       q    Type
REMARK                         _______ _______ _______ _____ _____    ______ ____
ROOT
ATOM      1  C   UNL     1     111.145 126.920 138.220  0.00  0.00    +0.000 A 
ATOM      2  C   UNL     1     111.528 126.584 138.870  0.00  0.00    +0.000 A 
ATOM      3  C   UNL     1     111.520 127.509 137.780  0.00  0.00    +0.000 A 
ATOM      4  C   UNL     1     112.277 127.761 137.989  0.00  0.00    +0.000 A 
ATOM      5  C   UNL     1     112.285 126.836 139.079  0.00  0.00    +0.000 A 
ATOM      6  C   UNL     1     112.659 127.425 138.638  0.00  0.00    +0.000 A 
ENDROOT
BRANCH   4  11
ATOM      7  O   UNL     1     113.156 128.138 136.887  0.00  0.00    +0.000 OA
ATOM      8  O   UNL     1     112.830 130.581 137.469  0.00  0.00    +0.000 OA
ATOM      9  O   UNL     1     113.701 130.934 136.374  0.00  0.00    +0.000 OA
ATOM     10  O   UNL     1     114.885 128.926 134.720  0.00  0.00    +0.000 OA
ATOM     11  C   UNL     1     112.651 128.350 137.549  0.00  0.00    +0.000 A 
ATOM     12  C   UNL     1     112.538 129.177 137.749  0.00  0.00    +0.000 A 
ATOM     13  C   UNL     1     113.434 129.553 136.625  0.00  0.00    +0.000 A 
ATOM     14  C   UNL     1     113.542 128.758 136.433  0.00  0.00    +0.000 A 
ATOM     15  C   UNL     1     112.933 129.784 137.283  0.00  0.00    +0.000 A 
ATOM     16  C   UNL     1     113.810 130.139 136.182  0.00  0.00    +0.000 A 
ATOM     17  C   UNL     1     114.026 128.549 135.798  0.00  0.00    +0.000 A 
ATOM     18  C   UNL     1     114.293 129.930 135.547  0.00  0.00    +0.000 A 
ATOM     19  C   UNL     1     114.402 129.135 135.355  0.00  0.00    +0.000 A 
BRANCH  18  20
ATOM     20  O   UNL     1     114.669 130.516 135.105  0.00  0.00    +0.000 OA
ATOM     21  C   UNL     1     115.464 130.690 135.243  0.00  0.00    +0.000 C 
ENDBRANCH  18  20
ENDBRANCH   4  11
BRANCH   2  22
ATOM     22  O   UNL     1     111.152 125.995 139.309  0.00  0.00    +0.000 OA
ATOM     23  C   UNL     1     110.779 126.186 140.020  0.00  0.00    +0.000 C 
ENDBRANCH   2  22
BRANCH   5  24
ATOM     24  O   UNL     1     112.667 126.500 139.727  0.00  0.00    +0.000 OA
ATOM     25  C   UNL     1     113.478 126.607 139.828  0.00  0.00    +0.000 C 
ENDBRANCH   5  24
BRANCH   1  26
ATOM     26  O   UNL     1     110.388 126.667 138.011  0.00  0.00    +0.000 OA
BRANCH  26  35
ATOM     27  O   UNL     1     110.706 125.902 136.847  0.00  0.00    +0.000 OA
ATOM     28  O   UNL     1     108.777 126.901 135.661  0.00  0.00    +0.000 OA
ATOM     29  O   UNL     1     109.739 125.803 134.894  0.00  0.00    +0.000 OA
ATOM     30  O   UNL     1     109.101 127.334 137.220  0.00  0.00    +0.000 OA
ATOM     31  C   UNL     1     109.420 126.568 136.057  0.00  0.00    +0.000 C 
ATOM     32  C   UNL     1     109.901 126.018 135.673  0.00  0.00    +0.000 C 
ATOM     33  C   UNL     1     109.583 126.784 136.837  0.00  0.00    +0.000 C 
ATOM     34  C   UNL     1     110.544 125.685 136.069  0.00  0.00    +0.000 C 
ATOM     35  C   UNL     1     110.226 126.451 137.232  0.00  0.00    +0.000 C 
ATOM     36  C   UNL     1     111.025 125.137 135.685  0.00  0.00    +0.000 C 
ENDBRANCH  26  35
ENDBRANCH   1  26
TORSDOF 6
ENDMDL
MODEL 5
REMARK VINA RESULT:      -8.6     10.547     12.845
REMARK  Name = 44258530
REMARK  6 active torsions:
REMARK  status: ('A' for Active; 'I' for Inactive)
REMARK    1  A    between atoms: O_2  and  C_17
REMARK    2  A    between atoms: O_2  and  C_19
REMARK    3  A    between atoms: O_6  and  C_20
REMARK    4  A    between atoms: O_8  and  C_23
REMARK    5  A    between atoms: O_11  and  C_33
REMARK    6  A    between atoms: C_22  and  C_25
REMARK                            x       y       z     vdW  Elec       q    Type
REMARK                         _______ _______ _______ _____ _____    ______ ____
ROOT
ATOM      1  C   UNL     1     113.023 129.565 137.708  0.00  0.00    +0.000 A 
ATOM      2  C   UNL     1     113.527 129.959 137.186  0.00  0.00    +0.000 A 
ATOM      3  C   UNL     1     112.811 128.781 137.563  0.00  0.00    +0.000 A 
ATOM      4  C   UNL     1     113.101 128.391 136.896  0.00  0.00    +0.000 A 
ATOM      5  C   UNL     1     113.817 129.569 136.519  0.00  0.00    +0.000 A 
ATOM      6  C   UNL     1     113.604 128.785 136.375  0.00  0.00    +0.000 A 
ENDROOT
BRANCH   4  11
ATOM      7  O   UNL     1     113.392 126.966 137.024  0.00  0.00    +0.000 OA
ATOM      8  O   UNL     1     111.254 126.424 135.780  0.00  0.00    +0.000 OA
ATOM      9  O   UNL     1     111.558 125.020 135.916  0.00  0.00    +0.000 OA
ATOM     10  O   UNL     1     113.927 124.144 137.253  0.00  0.00    +0.000 OA
ATOM     11  C   UNL     1     112.888 127.607 136.752  0.00  0.00    +0.000 A 
ATOM     12  C   UNL     1     112.163 127.427 136.330  0.00  0.00    +0.000 A 
ATOM     13  C   UNL     1     112.465 125.979 136.464  0.00  0.00    +0.000 A 
ATOM     14  C   UNL     1     113.162 126.153 136.869  0.00  0.00    +0.000 A 
ATOM     15  C   UNL     1     111.949 126.606 136.184  0.00  0.00    +0.000 A 
ATOM     16  C   UNL     1     112.255 125.194 136.321  0.00  0.00    +0.000 A 
ATOM     17  C   UNL     1     113.650 125.541 137.133  0.00  0.00    +0.000 A 
ATOM     18  C   UNL     1     112.742 124.582 136.584  0.00  0.00    +0.000 A 
ATOM     19  C   UNL     1     113.440 124.756 136.990  0.00  0.00    +0.000 A 
BRANCH  18  20
ATOM     20  O   UNL     1     112.532 123.797 136.442  0.00  0.00    +0.000 OA
ATOM     21  C   UNL     1     112.152 123.360 137.029  0.00  0.00    +0.000 C 
ENDBRANCH  18  20
ENDBRANCH   4  11
BRANCH   2  22
ATOM     22  O   UNL     1     113.739 130.743 137.331  0.00  0.00    +0.000 OA
ATOM     23  C   UNL     1     113.376 131.353 136.910  0.00  0.00    +0.000 C 
ENDBRANCH   2  22
BRANCH   5  24
ATOM     24  O   UNL     1     114.320 129.963 135.998  0.00  0.00    +0.000 OA
ATOM     25  C   UNL     1     114.744 129.537 135.433  0.00  0.00    +0.000 C 
ENDBRANCH   5  24
BRANCH   1  26
ATOM     26  O   UNL     1     112.732 129.955 138.374  0.00  0.00    +0.000 OA
BRANCH  26  35
ATOM     27  O   UNL     1     113.510 129.315 139.388  0.00  0.00    +0.000 OA
ATOM     28  O   UNL     1     111.488 129.093 140.798  0.00  0.00    +0.000 OA
ATOM     29  O   UNL     1     112.939 128.528 141.342  0.00  0.00    +0.000 OA
ATOM     30  O   UNL     1     111.385 129.807 139.314  0.00  0.00    +0.000 OA
ATOM     31  C   UNL     1     112.162 129.167 140.328  0.00  0.00    +0.000 C 
ATOM     32  C   UNL     1     112.888 128.884 140.600  0.00  0.00    +0.000 C 
ATOM     33  C   UNL     1     112.110 129.524 139.586  0.00  0.00    +0.000 C 
ATOM     34  C   UNL     1     113.562 128.959 140.130  0.00  0.00    +0.000 C 
ATOM     35  C   UNL     1     112.784 129.598 139.116  0.00  0.00    +0.000 C 
ATOM     36  C   UNL     1     114.287 128.676 140.402  0.00  0.00    +0.000 C 
ENDBRANCH  26  35
ENDBRANCH   1  26
TORSDOF 6
ENDMDL
MODEL 6
REMARK VINA RESULT:      -8.6     10.662     12.352
REMARK  Name = 44258530
REMARK  6 active torsions:
REMARK  status: ('A' for Active; 'I' for Inactive)
REMARK    1  A    between atoms: O_2  and  C_17
REMARK    2  A    between atoms: O_2  and  C_19
REMARK    3  A    between atoms: O_6  and  C_20
REMARK    4  A    between atoms: O_8  and  C_23
REMARK    5  A    between atoms: O_11  and  C_33
REMARK    6  A    between atoms: C_22  and  C_25
REMARK                            x       y       z     vdW  Elec       q    Type
REMARK                         _______ _______ _______ _____ _____    ______ ____
ROOT
ATOM      1  C   UNL     1     112.032 125.537 137.558  0.00  0.00    +0.000 A 
ATOM      2  C   UNL     1     112.645 125.059 137.281  0.00  0.00    +0.000 A 
ATOM      3  C   UNL     1     112.195 126.151 138.084  0.00  0.00    +0.000 A 
ATOM      4  C   UNL     1     112.970 126.288 138.333  0.00  0.00    +0.000 A 
ATOM      5  C   UNL     1     113.420 125.195 137.529  0.00  0.00    +0.000 A 
ATOM      6  C   UNL     1     113.581 125.810 138.055  0.00  0.00    +0.000 A 
ENDROOT
BRANCH   4  11
ATOM      7  O   UNL     1     113.141 127.716 138.582  0.00  0.00    +0.000 OA
ATOM      8  O   UNL     1     113.612 127.229 141.021  0.00  0.00    +0.000 OA
ATOM      9  O   UNL     1     113.777 128.644 141.248  0.00  0.00    +0.000 OA
ATOM     10  O   UNL     1     113.487 130.526 139.118  0.00  0.00    +0.000 OA
ATOM     11  C   UNL     1     113.131 126.903 138.859  0.00  0.00    +0.000 A 
ATOM     12  C   UNL     1     113.290 126.734 139.685  0.00  0.00    +0.000 A 
ATOM     13  C   UNL     1     113.463 128.189 139.931  0.00  0.00    +0.000 A 
ATOM     14  C   UNL     1     113.310 128.350 139.137  0.00  0.00    +0.000 A 
ATOM     15  C   UNL     1     113.458 127.382 140.226  0.00  0.00    +0.000 A 
ATOM     16  C   UNL     1     113.624 128.806 140.454  0.00  0.00    +0.000 A 
ATOM     17  C   UNL     1     113.318 129.130 138.865  0.00  0.00    +0.000 A 
ATOM     18  C   UNL     1     113.632 129.585 140.183  0.00  0.00    +0.000 A 
ATOM     19  C   UNL     1     113.479 129.747 139.389  0.00  0.00    +0.000 A 
BRANCH  18  20
ATOM     20  O   UNL     1     113.793 130.202 140.706  0.00  0.00    +0.000 OA
ATOM     21  C   UNL     1     114.540 130.553 140.711  0.00  0.00    +0.000 C 
ENDBRANCH  18  20
ENDBRANCH   4  11
BRANCH   2  22
ATOM     22  O   UNL     1     112.482 124.444 136.755  0.00  0.00    +0.000 OA
ATOM     23  C   UNL     1     112.423 123.669 137.032  0.00  0.00    +0.000 C 
ENDBRANCH   2  22
BRANCH   5  24
ATOM     24  O   UNL     1     114.032 124.718 137.252  0.00  0.00    +0.000 OA
ATOM     25  C   UNL     1     114.795 125.024 137.182  0.00  0.00    +0.000 C 
ENDBRANCH   5  24
BRANCH   1  26
ATOM     26  O   UNL     1     111.257 125.400 137.310  0.00  0.00    +0.000 OA
BRANCH  26  35
ATOM     27  O   UNL     1     111.102 126.424 136.325  0.00  0.00    +0.000 OA
ATOM     28  O   UNL     1     108.915 127.038 137.306  0.00  0.00    +0.000 OA
ATOM     29  O   UNL     1     109.489 127.856 135.994  0.00  0.00    +0.000 OA
ATOM     30  O   UNL     1     109.799 125.810 137.964  0.00  0.00    +0.000 OA
ATOM     31  C   UNL     1     109.644 126.833 136.979  0.00  0.00    +0.000 C 
ATOM     32  C   UNL     1     109.932 127.242 136.323  0.00  0.00    +0.000 C 
ATOM     33  C   UNL     1     110.087 126.218 137.308  0.00  0.00    +0.000 C 
ATOM     34  C   UNL     1     110.661 127.037 135.996  0.00  0.00    +0.000 C 
ATOM     35  C   UNL     1     110.816 126.014 136.981  0.00  0.00    +0.000 C 
ATOM     36  C   UNL     1     110.948 127.446 135.340  0.00  0.00    +0.000 C 
ENDBRANCH  26  35
ENDBRANCH   1  26
TORSDOF 6
ENDMDL
MODEL 7
REMARK VINA RESULT:      -8.4     11.237     13.595
REMARK  Name = 44258530
REMARK  6 active torsions:
REMARK  status: ('A' for Active; 'I' for Inactive)
REMARK    1  A    between atoms: O_2  and  C_17
REMARK    2  A    between atoms: O_2  and  C_19
REMARK    3  A    between atoms: O_6  and  C_20
REMARK    4  A    between atoms: O_8  and  C_23
REMARK    5  A    between atoms: O_11  and  C_33
REMARK    6  A    between atoms: C_22  and  C_25
REMARK                            x       y       z     vdW  Elec       q    Type
REMARK                         _______ _______ _______ _____ _____    ______ ____
ROOT
ATOM      1  C   UNL     1     113.376 130.565 137.809  0.00  0.00    +0.000 A 
ATOM      2  C   UNL     1     113.280 130.341 138.598  0.00  0.00    +0.000 A 
ATOM      3  C   UNL     1     112.729 130.840 137.377  0.00  0.00    +0.000 A 
ATOM      4  C   UNL     1     111.987 130.892 137.733  0.00  0.00    +0.000 A 
ATOM      5  C   UNL     1     112.538 130.394 138.954  0.00  0.00    +0.000 A 
ATOM      6  C   UNL     1     111.892 130.669 138.521  0.00  0.00    +0.000 A 
ENDROOT
BRANCH   4  11
ATOM      7  O   UNL     1     110.800 130.612 136.931  0.00  0.00    +0.000 OA
ATOM      8  O   UNL     1     110.390 133.097 136.677  0.00  0.00    +0.000 OA
ATOM      9  O   UNL     1     109.220 132.800 135.887  0.00  0.00    +0.000 OA
ATOM     10  O   UNL     1     108.449 130.102 135.344  0.00  0.00    +0.000 OA
ATOM     11  C   UNL     1     111.341 131.168 137.301  0.00  0.00    +0.000 A 
ATOM     12  C   UNL     1     111.205 132.011 137.216  0.00  0.00    +0.000 A 
ATOM     13  C   UNL     1     109.998 131.717 136.401  0.00  0.00    +0.000 A 
ATOM     14  C   UNL     1     110.130 130.907 136.483  0.00  0.00    +0.000 A 
ATOM     15  C   UNL     1     110.528 132.288 136.763  0.00  0.00    +0.000 A 
ATOM     16  C   UNL     1     109.351 131.989 135.968  0.00  0.00    +0.000 A 
ATOM     17  C   UNL     1     109.613 130.368 136.130  0.00  0.00    +0.000 A 
ATOM     18  C   UNL     1     108.835 131.451 135.615  0.00  0.00    +0.000 A 
ATOM     19  C   UNL     1     108.966 130.640 135.696  0.00  0.00    +0.000 A 
BRANCH  18  20
ATOM     20  O   UNL     1     108.188 131.723 135.182  0.00  0.00    +0.000 OA
ATOM     21  C   UNL     1     107.439 131.739 135.527  0.00  0.00    +0.000 C 
ENDBRANCH  18  20
ENDBRANCH   4  11
BRANCH   2  22
ATOM     22  O   UNL     1     113.927 130.066 139.029  0.00  0.00    +0.000 OA
ATOM     23  C   UNL     1     114.276 130.548 139.602  0.00  0.00    +0.000 C 
ENDBRANCH   2  22
BRANCH   5  24
ATOM     24  O   UNL     1     112.442 130.171 139.742  0.00  0.00    +0.000 OA
ATOM     25  C   UNL     1     111.688 130.022 140.040  0.00  0.00    +0.000 C 
ENDBRANCH   5  24
BRANCH   1  26
ATOM     26  O   UNL     1     114.118 130.512 137.452  0.00  0.00    +0.000 OA
BRANCH  26  35
ATOM     27  O   UNL     1     113.894 129.343 136.663  0.00  0.00    +0.000 OA
ATOM     28  O   UNL     1     115.099 130.389 134.771  0.00  0.00    +0.000 OA
ATOM     29  O   UNL     1     114.473 128.872 134.612  0.00  0.00    +0.000 OA
ATOM     30  O   UNL     1     114.921 131.210 136.191  0.00  0.00    +0.000 OA
ATOM     31  C   UNL     1     114.697 130.040 135.401  0.00  0.00    +0.000 C 
ATOM     32  C   UNL     1     114.384 129.281 135.322  0.00  0.00    +0.000 C 
ATOM     33  C   UNL     1     114.608 130.451 136.112  0.00  0.00    +0.000 C 
ATOM     34  C   UNL     1     113.982 128.932 135.953  0.00  0.00    +0.000 C 
ATOM     35  C   UNL     1     114.207 130.102 136.743  0.00  0.00    +0.000 C 
ATOM     36  C   UNL     1     113.670 128.174 135.873  0.00  0.00    +0.000 C 
ENDBRANCH  26  35
ENDBRANCH   1  26
TORSDOF 6
ENDMDL
MODEL 8
REMARK VINA RESULT:      -8.4     10.733     12.650
REMARK  Name = 44258530
REMARK  6 active torsions:
REMARK  status: ('A' for Active; 'I' for Inactive)
REMARK    1  A    between atoms: O_2  and  C_17
REMARK    2  A    between atoms: O_2  and  C_19
REMARK    3  A    between atoms: O_6  and  C_20
REMARK    4  A    between atoms: O_8  and  C_23
REMARK    5  A    between atoms: O_11  and  C_33
REMARK    6  A    between atoms: C_22  and  C_25
REMARK                            x       y       z     vdW  Elec       q    Type
REMARK                         _______ _______ _______ _____ _____    ______ ____
ROOT
ATOM      1  C   UNL     1     112.518 126.878 138.569  0.00  0.00    +0.000 A 
ATOM      2  C   UNL     1     112.896 127.344 139.137  0.00  0.00    +0.000 A 
ATOM      3  C   UNL     1     112.142 127.236 137.928  0.00  0.00    +0.000 A 
ATOM      4  C   UNL     1     112.143 128.057 137.854  0.00  0.00    +0.000 A 
ATOM      5  C   UNL     1     112.898 128.165 139.062  0.00  0.00    +0.000 A 
ATOM      6  C   UNL     1     112.521 128.522 138.420  0.00  0.00    +0.000 A 
ENDROOT
BRANCH   4  11
ATOM      7  O   UNL     1     110.912 128.500 137.206  0.00  0.00    +0.000 OA
ATOM      8  O   UNL     1     112.257 129.348 135.237  0.00  0.00    +0.000 OA
ATOM      9  O   UNL     1     111.029 129.779 134.613  0.00  0.00    +0.000 OA
ATOM     10  O   UNL     1     108.505 129.387 135.894  0.00  0.00    +0.000 OA
ATOM     11  C   UNL     1     111.767 128.413 137.212  0.00  0.00    +0.000 A 
ATOM     12  C   UNL     1     112.226 128.700 136.545  0.00  0.00    +0.000 A 
ATOM     13  C   UNL     1     110.968 129.147 135.894  0.00  0.00    +0.000 A 
ATOM     14  C   UNL     1     110.528 128.872 136.534  0.00  0.00    +0.000 A 
ATOM     15  C   UNL     1     111.824 129.070 135.881  0.00  0.00    +0.000 A 
ATOM     16  C   UNL     1     110.588 129.503 135.253  0.00  0.00    +0.000 A 
ATOM     17  C   UNL     1     109.706 128.952 136.534  0.00  0.00    +0.000 A 
ATOM     18  C   UNL     1     109.767 129.583 135.254  0.00  0.00    +0.000 A 
ATOM     19  C   UNL     1     109.326 129.307 135.894  0.00  0.00    +0.000 A 
BRANCH  18  20
ATOM     20  O   UNL     1     109.387 129.939 134.613  0.00  0.00    +0.000 OA
ATOM     21  C   UNL     1     109.225 130.747 134.628  0.00  0.00    +0.000 C 
ENDBRANCH  18  20
ENDBRANCH   4  11
BRANCH   2  22
ATOM     22  O   UNL     1     113.273 126.986 139.778  0.00  0.00    +0.000 OA
ATOM     23  C   UNL     1     112.893 126.950 140.511  0.00  0.00    +0.000 C 
ENDBRANCH   2  22
BRANCH   5  24
ATOM     24  O   UNL     1     113.275 128.630 139.629  0.00  0.00    +0.000 OA
ATOM     25  C   UNL     1     113.412 129.430 139.482  0.00  0.00    +0.000 C 
ENDBRANCH   5  24
BRANCH   1  26
ATOM     26  O   UNL     1     112.517 126.057 138.644  0.00  0.00    +0.000 OA
BRANCH  26  35
ATOM     27  O   UNL     1     113.508 125.710 137.674  0.00  0.00    +0.000 OA
ATOM     28  O   UNL     1     112.034 123.921 136.807  0.00  0.00    +0.000 OA
ATOM     29  O   UNL     1     113.515 124.171 136.127  0.00  0.00    +0.000 OA
ATOM     30  O   UNL     1     111.534 124.864 138.065  0.00  0.00    +0.000 OA
ATOM     31  C   UNL     1     112.525 124.517 137.096  0.00  0.00    +0.000 C 
ATOM     32  C   UNL     1     113.266 124.643 136.756  0.00  0.00    +0.000 C 
ATOM     33  C   UNL     1     112.275 124.989 137.726  0.00  0.00    +0.000 C 
ATOM     34  C   UNL     1     113.758 125.239 137.045  0.00  0.00    +0.000 C 
ATOM     35  C   UNL     1     112.767 125.586 138.015  0.00  0.00    +0.000 C 
ATOM     36  C   UNL     1     114.498 125.364 136.705  0.00  0.00    +0.000 C 
ENDBRANCH  26  35
ENDBRANCH   1  26
TORSDOF 6
ENDMDL
MODEL 9
REMARK VINA RESULT:      -8.4      9.022     11.270
REMARK  Name = 44258530
REMARK  6 active torsions:
REMARK  status: ('A' for Active; 'I' for Inactive)
REMARK    1  A    between atoms: O_2  and  C_17
REMARK    2  A    between atoms: O_2  and  C_19
REMARK    3  A    between atoms: O_6  and  C_20
REMARK    4  A    between atoms: O_8  and  C_23
REMARK    5  A    between atoms: O_11  and  C_33
REMARK    6  A    between atoms: C_22  and  C_25
REMARK                            x       y       z     vdW  Elec       q    Type
REMARK                         _______ _______ _______ _____ _____    ______ ____
ROOT
ATOM      1  C   UNL     1     112.568 126.125 136.967  0.00  0.00    +0.000 A 
ATOM      2  C   UNL     1     112.713 125.329 136.802  0.00  0.00    +0.000 A 
ATOM      3  C   UNL     1     112.027 126.333 137.554  0.00  0.00    +0.000 A 
ATOM      4  C   UNL     1     111.630 125.745 137.976  0.00  0.00    +0.000 A 
ATOM      5  C   UNL     1     112.316 124.742 137.224  0.00  0.00    +0.000 A 
ATOM      6  C   UNL     1     111.775 124.951 137.811  0.00  0.00    +0.000 A 
ENDROOT
BRANCH   4  11
ATOM      7  O   UNL     1     111.362 126.139 139.356  0.00  0.00    +0.000 OA
ATOM      8  O   UNL     1     108.886 126.243 138.841  0.00  0.00    +0.000 OA
ATOM      9  O   UNL     1     108.641 126.630 140.209  0.00  0.00    +0.000 OA
ATOM     10  O   UNL     1     110.790 126.917 142.071  0.00  0.00    +0.000 OA
ATOM     11  C   UNL     1     111.089 125.954 138.563  0.00  0.00    +0.000 A 
ATOM     12  C   UNL     1     110.250 125.988 138.385  0.00  0.00    +0.000 A 
ATOM     13  C   UNL     1     109.986 126.388 139.791  0.00  0.00    +0.000 A 
ATOM     14  C   UNL     1     110.792 126.355 139.961  0.00  0.00    +0.000 A 
ATOM     15  C   UNL     1     109.694 126.207 139.004  0.00  0.00    +0.000 A 
ATOM     16  C   UNL     1     109.448 126.598 140.380  0.00  0.00    +0.000 A 
ATOM     17  C   UNL     1     111.061 126.532 140.722  0.00  0.00    +0.000 A 
ATOM     18  C   UNL     1     109.716 126.774 141.140  0.00  0.00    +0.000 A 
ATOM     19  C   UNL     1     110.522 126.741 141.311  0.00  0.00    +0.000 A 
BRANCH  18  20
ATOM     20  O   UNL     1     109.177 126.983 141.729  0.00  0.00    +0.000 OA
ATOM     21  C   UNL     1     109.054 127.778 141.911  0.00  0.00    +0.000 C 
ENDBRANCH  18  20
ENDBRANCH   4  11
BRANCH   2  22
ATOM     22  O   UNL     1     113.254 125.122 136.215  0.00  0.00    +0.000 OA
ATOM     23  C   UNL     1     114.010 124.863 136.425  0.00  0.00    +0.000 C 
ENDBRANCH   2  22
BRANCH   5  24
ATOM     24  O   UNL     1     112.460 123.947 137.060  0.00  0.00    +0.000 OA
ATOM     25  C   UNL     1     111.867 123.386 137.182  0.00  0.00    +0.000 C 
ENDBRANCH   5  24
BRANCH   1  26
ATOM     26  O   UNL     1     112.965 126.712 136.545  0.00  0.00    +0.000 OA
BRANCH  26  35
ATOM     27  O   UNL     1     111.908 127.132 135.680  0.00  0.00    +0.000 OA
ATOM     28  O   UNL     1     112.524 129.496 136.073  0.00  0.00    +0.000 OA
ATOM     29  O   UNL     1     111.262 129.127 135.078  0.00  0.00    +0.000 OA
ATOM     30  O   UNL     1     113.376 128.289 136.807  0.00  0.00    +0.000 OA
ATOM     31  C   UNL     1     112.318 128.708 135.942  0.00  0.00    +0.000 C 
ATOM     32  C   UNL     1     111.687 128.523 135.444  0.00  0.00    +0.000 C 
ATOM     33  C   UNL     1     112.745 128.104 136.309  0.00  0.00    +0.000 C 
ATOM     34  C   UNL     1     111.482 127.735 135.314  0.00  0.00    +0.000 C 
ATOM     35  C   UNL     1     112.539 127.316 136.178  0.00  0.00    +0.000 C 
ATOM     36  C   UNL     1     110.851 127.550 134.816  0.00  0.00    +0.000 C 
ENDBRANCH  26  35
ENDBRANCH   1  26
TORSDOF 6
ENDMDL
MODEL 10
REMARK VINA RESULT:      -8.4     10.565     11.923
REMARK  Name = 44258530
REMARK  6 active torsions:
REMARK  status: ('A' for Active; 'I' for Inactive)
REMARK    1  A    between atoms: O_2  and  C_17
REMARK    2  A    between atoms: O_2  and  C_19
REMARK    3  A    between atoms: O_6  and  C_20
REMARK    4  A    between atoms: O_8  and  C_23
REMARK    5  A    between atoms: O_11  and  C_33
REMARK    6  A    between atoms: C_22  and  C_25
REMARK                            x       y       z     vdW  Elec       q    Type
REMARK                         _______ _______ _______ _____ _____    ______ ____
ROOT
ATOM      1  C   UNL     1     113.030 128.954 139.565  0.00  0.00    +0.000 A 
ATOM      2  C   UNL     1     113.582 128.844 140.169  0.00  0.00    +0.000 A 
ATOM      3  C   UNL     1     112.738 128.303 139.150  0.00  0.00    +0.000 A 
ATOM      4  C   UNL     1     112.998 127.543 139.338  0.00  0.00    +0.000 A 
ATOM      5  C   UNL     1     113.842 128.083 140.357  0.00  0.00    +0.000 A 
ATOM      6  C   UNL     1     113.549 127.433 139.941  0.00  0.00    +0.000 A 
ENDROOT
BRANCH   4  11
ATOM      7  O   UNL     1     113.153 126.561 138.269  0.00  0.00    +0.000 OA
ATOM      8  O   UNL     1     110.931 125.526 138.904  0.00  0.00    +0.000 OA
ATOM      9  O   UNL     1     111.102 124.564 137.842  0.00  0.00    +0.000 OA
ATOM     10  O   UNL     1     113.420 124.605 136.170  0.00  0.00    +0.000 OA
ATOM     11  C   UNL     1     112.705 126.893 138.923  0.00  0.00    +0.000 A 
ATOM     12  C   UNL     1     111.951 126.545 139.141  0.00  0.00    +0.000 A 
ATOM     13  C   UNL     1     112.116 125.549 138.051  0.00  0.00    +0.000 A 
ATOM     14  C   UNL     1     112.840 125.884 137.842  0.00  0.00    +0.000 A 
ATOM     15  C   UNL     1     111.654 125.867 138.701  0.00  0.00    +0.000 A 
ATOM     16  C   UNL     1     111.826 124.899 137.633  0.00  0.00    +0.000 A 
ATOM     17  C   UNL     1     113.275 125.569 137.215  0.00  0.00    +0.000 A 
ATOM     18  C   UNL     1     112.261 124.584 137.006  0.00  0.00    +0.000 A 
ATOM     19  C   UNL     1     112.985 124.919 136.797  0.00  0.00    +0.000 A 
BRANCH  18  20
ATOM     20  O   UNL     1     111.971 123.935 136.589  0.00  0.00    +0.000 OA
ATOM     21  C   UNL     1     112.176 123.170 136.823  0.00  0.00    +0.000 C 
ENDBRANCH  18  20
ENDBRANCH   4  11
BRANCH   2  22
ATOM     22  O   UNL     1     113.874 129.494 140.583  0.00  0.00    +0.000 OA
ATOM     23  C   UNL     1     113.557 129.690 141.320  0.00  0.00    +0.000 C 
ENDBRANCH   2  22
BRANCH   5  24
ATOM     24  O   UNL     1     114.393 127.974 140.960  0.00  0.00    +0.000 OA
ATOM     25  C   UNL     1     114.839 127.280 140.990  0.00  0.00    +0.000 C 
ENDBRANCH   5  24
BRANCH   1  26
ATOM     26  O   UNL     1     112.771 129.714 139.376  0.00  0.00    +0.000 OA
BRANCH  26  35
ATOM     27  O   UNL     1     113.469 129.898 138.143  0.00  0.00    +0.000 OA
ATOM     28  O   UNL     1     111.434 130.886 137.139  0.00  0.00    +0.000 OA
ATOM     29  O   UNL     1     112.809 130.741 136.241  0.00  0.00    +0.000 OA
ATOM     30  O   UNL     1     111.414 130.373 138.707  0.00  0.00    +0.000 OA
ATOM     31  C   UNL     1     112.112 130.557 137.474  0.00  0.00    +0.000 C 
ATOM     32  C   UNL     1     112.800 130.484 137.025  0.00  0.00    +0.000 C 
ATOM     33  C   UNL     1     112.102 130.300 138.258  0.00  0.00    +0.000 C 
ATOM     34  C   UNL     1     113.479 130.154 137.360  0.00  0.00    +0.000 C 
ATOM     35  C   UNL     1     112.781 129.970 138.593  0.00  0.00    +0.000 C 
ATOM     36  C   UNL     1     114.166 130.082 136.911  0.00  0.00    +0.000 C 
ENDBRANCH  26  35
ENDBRANCH   1  26
TORSDOF 6
ENDMDL
