MODEL 1
REMARK VINA RESULT:      -7.6      0.000      0.000
REMARK  Name = 10200272
REMARK  6 active torsions:
REMARK  status: ('A' for Active; 'I' for Inactive)
REMARK    1  A    between atoms: O_2  and  C_12
REMARK    2  A    between atoms: O_3  and  C_15
REMARK    3  A    between atoms: O_4  and  C_17
REMARK    4  A    between atoms: O_7  and  C_21
REMARK    5  A    between atoms: O_8  and  C_22
REMARK    6  A    between atoms: C_11  and  C_14
REMARK                            x       y       z     vdW  Elec       q    Type
REMARK                         _______ _______ _______ _____ _____    ______ ____
ROOT
ATOM      1  O   UNL     1     104.269 124.497 146.781  0.00  0.00    +0.000 OA
ATOM      2  O   UNL     1     101.700 125.031 147.991  0.00  0.00    +0.000 OA
ATOM      3  O   UNL     1     102.913 125.581 148.545  0.00  0.00    +0.000 OA
ATOM      4  C   UNL     1     102.998 124.761 147.379  0.00  0.00    +0.000 A 
ATOM      5  C   UNL     1     103.450 124.399 146.791  0.00  0.00    +0.000 A 
ATOM      6  C   UNL     1     104.636 124.957 147.361  0.00  0.00    +0.000 A 
ATOM      7  C   UNL     1     104.184 125.318 147.949  0.00  0.00    +0.000 A 
ATOM      8  C   UNL     1     103.365 125.220 147.957  0.00  0.00    +0.000 A 
ATOM      9  C   UNL     1     103.079 123.918 146.183  0.00  0.00    +0.000 A 
ATOM     10  C   UNL     1     102.144 124.666 147.399  0.00  0.00    +0.000 A 
ATOM     11  C   UNL     1     102.227 123.813 146.187  0.00  0.00    +0.000 A 
ATOM     12  C   UNL     1     101.756 124.189 146.799  0.00  0.00    +0.000 A 
ENDROOT
BRANCH   6  13
ATOM     13  C   UNL     1     105.455 125.054 147.351  0.00  0.00    +0.000 A 
ATOM     14  C   UNL     1     105.803 125.573 146.812  0.00  0.00    +0.000 A 
ATOM     15  C   UNL     1     105.927 124.632 147.881  0.00  0.00    +0.000 A 
ATOM     16  C   UNL     1     106.623 125.670 146.803  0.00  0.00    +0.000 A 
ATOM     17  C   UNL     1     107.094 125.249 147.333  0.00  0.00    +0.000 A 
ATOM     18  C   UNL     1     106.746 124.730 147.872  0.00  0.00    +0.000 A 
BRANCH  16  19
ATOM     19  O   UNL     1     106.970 126.189 146.264  0.00  0.00    +0.000 OA
ATOM     20  C   UNL     1     106.500 126.610 145.734  0.00  0.00    +0.000 C 
ENDBRANCH  16  19
BRANCH  17  21
ATOM     21  O   UNL     1     107.913 125.345 147.324  0.00  0.00    +0.000 OA
ATOM     22  C   UNL     1     108.376 125.000 147.912  0.00  0.00    +0.000 C 
ENDBRANCH  17  21
ENDBRANCH   6  13
BRANCH   7  23
ATOM     23  O   UNL     1     104.551 125.777 148.527  0.00  0.00    +0.000 OA
ATOM     24  C   UNL     1     104.134 126.385 148.897  0.00  0.00    +0.000 C 
ENDBRANCH   7  23
BRANCH   9  25
ATOM     25  O   UNL     1     103.540 123.561 145.599  0.00  0.00    +0.000 OA
ATOM     26  C   UNL     1     103.620 122.739 145.582  0.00  0.00    +0.000 C 
ENDBRANCH   9  25
BRANCH  11  27
ATOM     27  O   UNL     1     101.863 123.352 145.607  0.00  0.00    +0.000 OA
ATOM     28  C   UNL     1     101.041 123.348 145.540  0.00  0.00    +0.000 C 
ENDBRANCH  11  27
TORSDOF 6
ENDMDL
MODEL 2
REMARK VINA RESULT:      -7.4     12.938     13.900
REMARK  Name = 10200272
REMARK  6 active torsions:
REMARK  status: ('A' for Active; 'I' for Inactive)
REMARK    1  A    between atoms: O_2  and  C_12
REMARK    2  A    between atoms: O_3  and  C_15
REMARK    3  A    between atoms: O_4  and  C_17
REMARK    4  A    between atoms: O_7  and  C_21
REMARK    5  A    between atoms: O_8  and  C_22
REMARK    6  A    between atoms: C_11  and  C_14
REMARK                            x       y       z     vdW  Elec       q    Type
REMARK                         _______ _______ _______ _____ _____    ______ ____
ROOT
ATOM      1  O   UNL     1     112.870 126.707 136.514  0.00  0.00    +0.000 OA
ATOM      2  O   UNL     1     110.514 125.353 135.533  0.00  0.00    +0.000 OA
ATOM      3  O   UNL     1     110.691 126.772 135.343  0.00  0.00    +0.000 OA
ATOM      4  C   UNL     1     111.705 126.036 136.029  0.00  0.00    +0.000 A 
ATOM      5  C   UNL     1     112.432 126.015 136.419  0.00  0.00    +0.000 A 
ATOM      6  C   UNL     1     112.582 127.422 136.217  0.00  0.00    +0.000 A 
ATOM      7  C   UNL     1     111.855 127.443 135.827  0.00  0.00    +0.000 A 
ATOM      8  C   UNL     1     111.417 126.750 135.733  0.00  0.00    +0.000 A 
ATOM      9  C   UNL     1     112.742 125.277 136.732  0.00  0.00    +0.000 A 
ATOM     10  C   UNL     1     111.239 125.321 135.925  0.00  0.00    +0.000 A 
ATOM     11  C   UNL     1     112.290 124.553 136.637  0.00  0.00    +0.000 A 
ATOM     12  C   UNL     1     111.534 124.575 136.231  0.00  0.00    +0.000 A 
ENDROOT
BRANCH   6  13
ATOM     13  C   UNL     1     113.021 128.114 136.312  0.00  0.00    +0.000 A 
ATOM     14  C   UNL     1     112.964 128.546 137.012  0.00  0.00    +0.000 A 
ATOM     15  C   UNL     1     113.516 128.373 135.705  0.00  0.00    +0.000 A 
ATOM     16  C   UNL     1     113.404 129.238 137.105  0.00  0.00    +0.000 A 
ATOM     17  C   UNL     1     113.899 129.498 136.500  0.00  0.00    +0.000 A 
ATOM     18  C   UNL     1     113.955 129.065 135.799  0.00  0.00    +0.000 A 
BRANCH  16  19
ATOM     19  O   UNL     1     113.347 129.671 137.806  0.00  0.00    +0.000 OA
ATOM     20  C   UNL     1     113.067 129.310 138.493  0.00  0.00    +0.000 C 
ENDBRANCH  16  19
BRANCH  17  21
ATOM     21  O   UNL     1     114.338 130.190 136.593  0.00  0.00    +0.000 OA
ATOM     22  C   UNL     1     114.802 130.472 135.972  0.00  0.00    +0.000 C 
ENDBRANCH  17  21
ENDBRANCH   6  13
BRANCH   7  23
ATOM     23  O   UNL     1     111.568 128.157 135.531  0.00  0.00    +0.000 OA
ATOM     24  C   UNL     1     110.759 128.251 135.396  0.00  0.00    +0.000 C 
ENDBRANCH   7  23
BRANCH   9  25
ATOM     25  O   UNL     1     113.470 125.265 137.121  0.00  0.00    +0.000 OA
ATOM     26  C   UNL     1     114.122 124.905 136.766  0.00  0.00    +0.000 C 
ENDBRANCH   9  25
BRANCH  11  27
ATOM     27  O   UNL     1     112.582 123.840 136.935  0.00  0.00    +0.000 OA
ATOM     28  C   UNL     1     112.064 123.217 137.091  0.00  0.00    +0.000 C 
ENDBRANCH  11  27
TORSDOF 6
ENDMDL
MODEL 3
REMARK VINA RESULT:      -7.4      1.225      2.596
REMARK  Name = 10200272
REMARK  6 active torsions:
REMARK  status: ('A' for Active; 'I' for Inactive)
REMARK    1  A    between atoms: O_2  and  C_12
REMARK    2  A    between atoms: O_3  and  C_15
REMARK    3  A    between atoms: O_4  and  C_17
REMARK    4  A    between atoms: O_7  and  C_21
REMARK    5  A    between atoms: O_8  and  C_22
REMARK    6  A    between atoms: C_11  and  C_14
REMARK                            x       y       z     vdW  Elec       q    Type
REMARK                         _______ _______ _______ _____ _____    ______ ____
ROOT
ATOM      1  O   UNL     1     104.557 124.860 146.836  0.00  0.00    +0.000 OA
ATOM      2  O   UNL     1     103.387 122.754 145.241  0.00  0.00    +0.000 OA
ATOM      3  O   UNL     1     104.569 123.453 144.800  0.00  0.00    +0.000 OA
ATOM      4  C   UNL     1     103.978 123.818 146.048  0.00  0.00    +0.000 A 
ATOM      5  C   UNL     1     103.974 124.287 146.726  0.00  0.00    +0.000 A 
ATOM      6  C   UNL     1     105.146 124.964 146.266  0.00  0.00    +0.000 A 
ATOM      7  C   UNL     1     105.149 124.495 145.587  0.00  0.00    +0.000 A 
ATOM      8  C   UNL     1     104.565 123.922 145.478  0.00  0.00    +0.000 A 
ATOM      9  C   UNL     1     103.367 124.189 147.327  0.00  0.00    +0.000 A 
ATOM     10  C   UNL     1     103.375 123.218 145.923  0.00  0.00    +0.000 A 
ATOM     11  C   UNL     1     102.757 123.594 147.219  0.00  0.00    +0.000 A 
ATOM     12  C   UNL     1     102.761 123.106 146.512  0.00  0.00    +0.000 A 
ENDROOT
BRANCH   6  13
ATOM     13  C   UNL     1     105.729 125.537 146.375  0.00  0.00    +0.000 A 
ATOM     14  C   UNL     1     106.430 125.343 146.766  0.00  0.00    +0.000 A 
ATOM     15  C   UNL     1     105.611 126.304 146.094  0.00  0.00    +0.000 A 
ATOM     16  C   UNL     1     107.012 125.917 146.875  0.00  0.00    +0.000 A 
ATOM     17  C   UNL     1     106.895 126.683 146.594  0.00  0.00    +0.000 A 
ATOM     18  C   UNL     1     106.194 126.877 146.204  0.00  0.00    +0.000 A 
BRANCH  16  19
ATOM     19  O   UNL     1     107.713 125.724 147.265  0.00  0.00    +0.000 OA
ATOM     20  C   UNL     1     107.723 125.109 147.815  0.00  0.00    +0.000 C 
ENDBRANCH  16  19
BRANCH  17  21
ATOM     21  O   UNL     1     107.478 127.257 146.703  0.00  0.00    +0.000 OA
ATOM     22  C   UNL     1     107.379 128.012 146.386  0.00  0.00    +0.000 C 
ENDBRANCH  17  21
ENDBRANCH   6  13
BRANCH   7  23
ATOM     23  O   UNL     1     105.737 124.599 145.018  0.00  0.00    +0.000 OA
ATOM     24  C   UNL     1     105.592 124.389 144.233  0.00  0.00    +0.000 C 
ENDBRANCH   7  23
BRANCH   9  25
ATOM     25  O   UNL     1     103.371 124.662 148.003  0.00  0.00    +0.000 OA
ATOM     26  C   UNL     1     102.787 125.235 148.108  0.00  0.00    +0.000 C 
ENDBRANCH   9  25
BRANCH  11  27
ATOM     27  O   UNL     1     102.170 123.493 147.791  0.00  0.00    +0.000 OA
ATOM     28  C   UNL     1     101.712 122.807 147.794  0.00  0.00    +0.000 C 
ENDBRANCH  11  27
TORSDOF 6
ENDMDL
MODEL 4
REMARK VINA RESULT:      -7.2      9.095     10.761
REMARK  Name = 10200272
REMARK  6 active torsions:
REMARK  status: ('A' for Active; 'I' for Inactive)
REMARK    1  A    between atoms: O_2  and  C_12
REMARK    2  A    between atoms: O_3  and  C_15
REMARK    3  A    between atoms: O_4  and  C_17
REMARK    4  A    between atoms: O_7  and  C_21
REMARK    5  A    between atoms: O_8  and  C_22
REMARK    6  A    between atoms: C_11  and  C_14
REMARK                            x       y       z     vdW  Elec       q    Type
REMARK                         _______ _______ _______ _____ _____    ______ ____
ROOT
ATOM      1  O   UNL     1     111.606 131.433 145.260  0.00  0.00    +0.000 OA
ATOM      2  O   UNL     1     112.353 131.730 142.484  0.00  0.00    +0.000 OA
ATOM      3  O   UNL     1     112.374 132.855 143.385  0.00  0.00    +0.000 OA
ATOM      4  C   UNL     1     111.975 131.579 143.887  0.00  0.00    +0.000 A 
ATOM      5  C   UNL     1     111.719 131.104 144.511  0.00  0.00    +0.000 A 
ATOM      6  C   UNL     1     111.749 132.236 145.383  0.00  0.00    +0.000 A 
ATOM      7  C   UNL     1     112.005 132.711 144.758  0.00  0.00    +0.000 A 
ATOM      8  C   UNL     1     112.118 132.381 144.010  0.00  0.00    +0.000 A 
ATOM      9  C   UNL     1     111.567 130.266 144.395  0.00  0.00    +0.000 A 
ATOM     10  C   UNL     1     112.097 131.247 143.103  0.00  0.00    +0.000 A 
ATOM     11  C   UNL     1     111.683 129.918 143.619  0.00  0.00    +0.000 A 
ATOM     12  C   UNL     1     111.950 130.412 142.968  0.00  0.00    +0.000 A 
ENDROOT
BRANCH   6  13
ATOM     13  C   UNL     1     111.635 132.565 146.131  0.00  0.00    +0.000 A 
ATOM     14  C   UNL     1     110.910 132.906 146.327  0.00  0.00    +0.000 A 
ATOM     15  C   UNL     1     112.248 132.551 146.684  0.00  0.00    +0.000 A 
ATOM     16  C   UNL     1     110.798 133.234 147.076  0.00  0.00    +0.000 A 
ATOM     17  C   UNL     1     111.410 133.221 147.628  0.00  0.00    +0.000 A 
ATOM     18  C   UNL     1     112.135 132.880 147.432  0.00  0.00    +0.000 A 
BRANCH  16  19
ATOM     19  O   UNL     1     110.073 133.576 147.272  0.00  0.00    +0.000 OA
ATOM     20  C   UNL     1     109.379 133.301 146.921  0.00  0.00    +0.000 C 
ENDBRANCH  16  19
BRANCH  17  21
ATOM     21  O   UNL     1     111.298 133.549 148.377  0.00  0.00    +0.000 OA
ATOM     22  C   UNL     1     111.848 133.410 148.975  0.00  0.00    +0.000 C 
ENDBRANCH  17  21
ENDBRANCH   6  13
BRANCH   7  23
ATOM     23  O   UNL     1     112.147 133.513 144.882  0.00  0.00    +0.000 OA
ATOM     24  C   UNL     1     112.124 134.039 144.246  0.00  0.00    +0.000 C 
ENDBRANCH   7  23
BRANCH   9  25
ATOM     25  O   UNL     1     111.311 129.800 145.026  0.00  0.00    +0.000 OA
ATOM     26  C   UNL     1     111.812 129.225 145.343  0.00  0.00    +0.000 C 
ENDBRANCH   9  25
BRANCH  11  27
ATOM     27  O   UNL     1     111.539 129.114 143.499  0.00  0.00    +0.000 OA
ATOM     28  C   UNL     1     111.509 128.811 142.732  0.00  0.00    +0.000 C 
ENDBRANCH  11  27
TORSDOF 6
ENDMDL
MODEL 5
REMARK VINA RESULT:      -7.2      6.878      8.603
REMARK  Name = 10200272
REMARK  6 active torsions:
REMARK  status: ('A' for Active; 'I' for Inactive)
REMARK    1  A    between atoms: O_2  and  C_12
REMARK    2  A    between atoms: O_3  and  C_15
REMARK    3  A    between atoms: O_4  and  C_17
REMARK    4  A    between atoms: O_7  and  C_21
REMARK    5  A    between atoms: O_8  and  C_22
REMARK    6  A    between atoms: C_11  and  C_14
REMARK                            x       y       z     vdW  Elec       q    Type
REMARK                         _______ _______ _______ _____ _____    ______ ____
ROOT
ATOM      1  O   UNL     1     103.544 130.138 142.231  0.00  0.00    +0.000 OA
ATOM      2  O   UNL     1     104.257 127.674 140.902  0.00  0.00    +0.000 OA
ATOM      3  O   UNL     1     103.339 128.607 140.297  0.00  0.00    +0.000 OA
ATOM      4  C   UNL     1     103.898 128.919 141.574  0.00  0.00    +0.000 A 
ATOM      5  C   UNL     1     103.966 129.429 142.219  0.00  0.00    +0.000 A 
ATOM      6  C   UNL     1     103.054 130.337 141.598  0.00  0.00    +0.000 A 
ATOM      7  C   UNL     1     102.985 129.826 140.953  0.00  0.00    +0.000 A 
ATOM      8  C   UNL     1     103.407 129.118 140.942  0.00  0.00    +0.000 A 
ATOM      9  C   UNL     1     104.474 129.233 142.884  0.00  0.00    +0.000 A 
ATOM     10  C   UNL     1     104.332 128.178 141.551  0.00  0.00    +0.000 A 
ATOM     11  C   UNL     1     104.916 128.497 142.878  0.00  0.00    +0.000 A 
ATOM     12  C   UNL     1     104.844 127.966 142.207  0.00  0.00    +0.000 A 
ENDROOT
BRANCH   6  13
ATOM     13  C   UNL     1     102.632 131.046 141.610  0.00  0.00    +0.000 A 
ATOM     14  C   UNL     1     102.964 131.729 141.289  0.00  0.00    +0.000 A 
ATOM     15  C   UNL     1     101.877 131.070 141.944  0.00  0.00    +0.000 A 
ATOM     16  C   UNL     1     102.541 132.438 141.302  0.00  0.00    +0.000 A 
ATOM     17  C   UNL     1     101.787 132.463 141.636  0.00  0.00    +0.000 A 
ATOM     18  C   UNL     1     101.455 131.779 141.956  0.00  0.00    +0.000 A 
BRANCH  16  19
ATOM     19  O   UNL     1     102.873 133.122 140.982  0.00  0.00    +0.000 OA
ATOM     20  C   UNL     1     103.690 133.177 140.884  0.00  0.00    +0.000 C 
ENDBRANCH  16  19
BRANCH  17  21
ATOM     21  O   UNL     1     101.364 133.171 141.649  0.00  0.00    +0.000 OA
ATOM     22  C   UNL     1     100.710 133.253 142.144  0.00  0.00    +0.000 C 
ENDBRANCH  17  21
ENDBRANCH   6  13
BRANCH   7  23
ATOM     23  O   UNL     1     102.495 130.025 140.321  0.00  0.00    +0.000 OA
ATOM     24  C   UNL     1     102.250 129.443 139.790  0.00  0.00    +0.000 C 
ENDBRANCH   7  23
BRANCH   9  25
ATOM     25  O   UNL     1     104.536 129.750 143.525  0.00  0.00    +0.000 OA
ATOM     26  C   UNL     1     105.239 130.162 143.656  0.00  0.00    +0.000 C 
ENDBRANCH   9  25
BRANCH  11  27
ATOM     27  O   UNL     1     105.406 128.301 143.513  0.00  0.00    +0.000 OA
ATOM     28  C   UNL     1     105.676 127.527 143.601  0.00  0.00    +0.000 C 
ENDBRANCH  11  27
TORSDOF 6
ENDMDL
MODEL 6
REMARK VINA RESULT:      -7.1      2.298      3.713
REMARK  Name = 10200272
REMARK  6 active torsions:
REMARK  status: ('A' for Active; 'I' for Inactive)
REMARK    1  A    between atoms: O_2  and  C_12
REMARK    2  A    between atoms: O_3  and  C_15
REMARK    3  A    between atoms: O_4  and  C_17
REMARK    4  A    between atoms: O_7  and  C_21
REMARK    5  A    between atoms: O_8  and  C_22
REMARK    6  A    between atoms: C_11  and  C_14
REMARK                            x       y       z     vdW  Elec       q    Type
REMARK                         _______ _______ _______ _____ _____    ______ ____
ROOT
ATOM      1  O   UNL     1     106.359 125.237 145.725  0.00  0.00    +0.000 OA
ATOM      2  O   UNL     1     106.239 127.528 143.969  0.00  0.00    +0.000 OA
ATOM      3  O   UNL     1     106.584 127.674 145.362  0.00  0.00    +0.000 OA
ATOM      4  C   UNL     1     106.299 126.369 144.856  0.00  0.00    +0.000 A 
ATOM      5  C   UNL     1     106.224 125.557 144.977  0.00  0.00    +0.000 A 
ATOM      6  C   UNL     1     106.568 125.730 146.353  0.00  0.00    +0.000 A 
ATOM      7  C   UNL     1     106.643 126.543 146.232  0.00  0.00    +0.000 A 
ATOM      8  C   UNL     1     106.509 126.862 145.483  0.00  0.00    +0.000 A 
ATOM      9  C   UNL     1     106.006 125.033 144.331  0.00  0.00    +0.000 A 
ATOM     10  C   UNL     1     106.161 126.714 144.080  0.00  0.00    +0.000 A 
ATOM     11  C   UNL     1     105.865 125.360 143.550  0.00  0.00    +0.000 A 
ATOM     12  C   UNL     1     105.943 126.206 143.423  0.00  0.00    +0.000 A 
ENDROOT
BRANCH   6  13
ATOM     13  C   UNL     1     106.703 125.410 147.101  0.00  0.00    +0.000 A 
ATOM     14  C   UNL     1     106.066 125.230 147.594  0.00  0.00    +0.000 A 
ATOM     15  C   UNL     1     107.475 125.270 147.357  0.00  0.00    +0.000 A 
ATOM     16  C   UNL     1     106.202 124.910 148.342  0.00  0.00    +0.000 A 
ATOM     17  C   UNL     1     106.973 124.770 148.598  0.00  0.00    +0.000 A 
ATOM     18  C   UNL     1     107.610 124.950 148.105  0.00  0.00    +0.000 A 
BRANCH  16  19
ATOM     19  O   UNL     1     105.565 124.729 148.835  0.00  0.00    +0.000 OA
ATOM     20  C   UNL     1     104.794 124.775 148.546  0.00  0.00    +0.000 C 
ENDBRANCH  16  19
BRANCH  17  21
ATOM     21  O   UNL     1     107.109 124.449 149.346  0.00  0.00    +0.000 OA
ATOM     22  C   UNL     1     107.881 124.332 149.611  0.00  0.00    +0.000 C 
ENDBRANCH  17  21
ENDBRANCH   6  13
BRANCH   7  23
ATOM     23  O   UNL     1     106.853 127.035 146.859  0.00  0.00    +0.000 OA
ATOM     24  C   UNL     1     106.713 127.847 146.810  0.00  0.00    +0.000 C 
ENDBRANCH   7  23
BRANCH   9  25
ATOM     25  O   UNL     1     105.934 124.221 144.462  0.00  0.00    +0.000 OA
ATOM     26  C   UNL     1     105.187 123.870 144.472  0.00  0.00    +0.000 C 
ENDBRANCH   9  25
BRANCH  11  27
ATOM     27  O   UNL     1     105.655 124.863 142.924  0.00  0.00    +0.000 OA
ATOM     28  C   UNL     1     105.847 125.074 142.150  0.00  0.00    +0.000 C 
ENDBRANCH  11  27
TORSDOF 6
ENDMDL
MODEL 7
REMARK VINA RESULT:      -7.0     11.084     13.599
REMARK  Name = 10200272
REMARK  6 active torsions:
REMARK  status: ('A' for Active; 'I' for Inactive)
REMARK    1  A    between atoms: O_2  and  C_12
REMARK    2  A    between atoms: O_3  and  C_15
REMARK    3  A    between atoms: O_4  and  C_17
REMARK    4  A    between atoms: O_7  and  C_21
REMARK    5  A    between atoms: O_8  and  C_22
REMARK    6  A    between atoms: C_11  and  C_14
REMARK                            x       y       z     vdW  Elec       q    Type
REMARK                         _______ _______ _______ _____ _____    ______ ____
ROOT
ATOM      1  O   UNL     1     110.946 127.220 135.953  0.00  0.00    +0.000 OA
ATOM      2  O   UNL     1     112.424 129.604 135.261  0.00  0.00    +0.000 OA
ATOM      3  O   UNL     1     113.090 128.447 135.806  0.00  0.00    +0.000 OA
ATOM      4  C   UNL     1     111.676 128.400 135.610  0.00  0.00    +0.000 A 
ATOM      5  C   UNL     1     110.961 127.991 135.659  0.00  0.00    +0.000 A 
ATOM      6  C   UNL     1     111.646 126.858 136.197  0.00  0.00    +0.000 A 
ATOM      7  C   UNL     1     112.361 127.267 136.148  0.00  0.00    +0.000 A 
ATOM      8  C   UNL     1     112.375 128.038 135.855  0.00  0.00    +0.000 A 
ATOM      9  C   UNL     1     110.225 128.357 135.407  0.00  0.00    +0.000 A 
ATOM     10  C   UNL     1     111.704 129.203 135.306  0.00  0.00    +0.000 A 
ATOM     11  C   UNL     1     110.235 129.159 135.101  0.00  0.00    +0.000 A 
ATOM     12  C   UNL     1     110.979 129.585 135.050  0.00  0.00    +0.000 A 
ENDROOT
BRANCH   6  13
ATOM     13  C   UNL     1     111.630 126.087 136.491  0.00  0.00    +0.000 A 
ATOM     14  C   UNL     1     111.433 125.950 137.280  0.00  0.00    +0.000 A 
ATOM     15  C   UNL     1     111.813 125.453 135.994  0.00  0.00    +0.000 A 
ATOM     16  C   UNL     1     111.417 125.178 137.572  0.00  0.00    +0.000 A 
ATOM     17  C   UNL     1     111.600 124.545 137.077  0.00  0.00    +0.000 A 
ATOM     18  C   UNL     1     111.797 124.683 136.288  0.00  0.00    +0.000 A 
BRANCH  16  19
ATOM     19  O   UNL     1     111.219 125.040 138.361  0.00  0.00    +0.000 OA
ATOM     20  C   UNL     1     110.837 125.626 138.799  0.00  0.00    +0.000 C 
ENDBRANCH  16  19
BRANCH  17  21
ATOM     21  O   UNL     1     111.584 123.773 137.369  0.00  0.00    +0.000 OA
ATOM     22  C   UNL     1     111.968 123.169 136.960  0.00  0.00    +0.000 C 
ENDBRANCH  17  21
ENDBRANCH   6  13
BRANCH   7  23
ATOM     23  O   UNL     1     113.060 126.905 136.393  0.00  0.00    +0.000 OA
ATOM     24  C   UNL     1     113.747 127.353 136.482  0.00  0.00    +0.000 C 
ENDBRANCH   7  23
BRANCH   9  25
ATOM     25  O   UNL     1     109.515 127.940 135.460  0.00  0.00    +0.000 OA
ATOM     26  C   UNL     1     108.905 128.224 135.938  0.00  0.00    +0.000 C 
ENDBRANCH   9  25
BRANCH  11  27
ATOM     27  O   UNL     1     109.532 129.518 134.857  0.00  0.00    +0.000 OA
ATOM     28  C   UNL     1     109.536 130.306 134.612  0.00  0.00    +0.000 C 
ENDBRANCH  11  27
TORSDOF 6
ENDMDL
MODEL 8
REMARK VINA RESULT:      -7.0     12.037     13.762
REMARK  Name = 10200272
REMARK  6 active torsions:
REMARK  status: ('A' for Active; 'I' for Inactive)
REMARK    1  A    between atoms: O_2  and  C_12
REMARK    2  A    between atoms: O_3  and  C_15
REMARK    3  A    between atoms: O_4  and  C_17
REMARK    4  A    between atoms: O_7  and  C_21
REMARK    5  A    between atoms: O_8  and  C_22
REMARK    6  A    between atoms: C_11  and  C_14
REMARK                            x       y       z     vdW  Elec       q    Type
REMARK                         _______ _______ _______ _____ _____    ______ ____
ROOT
ATOM      1  O   UNL     1     111.894 126.954 136.316  0.00  0.00    +0.000 OA
ATOM      2  O   UNL     1     111.848 124.073 136.091  0.00  0.00    +0.000 OA
ATOM      3  O   UNL     1     110.770 124.878 135.571  0.00  0.00    +0.000 OA
ATOM      4  C   UNL     1     111.872 125.529 136.205  0.00  0.00    +0.000 A 
ATOM      5  C   UNL     1     112.246 126.221 136.454  0.00  0.00    +0.000 A 
ATOM      6  C   UNL     1     111.165 126.995 135.929  0.00  0.00    +0.000 A 
ATOM      7  C   UNL     1     110.791 126.303 135.681  0.00  0.00    +0.000 A 
ATOM      8  C   UNL     1     111.145 125.570 135.819  0.00  0.00    +0.000 A 
ATOM      9  C   UNL     1     113.005 126.191 136.858  0.00  0.00    +0.000 A 
ATOM     10  C   UNL     1     112.230 124.760 136.343  0.00  0.00    +0.000 A 
ATOM     11  C   UNL     1     113.378 125.432 137.004  0.00  0.00    +0.000 A 
ATOM     12  C   UNL     1     112.988 124.711 136.745  0.00  0.00    +0.000 A 
ENDROOT
BRANCH   6  13
ATOM     13  C   UNL     1     110.813 127.727 135.792  0.00  0.00    +0.000 A 
ATOM     14  C   UNL     1     110.323 128.064 136.364  0.00  0.00    +0.000 A 
ATOM     15  C   UNL     1     110.950 128.124 135.081  0.00  0.00    +0.000 A 
ATOM     16  C   UNL     1     109.971 128.797 136.225  0.00  0.00    +0.000 A 
ATOM     17  C   UNL     1     110.108 129.193 135.515  0.00  0.00    +0.000 A 
ATOM     18  C   UNL     1     110.597 128.857 134.943  0.00  0.00    +0.000 A 
BRANCH  16  19
ATOM     19  O   UNL     1     109.481 129.134 136.798  0.00  0.00    +0.000 OA
ATOM     20  C   UNL     1     109.623 128.992 137.598  0.00  0.00    +0.000 C 
ENDBRANCH  16  19
BRANCH  17  21
ATOM     21  O   UNL     1     109.755 129.927 135.376  0.00  0.00    +0.000 OA
ATOM     22  C   UNL     1     109.731 130.235 134.612  0.00  0.00    +0.000 C 
ENDBRANCH  17  21
ENDBRANCH   6  13
BRANCH   7  23
ATOM     23  O   UNL     1     110.064 126.344 135.295  0.00  0.00    +0.000 OA
ATOM     24  C   UNL     1     109.796 125.702 134.850  0.00  0.00    +0.000 C 
ENDBRANCH   7  23
BRANCH   9  25
ATOM     25  O   UNL     1     113.372 126.889 137.103  0.00  0.00    +0.000 OA
ATOM     26  C   UNL     1     113.393 127.084 137.904  0.00  0.00    +0.000 C 
ENDBRANCH   9  25
BRANCH  11  27
ATOM     27  O   UNL     1     114.106 125.394 137.391  0.00  0.00    +0.000 OA
ATOM     28  C   UNL     1     114.611 124.756 137.258  0.00  0.00    +0.000 C 
ENDBRANCH  11  27
TORSDOF 6
ENDMDL
MODEL 9
REMARK VINA RESULT:      -6.9      2.253      4.339
REMARK  Name = 10200272
REMARK  6 active torsions:
REMARK  status: ('A' for Active; 'I' for Inactive)
REMARK    1  A    between atoms: O_2  and  C_12
REMARK    2  A    between atoms: O_3  and  C_15
REMARK    3  A    between atoms: O_4  and  C_17
REMARK    4  A    between atoms: O_7  and  C_21
REMARK    5  A    between atoms: O_8  and  C_22
REMARK    6  A    between atoms: C_11  and  C_14
REMARK                            x       y       z     vdW  Elec       q    Type
REMARK                         _______ _______ _______ _____ _____    ______ ____
ROOT
ATOM      1  O   UNL     1     106.777 126.492 146.092  0.00  0.00    +0.000 OA
ATOM      2  O   UNL     1     105.353 125.992 143.628  0.00  0.00    +0.000 OA
ATOM      3  O   UNL     1     105.260 125.079 144.741  0.00  0.00    +0.000 OA
ATOM      4  C   UNL     1     106.073 126.245 144.873  0.00  0.00    +0.000 A 
ATOM      5  C   UNL     1     106.579 126.717 145.323  0.00  0.00    +0.000 A 
ATOM      6  C   UNL     1     106.469 125.795 146.410  0.00  0.00    +0.000 A 
ATOM      7  C   UNL     1     105.963 125.324 145.960  0.00  0.00    +0.000 A 
ATOM      8  C   UNL     1     105.766 125.550 145.191  0.00  0.00    +0.000 A 
ATOM      9  C   UNL     1     106.905 127.444 145.003  0.00  0.00    +0.000 A 
ATOM     10  C   UNL     1     105.859 126.469 144.071  0.00  0.00    +0.000 A 
ATOM     11  C   UNL     1     106.703 127.684 144.203  0.00  0.00    +0.000 A 
ATOM     12  C   UNL     1     106.176 127.193 143.734  0.00  0.00    +0.000 A 
ENDROOT
BRANCH   6  13
ATOM     13  C   UNL     1     106.668 125.571 147.179  0.00  0.00    +0.000 A 
ATOM     14  C   UNL     1     106.205 125.822 147.815  0.00  0.00    +0.000 A 
ATOM     15  C   UNL     1     107.329 125.095 147.311  0.00  0.00    +0.000 A 
ATOM     16  C   UNL     1     106.405 125.596 148.583  0.00  0.00    +0.000 A 
ATOM     17  C   UNL     1     107.066 125.121 148.716  0.00  0.00    +0.000 A 
ATOM     18  C   UNL     1     107.528 124.871 148.080  0.00  0.00    +0.000 A 
BRANCH  16  19
ATOM     19  O   UNL     1     105.943 125.847 149.219  0.00  0.00    +0.000 OA
ATOM     20  C   UNL     1     105.500 126.540 149.159  0.00  0.00    +0.000 C 
ENDBRANCH  16  19
BRANCH  17  21
ATOM     21  O   UNL     1     107.265 124.896 149.484  0.00  0.00    +0.000 OA
ATOM     22  C   UNL     1     107.881 124.363 149.611  0.00  0.00    +0.000 C 
ENDBRANCH  17  21
ENDBRANCH   6  13
BRANCH   7  23
ATOM     23  O   UNL     1     105.656 124.628 146.278  0.00  0.00    +0.000 OA
ATOM     24  C   UNL     1     104.953 124.315 145.981  0.00  0.00    +0.000 C 
ENDBRANCH   7  23
BRANCH   9  25
ATOM     25  O   UNL     1     107.410 127.909 145.461  0.00  0.00    +0.000 OA
ATOM     26  C   UNL     1     107.156 128.643 145.739  0.00  0.00    +0.000 C 
ENDBRANCH   9  25
BRANCH  11  27
ATOM     27  O   UNL     1     107.012 128.381 143.888  0.00  0.00    +0.000 OA
ATOM     28  C   UNL     1     107.044 128.485 143.070  0.00  0.00    +0.000 C 
ENDBRANCH  11  27
TORSDOF 6
ENDMDL
MODEL 10
REMARK VINA RESULT:      -6.9     12.592     14.919
REMARK  Name = 10200272
REMARK  6 active torsions:
REMARK  status: ('A' for Active; 'I' for Inactive)
REMARK    1  A    between atoms: O_2  and  C_12
REMARK    2  A    between atoms: O_3  and  C_15
REMARK    3  A    between atoms: O_4  and  C_17
REMARK    4  A    between atoms: O_7  and  C_21
REMARK    5  A    between atoms: O_8  and  C_22
REMARK    6  A    between atoms: C_11  and  C_14
REMARK                            x       y       z     vdW  Elec       q    Type
REMARK                         _______ _______ _______ _____ _____    ______ ____
ROOT
ATOM      1  O   UNL     1     113.550 128.408 135.983  0.00  0.00    +0.000 OA
ATOM      2  O   UNL     1     113.954 130.730 137.654  0.00  0.00    +0.000 OA
ATOM      3  O   UNL     1     113.145 129.623 138.100  0.00  0.00    +0.000 OA
ATOM      4  C   UNL     1     113.751 129.557 136.809  0.00  0.00    +0.000 A 
ATOM      5  C   UNL     1     113.886 129.152 136.103  0.00  0.00    +0.000 A 
ATOM      6  C   UNL     1     113.079 128.069 136.569  0.00  0.00    +0.000 A 
ATOM      7  C   UNL     1     112.944 128.474 137.275  0.00  0.00    +0.000 A 
ATOM      8  C   UNL     1     113.280 129.218 137.394  0.00  0.00    +0.000 A 
ATOM      9  C   UNL     1     114.375 129.495 135.484  0.00  0.00    +0.000 A 
ATOM     10  C   UNL     1     114.095 130.333 136.945  0.00  0.00    +0.000 A 
ATOM     11  C   UNL     1     114.727 130.269 135.603  0.00  0.00    +0.000 A 
ATOM     12  C   UNL     1     114.587 130.690 136.338  0.00  0.00    +0.000 A 
ENDROOT
BRANCH   6  13
ATOM     13  C   UNL     1     112.743 127.325 136.449  0.00  0.00    +0.000 A 
ATOM     14  C   UNL     1     113.174 126.644 136.625  0.00  0.00    +0.000 A 
ATOM     15  C   UNL     1     111.975 127.262 136.153  0.00  0.00    +0.000 A 
ATOM     16  C   UNL     1     112.838 125.900 136.504  0.00  0.00    +0.000 A 
ATOM     17  C   UNL     1     112.071 125.838 136.208  0.00  0.00    +0.000 A 
ATOM     18  C   UNL     1     111.639 126.519 136.033  0.00  0.00    +0.000 A 
BRANCH  16  19
ATOM     19  O   UNL     1     113.269 125.219 136.680  0.00  0.00    +0.000 OA
ATOM     20  C   UNL     1     114.093 125.246 136.697  0.00  0.00    +0.000 C 
ENDBRANCH  16  19
BRANCH  17  21
ATOM     21  O   UNL     1     111.734 125.094 136.088  0.00  0.00    +0.000 OA
ATOM     22  C   UNL     1     110.959 125.031 135.813  0.00  0.00    +0.000 C 
ENDBRANCH  17  21
ENDBRANCH   6  13
BRANCH   7  23
ATOM     23  O   UNL     1     112.473 128.135 137.861  0.00  0.00    +0.000 OA
ATOM     24  C   UNL     1     112.532 128.397 138.641  0.00  0.00    +0.000 C 
ENDBRANCH   7  23
BRANCH   9  25
ATOM     25  O   UNL     1     114.504 129.082 134.782  0.00  0.00    +0.000 OA
ATOM     26  C   UNL     1     115.254 128.782 134.612  0.00  0.00    +0.000 C 
ENDBRANCH   9  25
BRANCH  11  27
ATOM     27  O   UNL     1     115.198 130.605 135.014  0.00  0.00    +0.000 OA
ATOM     28  C   UNL     1     115.389 131.407 135.048  0.00  0.00    +0.000 C 
ENDBRANCH  11  27
TORSDOF 6
ENDMDL
