MODEL 1
REMARK VINA RESULT:      -8.3      0.000      0.000
REMARK  Name = 
REMARK  7 active torsions:
REMARK  status: ('A' for Active; 'I' for Inactive)
REMARK    1  A    between atoms: O_2  and  C_15
REMARK    2  A    between atoms: O_2  and  C_18
REMARK    3  A    between atoms: C_16  and  C_17
REMARK    4  A    between atoms: C_19  and  C_21
REMARK    5  A    between atoms: C_21  and  C_22
REMARK    6  A    between atoms: C_22  and  C_24
REMARK    7  A    between atoms: C_24  and  C_27
REMARK                            x       y       z     vdW  Elec       q    Type
REMARK                         _______ _______ _______ _____ _____    ______ ____
ROOT
ATOM      1  O   UNL     1     108.647 126.500 135.747  0.00  0.00    +0.000 OA
ATOM      2  O   UNL     1     108.515 129.956 135.550  0.00  0.00    +0.000 OA
ATOM      3  C   UNL     1     109.728 128.364 137.282  0.00  0.00    +0.000 A 
ATOM      4  C   UNL     1     109.475 127.466 136.923  0.00  0.00    +0.000 A 
ATOM      5  C   UNL     1     109.409 129.194 136.824  0.00  0.00    +0.000 A 
ATOM      6  C   UNL     1     108.901 127.398 136.106  0.00  0.00    +0.000 A 
ATOM      7  C   UNL     1     108.835 129.126 136.008  0.00  0.00    +0.000 A 
ATOM      8  C   UNL     1     108.581 128.228 135.649  0.00  0.00    +0.000 A 
ENDROOT
BRANCH   4  10
ATOM      9  O   UNL     1     109.239 126.214 138.096  0.00  0.00    +0.000 OA
ATOM     10  C   UNL     1     109.794 126.637 137.380  0.00  0.00    +0.000 C 
BRANCH  10  11
ATOM     11  C   UNL     1     110.670 126.229 137.121  0.00  0.00    +0.000 C 
BRANCH  11  12
ATOM     12  C   UNL     1     111.071 125.507 137.685  0.00  0.00    +0.000 C 
BRANCH  12  14
ATOM     13  O   UNL     1     114.944 124.585 137.294  0.00  0.00    +0.000 OA
ATOM     14  C   UNL     1     112.040 125.276 137.587  0.00  0.00    +0.000 A 
ATOM     15  C   UNL     1     112.733 125.819 138.061  0.00  0.00    +0.000 A 
ATOM     16  C   UNL     1     112.314 124.503 137.016  0.00  0.00    +0.000 A 
ATOM     17  C   UNL     1     113.701 125.589 137.963  0.00  0.00    +0.000 A 
ATOM     18  C   UNL     1     113.282 124.272 136.918  0.00  0.00    +0.000 A 
ATOM     19  C   UNL     1     113.976 124.815 137.392  0.00  0.00    +0.000 A 
ENDBRANCH  12  14
ENDBRANCH  11  12
ENDBRANCH  10  11
ENDBRANCH   4  10
BRANCH   3  20
ATOM     20  O   UNL     1     110.302 128.433 138.098  0.00  0.00    +0.000 OA
BRANCH  20  28
ATOM     21  O   UNL     1     109.284 129.495 139.011  0.00  0.00    +0.000 OA
ATOM     22  O   UNL     1     111.705 130.965 140.001  0.00  0.00    +0.000 OA
ATOM     23  O   UNL     1     111.916 129.412 138.758  0.00  0.00    +0.000 OA
ATOM     24  O   UNL     1     109.879 131.537 140.584  0.00  0.00    +0.000 OA
ATOM     25  C   UNL     1     110.898 130.475 139.671  0.00  0.00    +0.000 C 
ATOM     26  C   UNL     1     111.003 129.699 139.049  0.00  0.00    +0.000 C 
ATOM     27  C   UNL     1     109.985 130.761 139.963  0.00  0.00    +0.000 C 
ATOM     28  C   UNL     1     110.196 129.209 138.720  0.00  0.00    +0.000 C 
ATOM     29  C   UNL     1     109.178 130.271 139.633  0.00  0.00    +0.000 C 
BRANCH  29  32
ATOM     30  O   UNL     1     107.786 130.047 140.638  0.00  0.00    +0.000 OA
ATOM     31  O   UNL     1     107.833 131.355 139.503  0.00  0.00    +0.000 OA
ATOM     32  C   UNL     1     108.265 130.558 139.925  0.00  0.00    +0.000 C 
ENDBRANCH  29  32
ENDBRANCH  20  28
ENDBRANCH   3  20
TORSDOF 7
ENDMDL
MODEL 2
REMARK VINA RESULT:      -8.3      5.905      9.326
REMARK  Name = 
REMARK  7 active torsions:
REMARK  status: ('A' for Active; 'I' for Inactive)
REMARK    1  A    between atoms: O_2  and  C_15
REMARK    2  A    between atoms: O_2  and  C_18
REMARK    3  A    between atoms: C_16  and  C_17
REMARK    4  A    between atoms: C_19  and  C_21
REMARK    5  A    between atoms: C_21  and  C_22
REMARK    6  A    between atoms: C_22  and  C_24
REMARK    7  A    between atoms: C_24  and  C_27
REMARK                            x       y       z     vdW  Elec       q    Type
REMARK                         _______ _______ _______ _____ _____    ______ ____
ROOT
ATOM      1  O   UNL     1     106.574 129.608 141.108  0.00  0.00    +0.000 OA
ATOM      2  O   UNL     1     108.964 128.293 143.244  0.00  0.00    +0.000 OA
ATOM      3  C   UNL     1     106.392 127.735 142.969  0.00  0.00    +0.000 A 
ATOM      4  C   UNL     1     106.139 128.368 142.237  0.00  0.00    +0.000 A 
ATOM      5  C   UNL     1     107.334 127.710 143.304  0.00  0.00    +0.000 A 
ATOM      6  C   UNL     1     106.827 128.975 141.840  0.00  0.00    +0.000 A 
ATOM      7  C   UNL     1     108.022 128.318 142.908  0.00  0.00    +0.000 A 
ATOM      8  C   UNL     1     107.769 128.950 142.176  0.00  0.00    +0.000 A 
ENDROOT
BRANCH   4  10
ATOM      9  O   UNL     1     104.892 127.727 141.220  0.00  0.00    +0.000 OA
ATOM     10  C   UNL     1     105.197 128.393 141.901  0.00  0.00    +0.000 C 
BRANCH  10  11
ATOM     11  C   UNL     1     104.562 129.083 142.246  0.00  0.00    +0.000 C 
BRANCH  11  12
ATOM     12  C   UNL     1     103.656 129.179 141.833  0.00  0.00    +0.000 C 
BRANCH  12  14
ATOM     13  O   UNL     1     101.424 132.400 142.636  0.00  0.00    +0.000 OA
ATOM     14  C   UNL     1     103.098 129.984 142.034  0.00  0.00    +0.000 A 
ATOM     15  C   UNL     1     103.159 130.424 142.930  0.00  0.00    +0.000 A 
ATOM     16  C   UNL     1     102.478 130.349 141.339  0.00  0.00    +0.000 A 
ATOM     17  C   UNL     1     102.601 131.230 143.130  0.00  0.00    +0.000 A 
ATOM     18  C   UNL     1     101.920 131.154 141.540  0.00  0.00    +0.000 A 
ATOM     19  C   UNL     1     101.982 131.594 142.435  0.00  0.00    +0.000 A 
ENDBRANCH  12  14
ENDBRANCH  11  12
ENDBRANCH  10  11
ENDBRANCH   4  10
BRANCH   3  20
ATOM     20  O   UNL     1     105.704 127.128 143.365  0.00  0.00    +0.000 OA
BRANCH  20  28
ATOM     21  O   UNL     1     106.237 127.014 145.009  0.00  0.00    +0.000 OA
ATOM     22  O   UNL     1     105.983 124.027 144.884  0.00  0.00    +0.000 OA
ATOM     23  O   UNL     1     105.534 125.137 143.282  0.00  0.00    +0.000 OA
ATOM     24  O   UNL     1     106.601 124.909 146.570  0.00  0.00    +0.000 OA
ATOM     25  C   UNL     1     106.067 125.023 144.926  0.00  0.00    +0.000 C 
ATOM     26  C   UNL     1     105.843 125.578 144.125  0.00  0.00    +0.000 C 
ATOM     27  C   UNL     1     106.377 125.464 145.768  0.00  0.00    +0.000 C 
ATOM     28  C   UNL     1     105.928 126.573 144.166  0.00  0.00    +0.000 C 
ATOM     29  C   UNL     1     106.462 126.459 145.810  0.00  0.00    +0.000 C 
BRANCH  29  32
ATOM     30  O   UNL     1     106.106 127.164 147.351  0.00  0.00    +0.000 OA
ATOM     31  O   UNL     1     107.744 127.077 146.796  0.00  0.00    +0.000 OA
ATOM     32  C   UNL     1     106.771 126.900 146.652  0.00  0.00    +0.000 C 
ENDBRANCH  29  32
ENDBRANCH  20  28
ENDBRANCH   3  20
TORSDOF 7
ENDMDL
MODEL 3
REMARK VINA RESULT:      -8.2      3.059      4.397
REMARK  Name = 
REMARK  7 active torsions:
REMARK  status: ('A' for Active; 'I' for Inactive)
REMARK    1  A    between atoms: O_2  and  C_15
REMARK    2  A    between atoms: O_2  and  C_18
REMARK    3  A    between atoms: C_16  and  C_17
REMARK    4  A    between atoms: C_19  and  C_21
REMARK    5  A    between atoms: C_21  and  C_22
REMARK    6  A    between atoms: C_22  and  C_24
REMARK    7  A    between atoms: C_24  and  C_27
REMARK                            x       y       z     vdW  Elec       q    Type
REMARK                         _______ _______ _______ _____ _____    ______ ____
ROOT
ATOM      1  O   UNL     1     110.980 125.826 134.948  0.00  0.00    +0.000 OA
ATOM      2  O   UNL     1     111.767 123.390 137.282  0.00  0.00    +0.000 OA
ATOM      3  C   UNL     1     111.921 126.028 137.412  0.00  0.00    +0.000 A 
ATOM      4  C   UNL     1     111.587 126.282 136.504  0.00  0.00    +0.000 A 
ATOM      5  C   UNL     1     111.981 125.064 137.671  0.00  0.00    +0.000 A 
ATOM      6  C   UNL     1     111.314 125.572 135.856  0.00  0.00    +0.000 A 
ATOM      7  C   UNL     1     111.707 124.354 137.023  0.00  0.00    +0.000 A 
ATOM      8  C   UNL     1     111.373 124.608 136.115  0.00  0.00    +0.000 A 
ENDROOT
BRANCH   4  10
ATOM      9  O   UNL     1     110.649 127.721 136.286  0.00  0.00    +0.000 OA
ATOM     10  C   UNL     1     111.528 127.246 136.245  0.00  0.00    +0.000 C 
BRANCH  10  11
ATOM     11  C   UNL     1     112.347 127.735 135.946  0.00  0.00    +0.000 C 
BRANCH  11  12
ATOM     12  C   UNL     1     112.313 128.723 135.799  0.00  0.00    +0.000 C 
BRANCH  12  14
ATOM     13  O   UNL     1     115.709 130.819 135.518  0.00  0.00    +0.000 OA
ATOM     14  C   UNL     1     113.162 129.247 135.729  0.00  0.00    +0.000 A 
ATOM     15  C   UNL     1     113.489 129.777 136.511  0.00  0.00    +0.000 A 
ATOM     16  C   UNL     1     113.684 129.242 134.876  0.00  0.00    +0.000 A 
ATOM     17  C   UNL     1     114.338 130.301 136.441  0.00  0.00    +0.000 A 
ATOM     18  C   UNL     1     114.533 129.766 134.806  0.00  0.00    +0.000 A 
ATOM     19  C   UNL     1     114.860 130.295 135.588  0.00  0.00    +0.000 A 
ENDBRANCH  12  14
ENDBRANCH  11  12
ENDBRANCH  10  11
ENDBRANCH   4  10
BRANCH   3  20
ATOM     20  O   UNL     1     112.195 126.738 138.061  0.00  0.00    +0.000 OA
BRANCH  20  28
ATOM     21  O   UNL     1     110.923 126.434 139.197  0.00  0.00    +0.000 OA
ATOM     22  O   UNL     1     112.765 127.156 141.452  0.00  0.00    +0.000 OA
ATOM     23  O   UNL     1     113.423 127.219 139.564  0.00  0.00    +0.000 OA
ATOM     24  O   UNL     1     110.879 126.612 141.837  0.00  0.00    +0.000 OA
ATOM     25  C   UNL     1     112.151 126.915 140.700  0.00  0.00    +0.000 C 
ATOM     26  C   UNL     1     112.480 126.947 139.757  0.00  0.00    +0.000 C 
ATOM     27  C   UNL     1     111.208 126.643 140.893  0.00  0.00    +0.000 C 
ATOM     28  C   UNL     1     111.866 126.706 139.005  0.00  0.00    +0.000 C 
ATOM     29  C   UNL     1     110.594 126.403 140.141  0.00  0.00    +0.000 C 
BRANCH  29  32
ATOM     30  O   UNL     1     109.454 125.206 140.659  0.00  0.00    +0.000 OA
ATOM     31  O   UNL     1     108.905 126.783 140.199  0.00  0.00    +0.000 OA
ATOM     32  C   UNL     1     109.651 126.131 140.333  0.00  0.00    +0.000 C 
ENDBRANCH  29  32
ENDBRANCH  20  28
ENDBRANCH   3  20
TORSDOF 7
ENDMDL
MODEL 4
REMARK VINA RESULT:      -8.2      1.683      2.045
REMARK  Name = 
REMARK  7 active torsions:
REMARK  status: ('A' for Active; 'I' for Inactive)
REMARK    1  A    between atoms: O_2  and  C_15
REMARK    2  A    between atoms: O_2  and  C_18
REMARK    3  A    between atoms: C_16  and  C_17
REMARK    4  A    between atoms: C_19  and  C_21
REMARK    5  A    between atoms: C_21  and  C_22
REMARK    6  A    between atoms: C_22  and  C_24
REMARK    7  A    between atoms: C_24  and  C_27
REMARK                            x       y       z     vdW  Elec       q    Type
REMARK                         _______ _______ _______ _____ _____    ______ ____
ROOT
ATOM      1  O   UNL     1     110.730 127.341 134.752  0.00  0.00    +0.000 OA
ATOM      2  O   UNL     1     107.878 129.013 135.788  0.00  0.00    +0.000 OA
ATOM      3  C   UNL     1     110.424 129.385 136.404  0.00  0.00    +0.000 A 
ATOM      4  C   UNL     1     110.857 128.666 135.861  0.00  0.00    +0.000 A 
ATOM      5  C   UNL     1     109.432 129.501 136.379  0.00  0.00    +0.000 A 
ATOM      6  C   UNL     1     110.297 128.061 135.294  0.00  0.00    +0.000 A 
ATOM      7  C   UNL     1     108.871 128.897 135.812  0.00  0.00    +0.000 A 
ATOM      8  C   UNL     1     109.304 128.177 135.270  0.00  0.00    +0.000 A 
ENDROOT
BRANCH   4  10
ATOM      9  O   UNL     1     112.438 129.164 135.359  0.00  0.00    +0.000 OA
ATOM     10  C   UNL     1     111.850 128.550 135.885  0.00  0.00    +0.000 C 
BRANCH  10  11
ATOM     11  C   UNL     1     112.255 127.820 136.436  0.00  0.00    +0.000 C 
BRANCH  11  12
ATOM     12  C   UNL     1     113.249 127.730 136.495  0.00  0.00    +0.000 C 
BRANCH  12  14
ATOM     13  O   UNL     1     114.882 124.269 137.659  0.00  0.00    +0.000 OA
ATOM     14  C   UNL     1     113.657 126.865 136.786  0.00  0.00    +0.000 A 
ATOM     15  C   UNL     1     113.483 126.515 137.706  0.00  0.00    +0.000 A 
ATOM     16  C   UNL     1     114.240 126.351 136.157  0.00  0.00    +0.000 A 
ATOM     17  C   UNL     1     113.891 125.649 137.997  0.00  0.00    +0.000 A 
ATOM     18  C   UNL     1     114.648 125.485 136.448  0.00  0.00    +0.000 A 
ATOM     19  C   UNL     1     114.474 125.135 137.368  0.00  0.00    +0.000 A 
ENDBRANCH  12  14
ENDBRANCH  11  12
ENDBRANCH  10  11
ENDBRANCH   4  10
BRANCH   3  20
ATOM     20  O   UNL     1     110.985 129.990 136.970  0.00  0.00    +0.000 OA
BRANCH  20  28
ATOM     21  O   UNL     1     110.172 129.807 138.489  0.00  0.00    +0.000 OA
ATOM     22  O   UNL     1     110.312 132.772 138.921  0.00  0.00    +0.000 OA
ATOM     23  O   UNL     1     111.078 131.967 137.258  0.00  0.00    +0.000 OA
ATOM     24  O   UNL     1     109.452 131.601 140.295  0.00  0.00    +0.000 OA
ATOM     25  C   UNL     1     110.265 131.784 138.777  0.00  0.00    +0.000 C 
ATOM     26  C   UNL     1     110.648 131.381 137.945  0.00  0.00    +0.000 C 
ATOM     27  C   UNL     1     109.835 131.199 139.464  0.00  0.00    +0.000 C 
ATOM     28  C   UNL     1     110.602 130.393 137.802  0.00  0.00    +0.000 C 
ATOM     29  C   UNL     1     109.788 130.210 139.320  0.00  0.00    +0.000 C 
BRANCH  29  32
ATOM     30  O   UNL     1     109.896 129.279 140.777  0.00  0.00    +0.000 OA
ATOM     31  O   UNL     1     108.391 129.384 139.925  0.00  0.00    +0.000 OA
ATOM     32  C   UNL     1     109.359 129.625 140.007  0.00  0.00    +0.000 C 
ENDBRANCH  29  32
ENDBRANCH  20  28
ENDBRANCH   3  20
TORSDOF 7
ENDMDL
MODEL 5
REMARK VINA RESULT:      -8.1      2.435      3.542
REMARK  Name = 
REMARK  7 active torsions:
REMARK  status: ('A' for Active; 'I' for Inactive)
REMARK    1  A    between atoms: O_2  and  C_15
REMARK    2  A    between atoms: O_2  and  C_18
REMARK    3  A    between atoms: C_16  and  C_17
REMARK    4  A    between atoms: C_19  and  C_21
REMARK    5  A    between atoms: C_21  and  C_22
REMARK    6  A    between atoms: C_22  and  C_24
REMARK    7  A    between atoms: C_24  and  C_27
REMARK                            x       y       z     vdW  Elec       q    Type
REMARK                         _______ _______ _______ _____ _____    ______ ____
ROOT
ATOM      1  O   UNL     1     114.220 128.908 135.768  0.00  0.00    +0.000 OA
ATOM      2  O   UNL     1     113.810 131.398 138.140  0.00  0.00    +0.000 OA
ATOM      3  C   UNL     1     112.090 129.648 137.151  0.00  0.00    +0.000 A 
ATOM      4  C   UNL     1     112.674 129.152 136.509  0.00  0.00    +0.000 A 
ATOM      5  C   UNL     1     112.469 130.397 137.695  0.00  0.00    +0.000 A 
ATOM      6  C   UNL     1     113.636 129.404 136.410  0.00  0.00    +0.000 A 
ATOM      7  C   UNL     1     113.431 130.649 137.596  0.00  0.00    +0.000 A 
ATOM      8  C   UNL     1     114.015 130.153 136.954  0.00  0.00    +0.000 A 
ENDROOT
BRANCH   4  10
ATOM      9  O   UNL     1     111.911 128.587 135.060  0.00  0.00    +0.000 OA
ATOM     10  C   UNL     1     112.295 128.403 135.965  0.00  0.00    +0.000 C 
BRANCH  10  11
ATOM     11  C   UNL     1     112.300 127.470 136.326  0.00  0.00    +0.000 C 
BRANCH  11  12
ATOM     12  C   UNL     1     111.980 126.712 135.758  0.00  0.00    +0.000 C 
BRANCH  12  14
ATOM     13  O   UNL     1     112.237 122.955 137.106  0.00  0.00    +0.000 OA
ATOM     14  C   UNL     1     112.044 125.773 136.095  0.00  0.00    +0.000 A 
ATOM     15  C   UNL     1     111.251 125.167 136.040  0.00  0.00    +0.000 A 
ATOM     16  C   UNL     1     112.902 125.440 136.486  0.00  0.00    +0.000 A 
ATOM     17  C   UNL     1     111.315 124.228 136.377  0.00  0.00    +0.000 A 
ATOM     18  C   UNL     1     112.966 124.501 136.823  0.00  0.00    +0.000 A 
ATOM     19  C   UNL     1     112.173 123.895 136.769  0.00  0.00    +0.000 A 
ENDBRANCH  12  14
ENDBRANCH  11  12
ENDBRANCH  10  11
ENDBRANCH   4  10
BRANCH   3  20
ATOM     20  O   UNL     1     111.127 129.396 137.250  0.00  0.00    +0.000 OA
BRANCH  20  28
ATOM     21  O   UNL     1     110.440 130.944 136.887  0.00  0.00    +0.000 OA
ATOM     22  O   UNL     1     108.385 130.533 139.034  0.00  0.00    +0.000 OA
ATOM     23  O   UNL     1     109.757 129.122 138.681  0.00  0.00    +0.000 OA
ATOM     24  O   UNL     1     108.382 132.218 137.956  0.00  0.00    +0.000 OA
ATOM     25  C   UNL     1     109.070 130.670 138.319  0.00  0.00    +0.000 C 
ATOM     26  C   UNL     1     109.756 129.965 138.142  0.00  0.00    +0.000 C 
ATOM     27  C   UNL     1     109.068 131.512 137.779  0.00  0.00    +0.000 C 
ATOM     28  C   UNL     1     110.441 130.101 137.426  0.00  0.00    +0.000 C 
ATOM     29  C   UNL     1     109.753 131.649 137.064  0.00  0.00    +0.000 C 
BRANCH  29  32
ATOM     30  O   UNL     1     110.299 133.275 136.820  0.00  0.00    +0.000 OA
ATOM     31  O   UNL     1     109.204 132.550 135.691  0.00  0.00    +0.000 OA
ATOM     32  C   UNL     1     109.752 132.491 136.525  0.00  0.00    +0.000 C 
ENDBRANCH  29  32
ENDBRANCH  20  28
ENDBRANCH   3  20
TORSDOF 7
ENDMDL
MODEL 6
REMARK VINA RESULT:      -8.1      1.142      2.380
REMARK  Name = 
REMARK  7 active torsions:
REMARK  status: ('A' for Active; 'I' for Inactive)
REMARK    1  A    between atoms: O_2  and  C_15
REMARK    2  A    between atoms: O_2  and  C_18
REMARK    3  A    between atoms: C_16  and  C_17
REMARK    4  A    between atoms: C_19  and  C_21
REMARK    5  A    between atoms: C_21  and  C_22
REMARK    6  A    between atoms: C_22  and  C_24
REMARK    7  A    between atoms: C_24  and  C_27
REMARK                            x       y       z     vdW  Elec       q    Type
REMARK                         _______ _______ _______ _____ _____    ______ ____
ROOT
ATOM      1  O   UNL     1     108.818 126.470 135.658  0.00  0.00    +0.000 OA
ATOM      2  O   UNL     1     108.562 129.922 135.547  0.00  0.00    +0.000 OA
ATOM      3  C   UNL     1     109.667 128.325 137.343  0.00  0.00    +0.000 A 
ATOM      4  C   UNL     1     109.487 127.429 136.936  0.00  0.00    +0.000 A 
ATOM      5  C   UNL     1     109.359 129.156 136.880  0.00  0.00    +0.000 A 
ATOM      6  C   UNL     1     108.999 127.365 136.066  0.00  0.00    +0.000 A 
ATOM      7  C   UNL     1     108.871 129.091 136.010  0.00  0.00    +0.000 A 
ATOM      8  C   UNL     1     108.690 128.196 135.603  0.00  0.00    +0.000 A 
ENDROOT
BRANCH   4  10
ATOM      9  O   UNL     1     109.269 126.227 138.164  0.00  0.00    +0.000 OA
ATOM     10  C   UNL     1     109.795 126.598 137.399  0.00  0.00    +0.000 C 
BRANCH  10  11
ATOM     11  C   UNL     1     110.630 126.138 137.097  0.00  0.00    +0.000 C 
BRANCH  11  12
ATOM     12  C   UNL     1     111.052 125.439 137.674  0.00  0.00    +0.000 C 
BRANCH  12  14
ATOM     13  O   UNL     1     114.934 124.571 137.249  0.00  0.00    +0.000 OA
ATOM     14  C   UNL     1     112.022 125.222 137.567  0.00  0.00    +0.000 A 
ATOM     15  C   UNL     1     112.301 124.423 137.034  0.00  0.00    +0.000 A 
ATOM     16  C   UNL     1     112.715 125.804 137.994  0.00  0.00    +0.000 A 
ATOM     17  C   UNL     1     113.271 124.206 136.928  0.00  0.00    +0.000 A 
ATOM     18  C   UNL     1     113.685 125.587 137.888  0.00  0.00    +0.000 A 
ATOM     19  C   UNL     1     113.963 124.788 137.355  0.00  0.00    +0.000 A 
ENDBRANCH  12  14
ENDBRANCH  11  12
ENDBRANCH  10  11
ENDBRANCH   4  10
BRANCH   3  20
ATOM     20  O   UNL     1     110.155 128.389 138.213  0.00  0.00    +0.000 OA
BRANCH  20  28
ATOM     21  O   UNL     1     111.594 129.134 137.599  0.00  0.00    +0.000 OA
ATOM     22  O   UNL     1     111.778 130.818 140.075  0.00  0.00    +0.000 OA
ATOM     23  O   UNL     1     110.278 129.512 139.864  0.00  0.00    +0.000 OA
ATOM     24  O   UNL     1     113.155 131.001 138.636  0.00  0.00    +0.000 OA
ATOM     25  C   UNL     1     111.717 130.257 139.250  0.00  0.00    +0.000 C 
ATOM     26  C   UNL     1     110.967 129.604 139.144  0.00  0.00    +0.000 C 
ATOM     27  C   UNL     1     112.405 130.348 138.530  0.00  0.00    +0.000 C 
ATOM     28  C   UNL     1     110.905 129.042 138.319  0.00  0.00    +0.000 C 
ATOM     29  C   UNL     1     112.343 129.787 137.705  0.00  0.00    +0.000 C 
BRANCH  29  32
ATOM     30  O   UNL     1     113.810 129.251 136.956  0.00  0.00    +0.000 OA
ATOM     31  O   UNL     1     112.942 130.597 136.296  0.00  0.00    +0.000 OA
ATOM     32  C   UNL     1     113.032 129.878 136.985  0.00  0.00    +0.000 C 
ENDBRANCH  29  32
ENDBRANCH  20  28
ENDBRANCH   3  20
TORSDOF 7
ENDMDL
MODEL 7
REMARK VINA RESULT:      -8.1      6.879      8.805
REMARK  Name = 
REMARK  7 active torsions:
REMARK  status: ('A' for Active; 'I' for Inactive)
REMARK    1  A    between atoms: O_2  and  C_15
REMARK    2  A    between atoms: O_2  and  C_18
REMARK    3  A    between atoms: C_16  and  C_17
REMARK    4  A    between atoms: C_19  and  C_21
REMARK    5  A    between atoms: C_21  and  C_22
REMARK    6  A    between atoms: C_22  and  C_24
REMARK    7  A    between atoms: C_24  and  C_27
REMARK                            x       y       z     vdW  Elec       q    Type
REMARK                         _______ _______ _______ _____ _____    ______ ____
ROOT
ATOM      1  O   UNL     1     106.449 127.734 141.550  0.00  0.00    +0.000 OA
ATOM      2  O   UNL     1     105.384 128.832 144.658  0.00  0.00    +0.000 OA
ATOM      3  C   UNL     1     105.789 126.388 143.730  0.00  0.00    +0.000 A 
ATOM      4  C   UNL     1     106.087 126.587 142.796  0.00  0.00    +0.000 A 
ATOM      5  C   UNL     1     105.555 127.136 144.350  0.00  0.00    +0.000 A 
ATOM      6  C   UNL     1     106.151 127.535 142.483  0.00  0.00    +0.000 A 
ATOM      7  C   UNL     1     105.618 128.084 144.037  0.00  0.00    +0.000 A 
ATOM      8  C   UNL     1     105.916 128.283 143.104  0.00  0.00    +0.000 A 
ENDROOT
BRANCH   4  10
ATOM      9  O   UNL     1     107.265 125.511 142.121  0.00  0.00    +0.000 OA
ATOM     10  C   UNL     1     106.321 125.839 142.175  0.00  0.00    +0.000 C 
BRANCH  10  11
ATOM     11  C   UNL     1     105.613 125.419 141.609  0.00  0.00    +0.000 C 
BRANCH  11  12
ATOM     12  C   UNL     1     105.865 124.770 140.892  0.00  0.00    +0.000 C 
BRANCH  12  14
ATOM     13  O   UNL     1     103.103 123.466 138.310  0.00  0.00    +0.000 OA
ATOM     14  C   UNL     1     105.175 124.444 140.246  0.00  0.00    +0.000 A 
ATOM     15  C   UNL     1     104.742 123.553 140.385  0.00  0.00    +0.000 A 
ATOM     16  C   UNL     1     104.917 125.008 139.463  0.00  0.00    +0.000 A 
ATOM     17  C   UNL     1     104.051 123.227 139.739  0.00  0.00    +0.000 A 
ATOM     18  C   UNL     1     104.226 124.682 138.817  0.00  0.00    +0.000 A 
ATOM     19  C   UNL     1     103.793 123.792 138.955  0.00  0.00    +0.000 A 
ENDBRANCH  12  14
ENDBRANCH  11  12
ENDBRANCH  10  11
ENDBRANCH   4  10
BRANCH   3  20
ATOM     20  O   UNL     1     105.726 125.440 144.043  0.00  0.00    +0.000 OA
BRANCH  20  28
ATOM     21  O   UNL     1     106.628 125.589 145.514  0.00  0.00    +0.000 OA
ATOM     22  O   UNL     1     104.625 123.851 146.917  0.00  0.00    +0.000 OA
ATOM     23  O   UNL     1     104.391 124.281 144.978  0.00  0.00    +0.000 OA
ATOM     24  O   UNL     1     106.195 124.579 147.920  0.00  0.00    +0.000 OA
ATOM     25  C   UNL     1     105.293 124.430 146.449  0.00  0.00    +0.000 C 
ATOM     26  C   UNL     1     105.176 124.646 145.480  0.00  0.00    +0.000 C 
ATOM     27  C   UNL     1     106.077 124.794 146.951  0.00  0.00    +0.000 C 
ATOM     28  C   UNL     1     105.843 125.225 145.012  0.00  0.00    +0.000 C 
ATOM     29  C   UNL     1     106.745 125.374 146.483  0.00  0.00    +0.000 C 
BRANCH  29  32
ATOM     30  O   UNL     1     107.566 126.710 147.219  0.00  0.00    +0.000 OA
ATOM     31  O   UNL     1     108.278 125.131 147.252  0.00  0.00    +0.000 OA
ATOM     32  C   UNL     1     107.529 125.738 146.985  0.00  0.00    +0.000 C 
ENDBRANCH  29  32
ENDBRANCH  20  28
ENDBRANCH   3  20
TORSDOF 7
ENDMDL
MODEL 8
REMARK VINA RESULT:      -8.1      2.291      4.873
REMARK  Name = 
REMARK  7 active torsions:
REMARK  status: ('A' for Active; 'I' for Inactive)
REMARK    1  A    between atoms: O_2  and  C_15
REMARK    2  A    between atoms: O_2  and  C_18
REMARK    3  A    between atoms: C_16  and  C_17
REMARK    4  A    between atoms: C_19  and  C_21
REMARK    5  A    between atoms: C_21  and  C_22
REMARK    6  A    between atoms: C_22  and  C_24
REMARK    7  A    between atoms: C_24  and  C_27
REMARK                            x       y       z     vdW  Elec       q    Type
REMARK                         _______ _______ _______ _____ _____    ______ ____
ROOT
ATOM      1  O   UNL     1     112.033 124.186 136.333  0.00  0.00    +0.000 OA
ATOM      2  O   UNL     1     115.273 125.025 137.226  0.00  0.00    +0.000 OA
ATOM      3  C   UNL     1     112.947 125.763 138.250  0.00  0.00    +0.000 A 
ATOM      4  C   UNL     1     112.314 125.264 137.659  0.00  0.00    +0.000 A 
ATOM      5  C   UNL     1     113.934 125.684 138.105  0.00  0.00    +0.000 A 
ATOM      6  C   UNL     1     112.666 124.685 136.924  0.00  0.00    +0.000 A 
ATOM      7  C   UNL     1     114.286 125.105 137.370  0.00  0.00    +0.000 A 
ATOM      8  C   UNL     1     113.653 124.605 136.779  0.00  0.00    +0.000 A 
ENDROOT
BRANCH   4  10
ATOM      9  O   UNL     1     110.902 124.911 138.598  0.00  0.00    +0.000 OA
ATOM     10  C   UNL     1     111.327 125.343 137.804  0.00  0.00    +0.000 C 
BRANCH  10  11
ATOM     11  C   UNL     1     110.767 125.856 137.153  0.00  0.00    +0.000 C 
BRANCH  11  12
ATOM     12  C   UNL     1     109.901 126.260 137.449  0.00  0.00    +0.000 C 
BRANCH  12  14
ATOM     13  O   UNL     1     108.408 129.427 135.515  0.00  0.00    +0.000 OA
ATOM     14  C   UNL     1     109.528 127.052 136.966  0.00  0.00    +0.000 A 
ATOM     15  C   UNL     1     108.977 126.920 136.142  0.00  0.00    +0.000 A 
ATOM     16  C   UNL     1     109.705 127.975 137.306  0.00  0.00    +0.000 A 
ATOM     17  C   UNL     1     108.604 127.712 135.658  0.00  0.00    +0.000 A 
ATOM     18  C   UNL     1     109.332 128.767 136.823  0.00  0.00    +0.000 A 
ATOM     19  C   UNL     1     108.781 128.635 135.999  0.00  0.00    +0.000 A 
ENDBRANCH  12  14
ENDBRANCH  11  12
ENDBRANCH  10  11
ENDBRANCH   4  10
BRANCH   3  20
ATOM     20  O   UNL     1     112.595 126.342 138.985  0.00  0.00    +0.000 OA
BRANCH  20  28
ATOM     21  O   UNL     1     112.923 127.907 138.319  0.00  0.00    +0.000 OA
ATOM     22  O   UNL     1     113.989 128.813 140.972  0.00  0.00    +0.000 OA
ATOM     23  O   UNL     1     113.305 126.947 140.754  0.00  0.00    +0.000 OA
ATOM     24  O   UNL     1     113.962 130.076 139.421  0.00  0.00    +0.000 OA
ATOM     25  C   UNL     1     113.634 128.511 140.088  0.00  0.00    +0.000 C 
ATOM     26  C   UNL     1     113.292 127.578 139.979  0.00  0.00    +0.000 C 
ATOM     27  C   UNL     1     113.620 129.142 139.312  0.00  0.00    +0.000 C 
ATOM     28  C   UNL     1     112.937 127.275 139.094  0.00  0.00    +0.000 C 
ATOM     29  C   UNL     1     113.265 128.840 138.428  0.00  0.00    +0.000 C 
BRANCH  29  32
ATOM     30  O   UNL     1     112.517 130.144 137.568  0.00  0.00    +0.000 OA
ATOM     31  O   UNL     1     113.973 129.429 136.961  0.00  0.00    +0.000 OA
ATOM     32  C   UNL     1     113.252 129.471 137.652  0.00  0.00    +0.000 C 
ENDBRANCH  29  32
ENDBRANCH  20  28
ENDBRANCH   3  20
TORSDOF 7
ENDMDL
MODEL 9
REMARK VINA RESULT:      -8.0      1.923      3.939
REMARK  Name = 
REMARK  7 active torsions:
REMARK  status: ('A' for Active; 'I' for Inactive)
REMARK    1  A    between atoms: O_2  and  C_15
REMARK    2  A    between atoms: O_2  and  C_18
REMARK    3  A    between atoms: C_16  and  C_17
REMARK    4  A    between atoms: C_19  and  C_21
REMARK    5  A    between atoms: C_21  and  C_22
REMARK    6  A    between atoms: C_22  and  C_24
REMARK    7  A    between atoms: C_24  and  C_27
REMARK                            x       y       z     vdW  Elec       q    Type
REMARK                         _______ _______ _______ _____ _____    ______ ____
ROOT
ATOM      1  O   UNL     1     113.969 129.259 138.850  0.00  0.00    +0.000 OA
ATOM      2  O   UNL     1     111.158 131.138 139.599  0.00  0.00    +0.000 OA
ATOM      3  C   UNL     1     111.703 129.590 137.525  0.00  0.00    +0.000 A 
ATOM      4  C   UNL     1     112.621 129.272 137.762  0.00  0.00    +0.000 A 
ATOM      5  C   UNL     1     111.215 130.212 138.137  0.00  0.00    +0.000 A 
ATOM      6  C   UNL     1     113.051 129.576 138.612  0.00  0.00    +0.000 A 
ATOM      7  C   UNL     1     111.646 130.516 138.987  0.00  0.00    +0.000 A 
ATOM      8  C   UNL     1     112.563 130.199 139.224  0.00  0.00    +0.000 A 
ENDROOT
BRANCH   4  10
ATOM      9  O   UNL     1     113.654 129.016 136.396  0.00  0.00    +0.000 OA
ATOM     10  C   UNL     1     113.109 128.650 137.150  0.00  0.00    +0.000 C 
BRANCH  10  11
ATOM     11  C   UNL     1     113.051 127.662 137.291  0.00  0.00    +0.000 C 
BRANCH  11  12
ATOM     12  C   UNL     1     113.368 127.035 136.579  0.00  0.00    +0.000 C 
BRANCH  12  14
ATOM     13  O   UNL     1     112.538 123.131 136.836  0.00  0.00    +0.000 OA
ATOM     14  C   UNL     1     113.160 126.059 136.643  0.00  0.00    +0.000 A 
ATOM     15  C   UNL     1     112.246 125.726 136.411  0.00  0.00    +0.000 A 
ATOM     16  C   UNL     1     113.866 125.416 136.940  0.00  0.00    +0.000 A 
ATOM     17  C   UNL     1     112.039 124.750 136.475  0.00  0.00    +0.000 A 
ATOM     18  C   UNL     1     113.659 124.440 137.005  0.00  0.00    +0.000 A 
ATOM     19  C   UNL     1     112.745 124.107 136.772  0.00  0.00    +0.000 A 
ENDBRANCH  12  14
ENDBRANCH  11  12
ENDBRANCH  10  11
ENDBRANCH   4  10
BRANCH   3  20
ATOM     20  O   UNL     1     111.273 129.285 136.675  0.00  0.00    +0.000 OA
BRANCH  20  28
ATOM     21  O   UNL     1     110.308 130.658 136.246  0.00  0.00    +0.000 OA
ATOM     22  O   UNL     1     107.939 128.865 135.833  0.00  0.00    +0.000 OA
ATOM     23  O   UNL     1     109.694 128.090 136.400  0.00  0.00    +0.000 OA
ATOM     24  O   UNL     1     107.764 130.836 135.542  0.00  0.00    +0.000 OA
ATOM     25  C   UNL     1     108.729 129.463 135.971  0.00  0.00    +0.000 C 
ATOM     26  C   UNL     1     109.606 129.075 136.254  0.00  0.00    +0.000 C 
ATOM     27  C   UNL     1     108.641 130.448 135.825  0.00  0.00    +0.000 C 
ATOM     28  C   UNL     1     110.396 129.673 136.392  0.00  0.00    +0.000 C 
ATOM     29  C   UNL     1     109.431 131.046 135.963  0.00  0.00    +0.000 C 
BRANCH  29  32
ATOM     30  O   UNL     1     109.277 132.396 134.889  0.00  0.00    +0.000 OA
ATOM     31  O   UNL     1     109.322 132.653 136.601  0.00  0.00    +0.000 OA
ATOM     32  C   UNL     1     109.344 132.032 135.817  0.00  0.00    +0.000 C 
ENDBRANCH  29  32
ENDBRANCH  20  28
ENDBRANCH   3  20
TORSDOF 7
ENDMDL
MODEL 10
REMARK VINA RESULT:      -8.0      2.420      3.931
REMARK  Name = 
REMARK  7 active torsions:
REMARK  status: ('A' for Active; 'I' for Inactive)
REMARK    1  A    between atoms: O_2  and  C_15
REMARK    2  A    between atoms: O_2  and  C_18
REMARK    3  A    between atoms: C_16  and  C_17
REMARK    4  A    between atoms: C_19  and  C_21
REMARK    5  A    between atoms: C_21  and  C_22
REMARK    6  A    between atoms: C_22  and  C_24
REMARK    7  A    between atoms: C_24  and  C_27
REMARK                            x       y       z     vdW  Elec       q    Type
REMARK                         _______ _______ _______ _____ _____    ______ ____
ROOT
ATOM      1  O   UNL     1     114.523 127.968 141.044  0.00  0.00    +0.000 OA
ATOM      2  O   UNL     1     114.866 131.349 140.374  0.00  0.00    +0.000 OA
ATOM      3  C   UNL     1     113.216 129.543 139.367  0.00  0.00    +0.000 A 
ATOM      4  C   UNL     1     113.500 128.726 139.870  0.00  0.00    +0.000 A 
ATOM      5  C   UNL     1     113.671 130.417 139.535  0.00  0.00    +0.000 A 
ATOM      6  C   UNL     1     114.239 128.785 140.541  0.00  0.00    +0.000 A 
ATOM      7  C   UNL     1     114.410 130.475 140.206  0.00  0.00    +0.000 A 
ATOM      8  C   UNL     1     114.694 129.659 140.709  0.00  0.00    +0.000 A 
ENDROOT
BRANCH   4  10
ATOM      9  O   UNL     1     112.309 127.547 140.307  0.00  0.00    +0.000 OA
ATOM     10  C   UNL     1     113.045 127.852 139.702  0.00  0.00    +0.000 C 
BRANCH  10  11
ATOM     11  C   UNL     1     113.325 127.283 138.929  0.00  0.00    +0.000 C 
BRANCH  11  12
ATOM     12  C   UNL     1     113.038 126.326 138.884  0.00  0.00    +0.000 C 
BRANCH  12  14
ATOM     13  O   UNL     1     114.073 124.077 135.742  0.00  0.00    +0.000 OA
ATOM     14  C   UNL     1     113.297 125.764 138.098  0.00  0.00    +0.000 A 
ATOM     15  C   UNL     1     114.256 125.523 137.949  0.00  0.00    +0.000 A 
ATOM     16  C   UNL     1     112.596 125.442 137.461  0.00  0.00    +0.000 A 
ATOM     17  C   UNL     1     114.515 124.961 137.164  0.00  0.00    +0.000 A 
ATOM     18  C   UNL     1     112.855 124.880 136.676  0.00  0.00    +0.000 A 
ATOM     19  C   UNL     1     113.814 124.639 136.527  0.00  0.00    +0.000 A 
ENDBRANCH  12  14
ENDBRANCH  11  12
ENDBRANCH  10  11
ENDBRANCH   4  10
BRANCH   3  20
ATOM     20  O   UNL     1     112.477 129.485 138.696  0.00  0.00    +0.000 OA
BRANCH  20  28
ATOM     21  O   UNL     1     111.269 130.417 139.516  0.00  0.00    +0.000 OA
ATOM     22  O   UNL     1     110.604 131.815 136.947  0.00  0.00    +0.000 OA
ATOM     23  O   UNL     1     112.033 130.417 136.983  0.00  0.00    +0.000 OA
ATOM     24  O   UNL     1     109.618 132.281 138.623  0.00  0.00    +0.000 OA
ATOM     25  C   UNL     1     110.825 131.349 137.803  0.00  0.00    +0.000 C 
ATOM     26  C   UNL     1     111.540 130.650 137.821  0.00  0.00    +0.000 C 
ATOM     27  C   UNL     1     110.332 131.582 138.641  0.00  0.00    +0.000 C 
ATOM     28  C   UNL     1     111.762 130.184 138.678  0.00  0.00    +0.000 C 
ATOM     29  C   UNL     1     110.554 131.116 139.498  0.00  0.00    +0.000 C 
BRANCH  29  32
ATOM     30  O   UNL     1     110.533 131.825 141.078  0.00  0.00    +0.000 OA
ATOM     31  O   UNL     1     109.096 131.106 140.432  0.00  0.00    +0.000 OA
ATOM     32  C   UNL     1     110.061 131.349 140.336  0.00  0.00    +0.000 C 
ENDBRANCH  29  32
ENDBRANCH  20  28
ENDBRANCH   3  20
TORSDOF 7
ENDMDL
