MODEL 1
REMARK VINA RESULT:      -8.8      0.000      0.000
REMARK  Name = 14237675
REMARK  4 active torsions:
REMARK  status: ('A' for Active; 'I' for Inactive)
REMARK    1  A    between atoms: O_3  and  C_18
REMARK    2  A    between atoms: C_5  and  C_12
REMARK    3  A    between atoms: C_9  and  C_10
REMARK    4  A    between atoms: C_9  and  C_19
REMARK                            x       y       z     vdW  Elec       q    Type
REMARK                         _______ _______ _______ _____ _____    ______ ____
ROOT
ATOM      1  O   UNL     1     112.374 128.181 135.834  0.00  0.00    +0.000 OA
ATOM      2  O   UNL     1     112.067 125.502 136.849  0.00  0.00    +0.000 OA
ATOM      3  C   UNL     1     113.730 128.780 135.738  0.00  0.00    +0.000 C 
ATOM      4  C   UNL     1     114.062 128.053 136.055  0.00  0.00    +0.000 C 
ATOM      5  C   UNL     1     113.540 127.402 136.257  0.00  0.00    +0.000 A 
ATOM      6  C   UNL     1     112.880 128.845 135.627  0.00  0.00    +0.000 C 
ATOM      7  C   UNL     1     113.374 126.074 136.758  0.00  0.00    +0.000 A 
ATOM      8  C   UNL     1     112.724 127.464 136.150  0.00  0.00    +0.000 A 
ATOM      9  C   UNL     1     113.864 126.707 136.561  0.00  0.00    +0.000 A 
ATOM     10  C   UNL     1     112.558 126.136 136.652  0.00  0.00    +0.000 A 
ATOM     11  C   UNL     1     112.233 126.830 136.348  0.00  0.00    +0.000 A 
ENDROOT
BRANCH   3  13
ATOM     12  O   UNL     1     115.703 131.305 134.950  0.00  0.00    +0.000 OA
ATOM     13  C   UNL     1     114.223 129.412 135.541  0.00  0.00    +0.000 A 
ATOM     14  C   UNL     1     114.334 130.030 136.075  0.00  0.00    +0.000 A 
ATOM     15  C   UNL     1     114.605 129.424 134.810  0.00  0.00    +0.000 A 
ATOM     16  C   UNL     1     114.828 130.662 135.878  0.00  0.00    +0.000 A 
ATOM     17  C   UNL     1     115.098 130.055 134.613  0.00  0.00    +0.000 A 
ATOM     18  C   UNL     1     115.209 130.674 135.148  0.00  0.00    +0.000 A 
BRANCH  14  19
ATOM     19  O   UNL     1     113.952 130.018 136.806  0.00  0.00    +0.000 OA
ATOM     20  C   UNL     1     114.069 130.633 137.343  0.00  0.00    +0.000 C 
ENDBRANCH  14  19
ENDBRANCH   3  13
BRANCH   7  21
ATOM     21  C   UNL     1     113.698 125.379 137.062  0.00  0.00    +0.000 C 
ATOM     22  C   UNL     1     113.739 125.065 136.300  0.00  0.00    +0.000 C 
ATOM     23  C   UNL     1     113.657 125.692 137.824  0.00  0.00    +0.000 C 
BRANCH  21  24
ATOM     24  C   UNL     1     114.022 124.683 137.365  0.00  0.00    +0.000 C 
ATOM     25  C   UNL     1     114.837 124.623 137.480  0.00  0.00    +0.000 C 
ENDBRANCH  21  24
ENDBRANCH   7  21
TORSDOF 4
ENDMDL
MODEL 2
REMARK VINA RESULT:      -8.4      3.197      3.473
REMARK  Name = 14237675
REMARK  4 active torsions:
REMARK  status: ('A' for Active; 'I' for Inactive)
REMARK    1  A    between atoms: O_3  and  C_18
REMARK    2  A    between atoms: C_5  and  C_12
REMARK    3  A    between atoms: C_9  and  C_10
REMARK    4  A    between atoms: C_9  and  C_19
REMARK                            x       y       z     vdW  Elec       q    Type
REMARK                         _______ _______ _______ _____ _____    ______ ____
ROOT
ATOM      1  O   UNL     1     110.493 125.298 135.793  0.00  0.00    +0.000 OA
ATOM      2  O   UNL     1     112.512 123.496 136.780  0.00  0.00    +0.000 OA
ATOM      3  C   UNL     1     110.775 126.755 135.728  0.00  0.00    +0.000 C 
ATOM      4  C   UNL     1     111.560 126.606 136.046  0.00  0.00    +0.000 C 
ATOM      5  C   UNL     1     111.796 125.802 136.232  0.00  0.00    +0.000 A 
ATOM      6  C   UNL     1     110.238 126.097 135.601  0.00  0.00    +0.000 C 
ATOM      7  C   UNL     1     112.789 124.897 136.720  0.00  0.00    +0.000 A 
ATOM      8  C   UNL     1     111.281 125.170 136.110  0.00  0.00    +0.000 A 
ATOM      9  C   UNL     1     112.551 125.665 136.537  0.00  0.00    +0.000 A 
ATOM     10  C   UNL     1     112.274 124.265 136.597  0.00  0.00    +0.000 A 
ATOM     11  C   UNL     1     111.519 124.401 136.293  0.00  0.00    +0.000 A 
ENDROOT
BRANCH   3  13
ATOM     12  O   UNL     1     109.831 129.832 135.001  0.00  0.00    +0.000 OA
ATOM     13  C   UNL     1     110.539 127.524 135.547  0.00  0.00    +0.000 A 
ATOM     14  C   UNL     1     110.163 127.986 136.118  0.00  0.00    +0.000 A 
ATOM     15  C   UNL     1     110.679 127.832 134.794  0.00  0.00    +0.000 A 
ATOM     16  C   UNL     1     109.927 128.756 135.935  0.00  0.00    +0.000 A 
ATOM     17  C   UNL     1     110.443 128.600 134.612  0.00  0.00    +0.000 A 
ATOM     18  C   UNL     1     110.067 129.063 135.184  0.00  0.00    +0.000 A 
BRANCH  14  19
ATOM     19  O   UNL     1     110.023 127.679 136.871  0.00  0.00    +0.000 OA
ATOM     20  C   UNL     1     109.647 128.141 137.441  0.00  0.00    +0.000 C 
ENDBRANCH  14  19
ENDBRANCH   3  13
BRANCH   7  21
ATOM     21  C   UNL     1     113.544 124.760 137.025  0.00  0.00    +0.000 C 
ATOM     22  C   UNL     1     113.827 124.623 136.261  0.00  0.00    +0.000 C 
ATOM     23  C   UNL     1     113.261 124.897 137.787  0.00  0.00    +0.000 C 
BRANCH  21  24
ATOM     24  C   UNL     1     114.299 124.623 137.328  0.00  0.00    +0.000 C 
ATOM     25  C   UNL     1     114.930 125.102 137.098  0.00  0.00    +0.000 C 
ENDBRANCH  21  24
ENDBRANCH   7  21
TORSDOF 4
ENDMDL
MODEL 3
REMARK VINA RESULT:      -8.3     12.543     14.165
REMARK  Name = 14237675
REMARK  4 active torsions:
REMARK  status: ('A' for Active; 'I' for Inactive)
REMARK    1  A    between atoms: O_3  and  C_18
REMARK    2  A    between atoms: C_5  and  C_12
REMARK    3  A    between atoms: C_9  and  C_10
REMARK    4  A    between atoms: C_9  and  C_19
REMARK                            x       y       z     vdW  Elec       q    Type
REMARK                         _______ _______ _______ _____ _____    ______ ____
ROOT
ATOM      1  O   UNL     1     100.877 132.138 142.108  0.00  0.00    +0.000 OA
ATOM      2  O   UNL     1     100.881 135.018 142.171  0.00  0.00    +0.000 OA
ATOM      3  C   UNL     1     102.035 131.413 141.526  0.00  0.00    +0.000 C 
ATOM      4  C   UNL     1     102.410 132.168 141.360  0.00  0.00    +0.000 C 
ATOM      5  C   UNL     1     102.009 132.897 141.572  0.00  0.00    +0.000 A 
ATOM      6  C   UNL     1     101.263 131.398 141.903  0.00  0.00    +0.000 C 
ATOM      7  C   UNL     1     101.999 134.326 141.610  0.00  0.00    +0.000 A 
ATOM      8  C   UNL     1     101.268 132.882 141.934  0.00  0.00    +0.000 A 
ATOM      9  C   UNL     1     102.374 133.619 141.410  0.00  0.00    +0.000 A 
ATOM     10  C   UNL     1     101.258 134.311 141.971  0.00  0.00    +0.000 A 
ATOM     11  C   UNL     1     100.892 133.590 142.134  0.00  0.00    +0.000 A 
ENDROOT
BRANCH   3  13
ATOM     12  O   UNL     1     103.546 128.592 140.723  0.00  0.00    +0.000 OA
ATOM     13  C   UNL     1     102.413 130.708 141.326  0.00  0.00    +0.000 A 
ATOM     14  C   UNL     1     102.891 130.324 141.878  0.00  0.00    +0.000 A 
ATOM     15  C   UNL     1     102.313 130.386 140.572  0.00  0.00    +0.000 A 
ATOM     16  C   UNL     1     103.268 129.618 141.677  0.00  0.00    +0.000 A 
ATOM     17  C   UNL     1     102.690 129.681 140.372  0.00  0.00    +0.000 A 
ATOM     18  C   UNL     1     103.169 129.297 140.924  0.00  0.00    +0.000 A 
BRANCH  14  19
ATOM     19  O   UNL     1     102.990 130.646 142.631  0.00  0.00    +0.000 OA
ATOM     20  C   UNL     1     103.474 130.266 143.180  0.00  0.00    +0.000 C 
ENDBRANCH  14  19
ENDBRANCH   3  13
BRANCH   7  21
ATOM     21  C   UNL     1     102.364 135.048 141.448  0.00  0.00    +0.000 C 
ATOM     22  C   UNL     1     101.985 135.074 140.714  0.00  0.00    +0.000 C 
ATOM     23  C   UNL     1     102.742 135.021 142.180  0.00  0.00    +0.000 C 
BRANCH  21  24
ATOM     24  C   UNL     1     102.728 135.769 141.284  0.00  0.00    +0.000 C 
ATOM     25  C   UNL     1     103.518 135.789 141.047  0.00  0.00    +0.000 C 
ENDBRANCH  21  24
ENDBRANCH   7  21
TORSDOF 4
ENDMDL
MODEL 4
REMARK VINA RESULT:      -8.1      1.286      1.733
REMARK  Name = 14237675
REMARK  4 active torsions:
REMARK  status: ('A' for Active; 'I' for Inactive)
REMARK    1  A    between atoms: O_3  and  C_18
REMARK    2  A    between atoms: C_5  and  C_12
REMARK    3  A    between atoms: C_9  and  C_10
REMARK    4  A    between atoms: C_9  and  C_19
REMARK                            x       y       z     vdW  Elec       q    Type
REMARK                         _______ _______ _______ _____ _____    ______ ____
ROOT
ATOM      1  O   UNL     1     111.383 127.683 135.277  0.00  0.00    +0.000 OA
ATOM      2  O   UNL     1     110.520 124.979 135.769  0.00  0.00    +0.000 OA
ATOM      3  C   UNL     1     112.662 128.164 135.858  0.00  0.00    +0.000 C 
ATOM      4  C   UNL     1     112.779 127.390 136.215  0.00  0.00    +0.000 C 
ATOM      5  C   UNL     1     112.192 126.775 136.095  0.00  0.00    +0.000 A 
ATOM      6  C   UNL     1     111.960 128.311 135.386  0.00  0.00    +0.000 C 
ATOM      7  C   UNL     1     111.752 125.437 136.331  0.00  0.00    +0.000 A 
ATOM      8  C   UNL     1     111.517 126.917 135.641  0.00  0.00    +0.000 A 
ATOM      9  C   UNL     1     112.309 126.035 136.440  0.00  0.00    +0.000 A 
ATOM     10  C   UNL     1     111.077 125.578 135.878  0.00  0.00    +0.000 A 
ATOM     11  C   UNL     1     110.959 126.318 135.533  0.00  0.00    +0.000 A 
ENDROOT
BRANCH   3  13
ATOM     12  O   UNL     1     114.898 130.551 136.298  0.00  0.00    +0.000 OA
ATOM     13  C   UNL     1     113.221 128.761 135.968  0.00  0.00    +0.000 A 
ATOM     14  C   UNL     1     113.115 129.320 136.566  0.00  0.00    +0.000 A 
ATOM     15  C   UNL     1     113.886 128.799 135.481  0.00  0.00    +0.000 A 
ATOM     16  C   UNL     1     113.675 129.917 136.676  0.00  0.00    +0.000 A 
ATOM     17  C   UNL     1     114.444 129.395 135.591  0.00  0.00    +0.000 A 
ATOM     18  C   UNL     1     114.338 129.955 136.189  0.00  0.00    +0.000 A 
BRANCH  14  19
ATOM     19  O   UNL     1     112.451 129.282 137.053  0.00  0.00    +0.000 OA
ATOM     20  C   UNL     1     112.345 129.841 137.650  0.00  0.00    +0.000 C 
ENDBRANCH  14  19
ENDBRANCH   3  13
BRANCH   7  21
ATOM     21  C   UNL     1     111.869 124.696 136.676  0.00  0.00    +0.000 C 
ATOM     22  C   UNL     1     111.448 124.941 137.343  0.00  0.00    +0.000 C 
ATOM     23  C   UNL     1     112.289 124.452 136.010  0.00  0.00    +0.000 C 
BRANCH  21  24
ATOM     24  C   UNL     1     111.985 123.956 137.022  0.00  0.00    +0.000 C 
ATOM     25  C   UNL     1     112.743 123.632 137.058  0.00  0.00    +0.000 C 
ENDBRANCH  21  24
ENDBRANCH   7  21
TORSDOF 4
ENDMDL
MODEL 5
REMARK VINA RESULT:      -8.0     13.766     15.429
REMARK  Name = 14237675
REMARK  4 active torsions:
REMARK  status: ('A' for Active; 'I' for Inactive)
REMARK    1  A    between atoms: O_3  and  C_18
REMARK    2  A    between atoms: C_5  and  C_12
REMARK    3  A    between atoms: C_9  and  C_10
REMARK    4  A    between atoms: C_9  and  C_19
REMARK                            x       y       z     vdW  Elec       q    Type
REMARK                         _______ _______ _______ _____ _____    ______ ____
ROOT
ATOM      1  O   UNL     1     103.889 125.689 148.494  0.00  0.00    +0.000 OA
ATOM      2  O   UNL     1     101.350 124.494 147.841  0.00  0.00    +0.000 OA
ATOM      3  C   UNL     1     105.135 125.139 147.901  0.00  0.00    +0.000 C 
ATOM      4  C   UNL     1     104.665 124.551 147.485  0.00  0.00    +0.000 C 
ATOM      5  C   UNL     1     103.812 124.544 147.583  0.00  0.00    +0.000 A 
ATOM      6  C   UNL     1     104.744 125.712 148.408  0.00  0.00    +0.000 C 
ATOM      7  C   UNL     1     102.546 123.961 147.267  0.00  0.00    +0.000 A 
ATOM      8  C   UNL     1     103.437 125.094 148.070  0.00  0.00    +0.000 A 
ATOM      9  C   UNL     1     103.366 123.978 147.181  0.00  0.00    +0.000 A 
ATOM     10  C   UNL     1     102.171 124.511 147.755  0.00  0.00    +0.000 A 
ATOM     11  C   UNL     1     102.616 125.077 148.156  0.00  0.00    +0.000 A 
ENDROOT
BRANCH   3  13
ATOM     12  O   UNL     1     108.415 125.198 147.548  0.00  0.00    +0.000 OA
ATOM     13  C   UNL     1     105.955 125.154 147.813  0.00  0.00    +0.000 A 
ATOM     14  C   UNL     1     106.437 124.802 148.382  0.00  0.00    +0.000 A 
ATOM     15  C   UNL     1     106.293 125.520 147.156  0.00  0.00    +0.000 A 
ATOM     16  C   UNL     1     107.258 124.817 148.294  0.00  0.00    +0.000 A 
ATOM     17  C   UNL     1     107.112 125.535 147.067  0.00  0.00    +0.000 A 
ATOM     18  C   UNL     1     107.595 125.183 147.637  0.00  0.00    +0.000 A 
BRANCH  14  19
ATOM     19  O   UNL     1     106.099 124.435 149.040  0.00  0.00    +0.000 OA
ATOM     20  C   UNL     1     106.582 124.090 149.612  0.00  0.00    +0.000 C 
ENDBRANCH  14  19
ENDBRANCH   3  13
BRANCH   7  21
ATOM     21  C   UNL     1     102.100 123.394 146.866  0.00  0.00    +0.000 C 
ATOM     22  C   UNL     1     102.123 122.906 147.531  0.00  0.00    +0.000 C 
ATOM     23  C   UNL     1     102.077 123.882 146.202  0.00  0.00    +0.000 C 
BRANCH  21  24
ATOM     24  C   UNL     1     101.654 122.827 146.466  0.00  0.00    +0.000 C 
ATOM     25  C   UNL     1     101.734 122.740 145.649  0.00  0.00    +0.000 C 
ENDBRANCH  21  24
ENDBRANCH   7  21
TORSDOF 4
ENDMDL
MODEL 6
REMARK VINA RESULT:      -8.0      2.997      4.281
REMARK  Name = 14237675
REMARK  4 active torsions:
REMARK  status: ('A' for Active; 'I' for Inactive)
REMARK    1  A    between atoms: O_3  and  C_18
REMARK    2  A    between atoms: C_5  and  C_12
REMARK    3  A    between atoms: C_9  and  C_10
REMARK    4  A    between atoms: C_9  and  C_19
REMARK                            x       y       z     vdW  Elec       q    Type
REMARK                         _______ _______ _______ _____ _____    ______ ____
ROOT
ATOM      1  O   UNL     1     114.420 125.917 138.664  0.00  0.00    +0.000 OA
ATOM      2  O   UNL     1     113.645 124.367 136.362  0.00  0.00    +0.000 OA
ATOM      3  C   UNL     1     113.388 126.656 139.435  0.00  0.00    +0.000 C 
ATOM      4  C   UNL     1     112.788 126.362 138.893  0.00  0.00    +0.000 C 
ATOM      5  C   UNL     1     113.018 125.849 138.244  0.00  0.00    +0.000 A 
ATOM      6  C   UNL     1     114.209 126.432 139.319  0.00  0.00    +0.000 C 
ATOM      7  C   UNL     1     112.647 125.076 137.100  0.00  0.00    +0.000 A 
ATOM      8  C   UNL     1     113.807 125.634 138.133  0.00  0.00    +0.000 A 
ATOM      9  C   UNL     1     112.439 125.570 137.727  0.00  0.00    +0.000 A 
ATOM     10  C   UNL     1     113.436 124.861 136.990  0.00  0.00    +0.000 A 
ATOM     11  C   UNL     1     114.016 125.140 137.506  0.00  0.00    +0.000 A 
ENDROOT
BRANCH   3  13
ATOM     12  O   UNL     1     112.541 128.628 141.940  0.00  0.00    +0.000 OA
ATOM     13  C   UNL     1     113.176 127.149 140.061  0.00  0.00    +0.000 A 
ATOM     14  C   UNL     1     113.211 127.969 139.970  0.00  0.00    +0.000 A 
ATOM     15  C   UNL     1     112.930 126.823 140.778  0.00  0.00    +0.000 A 
ATOM     16  C   UNL     1     112.999 128.462 140.597  0.00  0.00    +0.000 A 
ATOM     17  C   UNL     1     112.719 127.316 141.404  0.00  0.00    +0.000 A 
ATOM     18  C   UNL     1     112.753 128.136 141.314  0.00  0.00    +0.000 A 
BRANCH  14  19
ATOM     19  O   UNL     1     113.456 128.294 139.253  0.00  0.00    +0.000 OA
ATOM     20  C   UNL     1     113.454 129.113 139.151  0.00  0.00    +0.000 C 
ENDBRANCH  14  19
ENDBRANCH   3  13
BRANCH   7  21
ATOM     21  C   UNL     1     112.068 124.797 136.584  0.00  0.00    +0.000 C 
ATOM     22  C   UNL     1     111.987 124.116 137.043  0.00  0.00    +0.000 C 
ATOM     23  C   UNL     1     112.148 125.477 136.125  0.00  0.00    +0.000 C 
BRANCH  21  24
ATOM     24  C   UNL     1     111.488 124.517 136.068  0.00  0.00    +0.000 C 
ATOM     25  C   UNL     1     110.906 125.028 135.784  0.00  0.00    +0.000 C 
ENDBRANCH  21  24
ENDBRANCH   7  21
TORSDOF 4
ENDMDL
MODEL 7
REMARK VINA RESULT:      -8.0      1.581      2.621
REMARK  Name = 14237675
REMARK  4 active torsions:
REMARK  status: ('A' for Active; 'I' for Inactive)
REMARK    1  A    between atoms: O_3  and  C_18
REMARK    2  A    between atoms: C_5  and  C_12
REMARK    3  A    between atoms: C_9  and  C_10
REMARK    4  A    between atoms: C_9  and  C_19
REMARK                            x       y       z     vdW  Elec       q    Type
REMARK                         _______ _______ _______ _____ _____    ______ ____
ROOT
ATOM      1  O   UNL     1     113.344 126.450 136.550  0.00  0.00    +0.000 OA
ATOM      2  O   UNL     1     111.079 124.757 135.996  0.00  0.00    +0.000 OA
ATOM      3  C   UNL     1     113.277 127.897 136.225  0.00  0.00    +0.000 C 
ATOM      4  C   UNL     1     112.477 127.784 135.931  0.00  0.00    +0.000 C 
ATOM      5  C   UNL     1     112.125 127.000 135.951  0.00  0.00    +0.000 A 
ATOM      6  C   UNL     1     113.713 127.226 136.537  0.00  0.00    +0.000 C 
ATOM      7  C   UNL     1     111.009 126.150 135.682  0.00  0.00    +0.000 A 
ATOM      8  C   UNL     1     112.544 126.356 136.251  0.00  0.00    +0.000 A 
ATOM      9  C   UNL     1     111.358 126.897 135.667  0.00  0.00    +0.000 A 
ATOM     10  C   UNL     1     111.428 125.505 135.981  0.00  0.00    +0.000 A 
ATOM     11  C   UNL     1     112.195 125.607 136.266  0.00  0.00    +0.000 A 
ENDROOT
BRANCH   3  13
ATOM     12  O   UNL     1     114.662 130.891 136.160  0.00  0.00    +0.000 OA
ATOM     13  C   UNL     1     113.623 128.646 136.209  0.00  0.00    +0.000 A 
ATOM     14  C   UNL     1     113.553 129.147 136.861  0.00  0.00    +0.000 A 
ATOM     15  C   UNL     1     114.040 128.893 135.542  0.00  0.00    +0.000 A 
ATOM     16  C   UNL     1     113.900 129.896 136.844  0.00  0.00    +0.000 A 
ATOM     17  C   UNL     1     114.386 129.641 135.525  0.00  0.00    +0.000 A 
ATOM     18  C   UNL     1     114.316 130.143 136.177  0.00  0.00    +0.000 A 
BRANCH  14  19
ATOM     19  O   UNL     1     113.136 128.900 137.529  0.00  0.00    +0.000 OA
ATOM     20  C   UNL     1     113.069 129.400 138.181  0.00  0.00    +0.000 C 
ENDBRANCH  14  19
ENDBRANCH   3  13
BRANCH   7  21
ATOM     21  C   UNL     1     110.241 126.047 135.398  0.00  0.00    +0.000 C 
ATOM     22  C   UNL     1     110.539 125.936 134.636  0.00  0.00    +0.000 C 
ATOM     23  C   UNL     1     109.944 126.157 136.159  0.00  0.00    +0.000 C 
BRANCH  21  24
ATOM     24  C   UNL     1     109.474 125.943 135.112  0.00  0.00    +0.000 C 
ATOM     25  C   UNL     1     108.937 126.569 135.135  0.00  0.00    +0.000 C 
ENDBRANCH  21  24
ENDBRANCH   7  21
TORSDOF 4
ENDMDL
MODEL 8
REMARK VINA RESULT:      -7.8      1.864      2.630
REMARK  Name = 14237675
REMARK  4 active torsions:
REMARK  status: ('A' for Active; 'I' for Inactive)
REMARK    1  A    between atoms: O_3  and  C_18
REMARK    2  A    between atoms: C_5  and  C_12
REMARK    3  A    between atoms: C_9  and  C_10
REMARK    4  A    between atoms: C_9  and  C_19
REMARK                            x       y       z     vdW  Elec       q    Type
REMARK                         _______ _______ _______ _____ _____    ______ ____
ROOT
ATOM      1  O   UNL     1     113.887 127.716 136.340  0.00  0.00    +0.000 OA
ATOM      2  O   UNL     1     114.600 125.035 137.119  0.00  0.00    +0.000 OA
ATOM      3  C   UNL     1     112.482 128.026 135.972  0.00  0.00    +0.000 C 
ATOM      4  C   UNL     1     112.273 127.205 136.121  0.00  0.00    +0.000 C 
ATOM      5  C   UNL     1     112.879 126.653 136.378  0.00  0.00    +0.000 A 
ATOM      6  C   UNL     1     113.295 128.283 136.082  0.00  0.00    +0.000 C 
ATOM      7  C   UNL     1     113.246 125.328 136.766  0.00  0.00    +0.000 A 
ATOM      8  C   UNL     1     113.659 126.900 136.483  0.00  0.00    +0.000 A 
ATOM      9  C   UNL     1     112.673 125.867 136.520  0.00  0.00    +0.000 A 
ATOM     10  C   UNL     1     114.026 125.575 136.872  0.00  0.00    +0.000 A 
ATOM     11  C   UNL     1     114.233 126.361 136.731  0.00  0.00    +0.000 A 
ENDROOT
BRANCH   3  13
ATOM     12  O   UNL     1     110.181 130.174 134.983  0.00  0.00    +0.000 OA
ATOM     13  C   UNL     1     111.907 128.563 135.725  0.00  0.00    +0.000 A 
ATOM     14  C   UNL     1     111.533 129.049 136.276  0.00  0.00    +0.000 A 
ATOM     15  C   UNL     1     111.706 128.614 134.927  0.00  0.00    +0.000 A 
ATOM     16  C   UNL     1     110.957 129.587 136.029  0.00  0.00    +0.000 A 
ATOM     17  C   UNL     1     111.131 129.150 134.679  0.00  0.00    +0.000 A 
ATOM     18  C   UNL     1     110.756 129.637 135.231  0.00  0.00    +0.000 A 
BRANCH  14  19
ATOM     19  O   UNL     1     111.734 128.999 137.075  0.00  0.00    +0.000 OA
ATOM     20  C   UNL     1     111.351 129.476 137.627  0.00  0.00    +0.000 C 
ENDBRANCH  14  19
ENDBRANCH   3  13
BRANCH   7  21
ATOM     21  C   UNL     1     113.040 124.542 136.908  0.00  0.00    +0.000 C 
ATOM     22  C   UNL     1     112.777 124.747 137.663  0.00  0.00    +0.000 C 
ATOM     23  C   UNL     1     113.302 124.336 136.154  0.00  0.00    +0.000 C 
BRANCH  21  24
ATOM     24  C   UNL     1     112.833 123.756 137.051  0.00  0.00    +0.000 C 
ATOM     25  C   UNL     1     112.047 123.516 136.981  0.00  0.00    +0.000 C 
ENDBRANCH  21  24
ENDBRANCH   7  21
TORSDOF 4
ENDMDL
MODEL 9
REMARK VINA RESULT:      -7.8      3.255      4.697
REMARK  Name = 14237675
REMARK  4 active torsions:
REMARK  status: ('A' for Active; 'I' for Inactive)
REMARK    1  A    between atoms: O_3  and  C_18
REMARK    2  A    between atoms: C_5  and  C_12
REMARK    3  A    between atoms: C_9  and  C_10
REMARK    4  A    between atoms: C_9  and  C_19
REMARK                            x       y       z     vdW  Elec       q    Type
REMARK                         _______ _______ _______ _____ _____    ______ ____
ROOT
ATOM      1  O   UNL     1     110.640 125.453 137.407  0.00  0.00    +0.000 OA
ATOM      2  O   UNL     1     108.700 127.224 136.224  0.00  0.00    +0.000 OA
ATOM      3  C   UNL     1     112.078 125.606 137.069  0.00  0.00    +0.000 C 
ATOM      4  C   UNL     1     111.876 126.264 136.553  0.00  0.00    +0.000 C 
ATOM      5  C   UNL     1     111.055 126.504 136.475  0.00  0.00    +0.000 A 
ATOM      6  C   UNL     1     111.456 125.198 137.499  0.00  0.00    +0.000 C 
ATOM      7  C   UNL     1     110.082 127.376 135.895  0.00  0.00    +0.000 A 
ATOM      8  C   UNL     1     110.458 126.112 136.888  0.00  0.00    +0.000 A 
ATOM      9  C   UNL     1     110.867 127.136 135.979  0.00  0.00    +0.000 A 
ATOM     10  C   UNL     1     109.485 126.984 136.308  0.00  0.00    +0.000 A 
ATOM     11  C   UNL     1     109.672 126.352 136.804  0.00  0.00    +0.000 A 
ENDROOT
BRANCH   3  13
ATOM     12  O   UNL     1     115.220 124.654 137.395  0.00  0.00    +0.000 OA
ATOM     13  C   UNL     1     112.863 125.368 137.151  0.00  0.00    +0.000 A 
ATOM     14  C   UNL     1     113.315 125.647 137.782  0.00  0.00    +0.000 A 
ATOM     15  C   UNL     1     113.197 124.851 136.601  0.00  0.00    +0.000 A 
ATOM     16  C   UNL     1     114.102 125.408 137.863  0.00  0.00    +0.000 A 
ATOM     17  C   UNL     1     113.982 124.613 136.682  0.00  0.00    +0.000 A 
ATOM     18  C   UNL     1     114.435 124.892 137.314  0.00  0.00    +0.000 A 
BRANCH  14  19
ATOM     19  O   UNL     1     112.982 126.164 138.332  0.00  0.00    +0.000 OA
ATOM     20  C   UNL     1     113.435 126.444 138.961  0.00  0.00    +0.000 C 
ENDBRANCH  14  19
ENDBRANCH   3  13
BRANCH   7  21
ATOM     21  C   UNL     1     109.894 128.008 135.399  0.00  0.00    +0.000 C 
ATOM     22  C   UNL     1     109.849 127.490 134.758  0.00  0.00    +0.000 C 
ATOM     23  C   UNL     1     109.939 128.525 136.039  0.00  0.00    +0.000 C 
BRANCH  21  24
ATOM     24  C   UNL     1     109.706 128.639 134.902  0.00  0.00    +0.000 C 
ATOM     25  C   UNL     1     110.259 129.234 134.763  0.00  0.00    +0.000 C 
ENDBRANCH  21  24
ENDBRANCH   7  21
TORSDOF 4
ENDMDL
MODEL 10
REMARK VINA RESULT:      -7.4     13.144     14.740
REMARK  Name = 14237675
REMARK  4 active torsions:
REMARK  status: ('A' for Active; 'I' for Inactive)
REMARK    1  A    between atoms: O_3  and  C_18
REMARK    2  A    between atoms: C_5  and  C_12
REMARK    3  A    between atoms: C_9  and  C_10
REMARK    4  A    between atoms: C_9  and  C_19
REMARK                            x       y       z     vdW  Elec       q    Type
REMARK                         _______ _______ _______ _____ _____    ______ ____
ROOT
ATOM      1  O   UNL     1     104.496 123.580 145.513  0.00  0.00    +0.000 OA
ATOM      2  O   UNL     1     101.809 122.739 146.126  0.00  0.00    +0.000 OA
ATOM      3  C   UNL     1     105.140 124.638 146.332  0.00  0.00    +0.000 C 
ATOM      4  C   UNL     1     104.425 124.691 146.807  0.00  0.00    +0.000 C 
ATOM      5  C   UNL     1     103.757 124.184 146.624  0.00  0.00    +0.000 A 
ATOM      6  C   UNL     1     105.176 124.079 145.681  0.00  0.00    +0.000 C 
ATOM      7  C   UNL     1     102.425 123.758 146.917  0.00  0.00    +0.000 A 
ATOM      8  C   UNL     1     103.791 123.647 145.999  0.00  0.00    +0.000 A 
ATOM      9  C   UNL     1     103.073 124.239 147.083  0.00  0.00    +0.000 A 
ATOM     10  C   UNL     1     102.459 123.221 146.292  0.00  0.00    +0.000 A 
ATOM     11  C   UNL     1     103.141 123.165 145.832  0.00  0.00    +0.000 A 
ENDROOT
BRANCH   3  13
ATOM     12  O   UNL     1     107.730 126.568 147.006  0.00  0.00    +0.000 OA
ATOM     13  C   UNL     1     105.788 125.121 146.500  0.00  0.00    +0.000 A 
ATOM     14  C   UNL     1     105.935 125.790 146.040  0.00  0.00    +0.000 A 
ATOM     15  C   UNL     1     106.288 124.935 147.129  0.00  0.00    +0.000 A 
ATOM     16  C   UNL     1     106.583 126.272 146.209  0.00  0.00    +0.000 A 
ATOM     17  C   UNL     1     106.935 125.417 147.298  0.00  0.00    +0.000 A 
ATOM     18  C   UNL     1     107.083 126.087 146.837  0.00  0.00    +0.000 A 
BRANCH  14  19
ATOM     19  O   UNL     1     105.434 125.975 145.411  0.00  0.00    +0.000 OA
ATOM     20  C   UNL     1     105.582 126.643 144.950  0.00  0.00    +0.000 C 
ENDBRANCH  14  19
ENDBRANCH   3  13
BRANCH   7  21
ATOM     21  C   UNL     1     101.741 123.813 147.376  0.00  0.00    +0.000 C 
ATOM     22  C   UNL     1     101.453 124.402 146.875  0.00  0.00    +0.000 C 
ATOM     23  C   UNL     1     102.029 123.225 147.877  0.00  0.00    +0.000 C 
BRANCH  21  24
ATOM     24  C   UNL     1     101.057 123.869 147.834  0.00  0.00    +0.000 C 
ATOM     25  C   UNL     1     101.087 124.220 148.580  0.00  0.00    +0.000 C 
ENDBRANCH  21  24
ENDBRANCH   7  21
TORSDOF 4
ENDMDL
