MODEL 1
REMARK VINA RESULT:     -10.9      0.000      0.000
REMARK  Name = 44257739
REMARK  6 active torsions:
REMARK  status: ('A' for Active; 'I' for Inactive)
REMARK    1  A    between atoms: O_10  and  C_29
REMARK    2  A    between atoms: O_10  and  C_37
REMARK    3  A    between atoms: C_16  and  C_21
REMARK    4  A    between atoms: C_20  and  C_29
REMARK    5  A    between atoms: C_22  and  C_24
REMARK    6  A    between atoms: C_34  and  C_36
REMARK                            x       y       z     vdW  Elec       q    Type
REMARK                         _______ _______ _______ _____ _____    ______ ____
ROOT
ATOM      1  O   UNL     1     110.591 127.395 136.151  0.00  0.00    +0.000 OA
ATOM      2  O   UNL     1     110.490 130.265 135.913  0.00  0.00    +0.000 OA
ATOM      3  O   UNL     1     108.061 128.761 135.819  0.00  0.00    +0.000 OA
ATOM      4  O   UNL     1     108.070 127.323 135.935  0.00  0.00    +0.000 OA
ATOM      5  C   UNL     1     110.526 128.841 136.030  0.00  0.00    +0.000 A 
ATOM      6  C   UNL     1     109.276 129.513 135.866  0.00  0.00    +0.000 A 
ATOM      7  C   UNL     1     110.098 129.539 135.936  0.00  0.00    +0.000 A 
ATOM      8  C   UNL     1     110.134 128.115 136.053  0.00  0.00    +0.000 A 
ATOM      9  C   UNL     1     108.883 128.788 135.890  0.00  0.00    +0.000 A 
ATOM     10  C   UNL     1     109.312 128.089 135.983  0.00  0.00    +0.000 A 
ATOM     11  C   UNL     1     108.892 127.340 136.006  0.00  0.00    +0.000 A 
ATOM     12  C   UNL     1     110.188 126.636 136.176  0.00  0.00    +0.000 A 
ATOM     13  C   UNL     1     109.333 126.609 136.103  0.00  0.00    +0.000 A 
ENDROOT
BRANCH   5  18
ATOM     14  O   UNL     1     111.699 128.851 136.847  0.00  0.00    +0.000 OA
ATOM     15  O   UNL     1     111.467 128.926 134.677  0.00  0.00    +0.000 OA
ATOM     16  O   UNL     1     113.110 128.980 134.817  0.00  0.00    +0.000 OA
ATOM     17  O   UNL     1     113.812 128.947 136.310  0.00  0.00    +0.000 OA
ATOM     18  C   UNL     1     111.347 128.868 136.100  0.00  0.00    +0.000 C 
ATOM     19  C   UNL     1     111.818 128.910 135.424  0.00  0.00    +0.000 C 
ATOM     20  C   UNL     1     112.640 128.937 135.494  0.00  0.00    +0.000 C 
ATOM     21  C   UNL     1     112.991 128.921 136.240  0.00  0.00    +0.000 C 
ATOM     22  C   UNL     1     112.521 128.878 136.917  0.00  0.00    +0.000 C 
BRANCH  22  23
ATOM     23  C   UNL     1     112.871 128.862 137.663  0.00  0.00    +0.000 C 
BRANCH  23  24
ATOM     24  O   UNL     1     112.434 128.618 138.319  0.00  0.00    +0.000 OA
BRANCH  24  26
ATOM     25  O   UNL     1     113.088 129.219 139.438  0.00  0.00    +0.000 OA
ATOM     26  C   UNL     1     112.800 128.548 139.056  0.00  0.00    +0.000 C 
ATOM     27  C   UNL     1     112.876 127.806 139.409  0.00  0.00    +0.000 C 
ENDBRANCH  24  26
ENDBRANCH  23  24
ENDBRANCH  22  23
ENDBRANCH   5  18
BRANCH   6  32
ATOM     28  O   UNL     1     108.717 130.517 135.018  0.00  0.00    +0.000 OA
ATOM     29  O   UNL     1     108.679 130.297 137.189  0.00  0.00    +0.000 OA
ATOM     30  O   UNL     1     107.821 131.694 137.002  0.00  0.00    +0.000 OA
ATOM     31  O   UNL     1     107.560 132.306 135.492  0.00  0.00    +0.000 OA
ATOM     32  C   UNL     1     108.847 130.212 135.773  0.00  0.00    +0.000 C 
ATOM     33  C   UNL     1     108.548 130.604 136.434  0.00  0.00    +0.000 C 
ATOM     34  C   UNL     1     108.119 131.302 136.340  0.00  0.00    +0.000 C 
ATOM     35  C   UNL     1     107.989 131.608 135.586  0.00  0.00    +0.000 C 
ATOM     36  C   UNL     1     108.288 131.215 134.925  0.00  0.00    +0.000 C 
ENDBRANCH   6  32
BRANCH  12  38
ATOM     37  O   UNL     1     111.913 123.849 136.551  0.00  0.00    +0.000 OA
ATOM     38  C   UNL     1     110.619 125.939 136.269  0.00  0.00    +0.000 A 
ATOM     39  C   UNL     1     110.859 125.510 135.608  0.00  0.00    +0.000 A 
ATOM     40  C   UNL     1     110.812 125.672 137.026  0.00  0.00    +0.000 A 
ATOM     41  C   UNL     1     111.290 124.813 135.701  0.00  0.00    +0.000 A 
ATOM     42  C   UNL     1     111.243 124.975 137.121  0.00  0.00    +0.000 A 
ATOM     43  C   UNL     1     111.482 124.545 136.457  0.00  0.00    +0.000 A 
ENDBRANCH  12  38
TORSDOF 6
ENDMDL
MODEL 2
REMARK VINA RESULT:     -10.7      2.508      5.100
REMARK  Name = 44257739
REMARK  6 active torsions:
REMARK  status: ('A' for Active; 'I' for Inactive)
REMARK    1  A    between atoms: O_10  and  C_29
REMARK    2  A    between atoms: O_10  and  C_37
REMARK    3  A    between atoms: C_16  and  C_21
REMARK    4  A    between atoms: C_20  and  C_29
REMARK    5  A    between atoms: C_22  and  C_24
REMARK    6  A    between atoms: C_34  and  C_36
REMARK                            x       y       z     vdW  Elec       q    Type
REMARK                         _______ _______ _______ _____ _____    ______ ____
ROOT
ATOM      1  O   UNL     1     113.202 127.328 138.396  0.00  0.00    +0.000 OA
ATOM      2  O   UNL     1     112.799 130.084 139.134  0.00  0.00    +0.000 OA
ATOM      3  O   UNL     1     113.973 128.283 141.018  0.00  0.00    +0.000 OA
ATOM      4  O   UNL     1     114.191 126.895 140.686  0.00  0.00    +0.000 OA
ATOM      5  C   UNL     1     113.004 128.714 138.781  0.00  0.00    +0.000 A 
ATOM      6  C   UNL     1     113.386 129.183 140.075  0.00  0.00    +0.000 A 
ATOM      7  C   UNL     1     113.063 129.327 139.330  0.00  0.00    +0.000 A 
ATOM      8  C   UNL     1     113.268 127.957 138.977  0.00  0.00    +0.000 A 
ATOM      9  C   UNL     1     113.650 128.427 140.272  0.00  0.00    +0.000 A 
ATOM     10  C   UNL     1     113.591 127.813 139.722  0.00  0.00    +0.000 A 
ATOM     11  C   UNL     1     113.870 127.030 139.939  0.00  0.00    +0.000 A 
ATOM     12  C   UNL     1     113.475 126.537 138.595  0.00  0.00    +0.000 A 
ATOM     13  C   UNL     1     113.811 126.388 139.371  0.00  0.00    +0.000 A 
ENDROOT
BRANCH   5  18
ATOM     14  O   UNL     1     113.178 129.015 137.394  0.00  0.00    +0.000 OA
ATOM     15  O   UNL     1     111.368 128.688 138.572  0.00  0.00    +0.000 OA
ATOM     16  O   UNL     1     110.723 128.975 137.080  0.00  0.00    +0.000 OA
ATOM     17  O   UNL     1     111.714 129.289 135.799  0.00  0.00    +0.000 OA
ATOM     18  C   UNL     1     112.682 128.858 138.036  0.00  0.00    +0.000 C 
ATOM     19  C   UNL     1     111.864 128.845 137.930  0.00  0.00    +0.000 C 
ATOM     20  C   UNL     1     111.541 128.989 137.185  0.00  0.00    +0.000 C 
ATOM     21  C   UNL     1     112.036 129.146 136.545  0.00  0.00    +0.000 C 
ATOM     22  C   UNL     1     112.855 129.159 136.649  0.00  0.00    +0.000 C 
BRANCH  22  23
ATOM     23  C   UNL     1     113.350 129.316 136.009  0.00  0.00    +0.000 C 
BRANCH  23  24
ATOM     24  O   UNL     1     114.159 129.426 136.130  0.00  0.00    +0.000 OA
BRANCH  24  26
ATOM     25  O   UNL     1     114.814 128.936 134.959  0.00  0.00    +0.000 OA
ATOM     26  C   UNL     1     114.660 129.552 135.486  0.00  0.00    +0.000 C 
ATOM     27  C   UNL     1     115.006 130.291 135.371  0.00  0.00    +0.000 C 
ENDBRANCH  24  26
ENDBRANCH  23  24
ENDBRANCH  22  23
ENDBRANCH   5  18
BRANCH   6  32
ATOM     28  O   UNL     1     112.835 129.923 141.167  0.00  0.00    +0.000 OA
ATOM     29  O   UNL     1     114.721 130.153 140.091  0.00  0.00    +0.000 OA
ATOM     30  O   UNL     1     114.838 131.378 141.190  0.00  0.00    +0.000 OA
ATOM     31  O   UNL     1     113.620 131.633 142.273  0.00  0.00    +0.000 OA
ATOM     32  C   UNL     1     113.444 129.796 140.625  0.00  0.00    +0.000 C 
ATOM     33  C   UNL     1     114.112 130.281 140.633  0.00  0.00    +0.000 C 
ATOM     34  C   UNL     1     114.170 130.893 141.182  0.00  0.00    +0.000 C 
ATOM     35  C   UNL     1     113.562 131.021 141.724  0.00  0.00    +0.000 C 
ATOM     36  C   UNL     1     112.894 130.536 141.716  0.00  0.00    +0.000 C 
ENDBRANCH   6  32
BRANCH  12  38
ATOM     37  O   UNL     1     113.238 124.094 136.390  0.00  0.00    +0.000 OA
ATOM     38  C   UNL     1     113.416 125.926 138.043  0.00  0.00    +0.000 A 
ATOM     39  C   UNL     1     112.711 125.504 137.970  0.00  0.00    +0.000 A 
ATOM     40  C   UNL     1     114.061 125.738 137.565  0.00  0.00    +0.000 A 
ATOM     41  C   UNL     1     112.651 124.893 137.418  0.00  0.00    +0.000 A 
ATOM     42  C   UNL     1     114.002 125.127 137.014  0.00  0.00    +0.000 A 
ATOM     43  C   UNL     1     113.297 124.704 136.940  0.00  0.00    +0.000 A 
ENDBRANCH  12  38
TORSDOF 6
ENDMDL
MODEL 3
REMARK VINA RESULT:     -10.4      2.676      5.860
REMARK  Name = 44257739
REMARK  6 active torsions:
REMARK  status: ('A' for Active; 'I' for Inactive)
REMARK    1  A    between atoms: O_10  and  C_29
REMARK    2  A    between atoms: O_10  and  C_37
REMARK    3  A    between atoms: C_16  and  C_21
REMARK    4  A    between atoms: C_20  and  C_29
REMARK    5  A    between atoms: C_22  and  C_24
REMARK    6  A    between atoms: C_34  and  C_36
REMARK                            x       y       z     vdW  Elec       q    Type
REMARK                         _______ _______ _______ _____ _____    ______ ____
ROOT
ATOM      1  O   UNL     1     113.388 128.831 139.375  0.00  0.00    +0.000 OA
ATOM      2  O   UNL     1     112.104 127.395 137.232  0.00  0.00    +0.000 OA
ATOM      3  O   UNL     1     113.166 125.946 139.454  0.00  0.00    +0.000 OA
ATOM      4  O   UNL     1     113.817 126.628 140.547  0.00  0.00    +0.000 OA
ATOM      5  C   UNL     1     112.744 128.095 138.302  0.00  0.00    +0.000 A 
ATOM      6  C   UNL     1     112.635 126.671 138.343  0.00  0.00    +0.000 A 
ATOM      7  C   UNL     1     112.495 127.387 137.959  0.00  0.00    +0.000 A 
ATOM      8  C   UNL     1     113.134 128.087 139.029  0.00  0.00    +0.000 A 
ATOM      9  C   UNL     1     113.025 126.662 139.070  0.00  0.00    +0.000 A 
ATOM     10  C   UNL     1     113.275 127.371 139.413  0.00  0.00    +0.000 A 
ATOM     11  C   UNL     1     113.680 127.348 140.170  0.00  0.00    +0.000 A 
ATOM     12  C   UNL     1     113.795 128.829 140.132  0.00  0.00    +0.000 A 
ATOM     13  C   UNL     1     113.942 128.083 140.532  0.00  0.00    +0.000 A 
ENDROOT
BRANCH   5  18
ATOM     14  O   UNL     1     113.184 129.141 137.433  0.00  0.00    +0.000 OA
ATOM     15  O   UNL     1     111.299 128.867 138.501  0.00  0.00    +0.000 OA
ATOM     16  O   UNL     1     111.017 130.300 137.732  0.00  0.00    +0.000 OA
ATOM     17  O   UNL     1     112.180 130.960 136.764  0.00  0.00    +0.000 OA
ATOM     18  C   UNL     1     112.603 128.811 137.917  0.00  0.00    +0.000 C 
ATOM     19  C   UNL     1     111.881 129.198 138.016  0.00  0.00    +0.000 C 
ATOM     20  C   UNL     1     111.740 129.914 137.632  0.00  0.00    +0.000 C 
ATOM     21  C   UNL     1     112.321 130.244 137.149  0.00  0.00    +0.000 C 
ATOM     22  C   UNL     1     113.043 129.858 137.049  0.00  0.00    +0.000 C 
BRANCH  22  23
ATOM     23  C   UNL     1     113.624 130.187 136.566  0.00  0.00    +0.000 C 
BRANCH  23  24
ATOM     24  O   UNL     1     114.227 129.712 136.263  0.00  0.00    +0.000 OA
BRANCH  24  26
ATOM     25  O   UNL     1     115.325 130.607 136.074  0.00  0.00    +0.000 OA
ATOM     26  C   UNL     1     114.806 130.041 135.774  0.00  0.00    +0.000 C 
ATOM     27  C   UNL     1     114.864 129.803 134.986  0.00  0.00    +0.000 C 
ENDBRANCH  24  26
ENDBRANCH  23  24
ENDBRANCH  22  23
ENDBRANCH   5  18
BRANCH   6  32
ATOM     28  O   UNL     1     111.639 125.661 138.176  0.00  0.00    +0.000 OA
ATOM     29  O   UNL     1     113.632 125.859 137.308  0.00  0.00    +0.000 OA
ATOM     30  O   UNL     1     113.133 124.443 136.624  0.00  0.00    +0.000 OA
ATOM     31  O   UNL     1     111.638 123.839 136.974  0.00  0.00    +0.000 OA
ATOM     32  C   UNL     1     112.386 125.962 138.000  0.00  0.00    +0.000 C 
ATOM     33  C   UNL     1     112.884 125.557 137.483  0.00  0.00    +0.000 C 
ATOM     34  C   UNL     1     112.635 124.849 137.141  0.00  0.00    +0.000 C 
ATOM     35  C   UNL     1     111.888 124.547 137.316  0.00  0.00    +0.000 C 
ATOM     36  C   UNL     1     111.390 124.953 137.833  0.00  0.00    +0.000 C 
ENDBRANCH   6  32
BRANCH  12  38
ATOM     37  O   UNL     1     114.786 131.666 141.494  0.00  0.00    +0.000 OA
ATOM     38  C   UNL     1     114.043 129.538 140.473  0.00  0.00    +0.000 A 
ATOM     39  C   UNL     1     114.776 129.858 140.272  0.00  0.00    +0.000 A 
ATOM     40  C   UNL     1     113.558 129.927 141.014  0.00  0.00    +0.000 A 
ATOM     41  C   UNL     1     115.024 130.568 140.612  0.00  0.00    +0.000 A 
ATOM     42  C   UNL     1     113.805 130.637 141.355  0.00  0.00    +0.000 A 
ATOM     43  C   UNL     1     114.539 130.957 141.154  0.00  0.00    +0.000 A 
ENDBRANCH  12  38
TORSDOF 6
ENDMDL
MODEL 4
REMARK VINA RESULT:     -10.2      1.456      2.181
REMARK  Name = 44257739
REMARK  6 active torsions:
REMARK  status: ('A' for Active; 'I' for Inactive)
REMARK    1  A    between atoms: O_10  and  C_29
REMARK    2  A    between atoms: O_10  and  C_37
REMARK    3  A    between atoms: C_16  and  C_21
REMARK    4  A    between atoms: C_20  and  C_29
REMARK    5  A    between atoms: C_22  and  C_24
REMARK    6  A    between atoms: C_34  and  C_36
REMARK                            x       y       z     vdW  Elec       q    Type
REMARK                         _______ _______ _______ _____ _____    ______ ____
ROOT
ATOM      1  O   UNL     1     111.526 126.479 136.704  0.00  0.00    +0.000 OA
ATOM      2  O   UNL     1     110.685 129.213 137.044  0.00  0.00    +0.000 OA
ATOM      3  O   UNL     1     109.708 127.711 134.818  0.00  0.00    +0.000 OA
ATOM      4  O   UNL     1     110.106 126.338 134.613  0.00  0.00    +0.000 OA
ATOM      5  C   UNL     1     111.094 127.856 136.863  0.00  0.00    +0.000 A 
ATOM      6  C   UNL     1     110.197 128.462 135.931  0.00  0.00    +0.000 A 
ATOM      7  C   UNL     1     110.659 128.510 136.613  0.00  0.00    +0.000 A 
ATOM      8  C   UNL     1     111.068 127.153 136.433  0.00  0.00    +0.000 A 
ATOM      9  C   UNL     1     110.170 127.759 135.500  0.00  0.00    +0.000 A 
ATOM     10  C   UNL     1     110.606 127.104 135.751  0.00  0.00    +0.000 A 
ATOM     11  C   UNL     1     110.570 126.378 135.293  0.00  0.00    +0.000 A 
ATOM     12  C   UNL     1     111.503 125.743 136.259  0.00  0.00    +0.000 A 
ATOM     13  C   UNL     1     111.022 125.693 135.549  0.00  0.00    +0.000 A 
ENDROOT
BRANCH   5  18
ATOM     14  O   UNL     1     111.265 127.619 138.263  0.00  0.00    +0.000 OA
ATOM     15  O   UNL     1     112.601 128.524 136.793  0.00  0.00    +0.000 OA
ATOM     16  O   UNL     1     113.526 128.621 138.156  0.00  0.00    +0.000 OA
ATOM     17  O   UNL     1     112.942 128.050 139.590  0.00  0.00    +0.000 OA
ATOM     18  C   UNL     1     111.556 127.905 137.545  0.00  0.00    +0.000 C 
ATOM     19  C   UNL     1     112.310 128.238 137.511  0.00  0.00    +0.000 C 
ATOM     20  C   UNL     1     112.772 128.287 138.192  0.00  0.00    +0.000 C 
ATOM     21  C   UNL     1     112.480 128.002 138.909  0.00  0.00    +0.000 C 
ATOM     22  C   UNL     1     111.727 127.668 138.945  0.00  0.00    +0.000 C 
BRANCH  22  23
ATOM     23  C   UNL     1     111.435 127.383 139.661  0.00  0.00    +0.000 C 
BRANCH  23  24
ATOM     24  O   UNL     1     110.739 126.941 139.676  0.00  0.00    +0.000 OA
BRANCH  24  26
ATOM     25  O   UNL     1     110.825 125.868 140.616  0.00  0.00    +0.000 OA
ATOM     26  C   UNL     1     110.491 126.584 140.378  0.00  0.00    +0.000 C 
ATOM     27  C   UNL     1     109.911 126.943 140.842  0.00  0.00    +0.000 C 
ENDBRANCH  24  26
ENDBRANCH  23  24
ENDBRANCH  22  23
ENDBRANCH   5  18
BRANCH   6  32
ATOM     28  O   UNL     1     110.093 129.653 135.149  0.00  0.00    +0.000 OA
ATOM     29  O   UNL     1     108.663 128.696 136.492  0.00  0.00    +0.000 OA
ATOM     30  O   UNL     1     107.792 130.004 135.990  0.00  0.00    +0.000 OA
ATOM     31  O   UNL     1     108.455 131.079 134.928  0.00  0.00    +0.000 OA
ATOM     32  C   UNL     1     109.761 129.116 135.680  0.00  0.00    +0.000 C 
ATOM     33  C   UNL     1     108.994 129.233 135.961  0.00  0.00    +0.000 C 
ATOM     34  C   UNL     1     108.559 129.887 135.710  0.00  0.00    +0.000 C 
ATOM     35  C   UNL     1     108.890 130.424 135.179  0.00  0.00    +0.000 C 
ATOM     36  C   UNL     1     109.657 130.307 134.899  0.00  0.00    +0.000 C 
ENDBRANCH   6  32
BRANCH  12  38
ATOM     37  O   UNL     1     113.248 123.132 137.271  0.00  0.00    +0.000 OA
ATOM     38  C   UNL     1     111.939 125.091 136.512  0.00  0.00    +0.000 A 
ATOM     39  C   UNL     1     112.725 125.003 136.277  0.00  0.00    +0.000 A 
ATOM     40  C   UNL     1     111.590 124.525 137.000  0.00  0.00    +0.000 A 
ATOM     41  C   UNL     1     113.161 124.350 136.530  0.00  0.00    +0.000 A 
ATOM     42  C   UNL     1     112.025 123.872 137.254  0.00  0.00    +0.000 A 
ATOM     43  C   UNL     1     112.812 123.784 137.018  0.00  0.00    +0.000 A 
ENDBRANCH  12  38
TORSDOF 6
ENDMDL
MODEL 5
REMARK VINA RESULT:     -10.2      1.074      4.457
REMARK  Name = 44257739
REMARK  6 active torsions:
REMARK  status: ('A' for Active; 'I' for Inactive)
REMARK    1  A    between atoms: O_10  and  C_29
REMARK    2  A    between atoms: O_10  and  C_37
REMARK    3  A    between atoms: C_16  and  C_21
REMARK    4  A    between atoms: C_20  and  C_29
REMARK    5  A    between atoms: C_22  and  C_24
REMARK    6  A    between atoms: C_34  and  C_36
REMARK                            x       y       z     vdW  Elec       q    Type
REMARK                         _______ _______ _______ _____ _____    ______ ____
ROOT
ATOM      1  O   UNL     1     110.258 129.067 135.846  0.00  0.00    +0.000 OA
ATOM      2  O   UNL     1     112.256 127.073 136.420  0.00  0.00    +0.000 OA
ATOM      3  O   UNL     1     109.505 126.308 136.293  0.00  0.00    +0.000 OA
ATOM      4  O   UNL     1     108.474 127.277 136.008  0.00  0.00    +0.000 OA
ATOM      5  C   UNL     1     111.255 128.052 136.136  0.00  0.00    +0.000 A 
ATOM      6  C   UNL     1     110.881 126.691 136.356  0.00  0.00    +0.000 A 
ATOM      7  C   UNL     1     111.464 127.273 136.304  0.00  0.00    +0.000 A 
ATOM      8  C   UNL     1     110.462 128.252 136.020  0.00  0.00    +0.000 A 
ATOM      9  C   UNL     1     110.088 126.890 136.241  0.00  0.00    +0.000 A 
ATOM     10  C   UNL     1     109.879 127.670 136.072  0.00  0.00    +0.000 A 
ATOM     11  C   UNL     1     109.051 127.865 135.954  0.00  0.00    +0.000 A 
ATOM     12  C   UNL     1     109.434 129.281 135.724  0.00  0.00    +0.000 A 
ATOM     13  C   UNL     1     108.827 128.676 135.778  0.00  0.00    +0.000 A 
ENDROOT
BRANCH   5  18
ATOM     14  O   UNL     1     112.017 129.099 136.742  0.00  0.00    +0.000 OA
ATOM     15  O   UNL     1     112.064 128.284 134.717  0.00  0.00    +0.000 OA
ATOM     16  O   UNL     1     113.230 129.446 134.612  0.00  0.00    +0.000 OA
ATOM     17  O   UNL     1     113.587 130.377 135.927  0.00  0.00    +0.000 OA
ATOM     18  C   UNL     1     111.838 128.633 136.084  0.00  0.00    +0.000 C 
ATOM     19  C   UNL     1     112.243 128.750 135.375  0.00  0.00    +0.000 C 
ATOM     20  C   UNL     1     112.826 129.331 135.322  0.00  0.00    +0.000 C 
ATOM     21  C   UNL     1     113.004 129.796 135.979  0.00  0.00    +0.000 C 
ATOM     22  C   UNL     1     112.600 129.680 136.689  0.00  0.00    +0.000 C 
BRANCH  22  23
ATOM     23  C   UNL     1     112.778 130.145 137.346  0.00  0.00    +0.000 C 
BRANCH  23  24
ATOM     24  O   UNL     1     112.527 129.912 138.097  0.00  0.00    +0.000 OA
BRANCH  24  26
ATOM     25  O   UNL     1     112.247 131.102 138.837  0.00  0.00    +0.000 OA
ATOM     26  C   UNL     1     112.668 130.399 138.749  0.00  0.00    +0.000 C 
ATOM     27  C   UNL     1     113.230 130.181 139.312  0.00  0.00    +0.000 C 
ENDBRANCH  24  26
ENDBRANCH  23  24
ENDBRANCH  22  23
ENDBRANCH   5  18
BRANCH   6  32
ATOM     28  O   UNL     1     111.250 125.385 135.909  0.00  0.00    +0.000 OA
ATOM     29  O   UNL     1     110.978 126.182 137.923  0.00  0.00    +0.000 OA
ATOM     30  O   UNL     1     111.396 124.622 138.259  0.00  0.00    +0.000 OA
ATOM     31  O   UNL     1     111.716 123.570 137.028  0.00  0.00    +0.000 OA
ATOM     32  C   UNL     1     111.090 125.910 136.524  0.00  0.00    +0.000 C 
ATOM     33  C   UNL     1     111.138 125.656 137.308  0.00  0.00    +0.000 C 
ATOM     34  C   UNL     1     111.347 124.876 137.475  0.00  0.00    +0.000 C 
ATOM     35  C   UNL     1     111.507 124.351 136.861  0.00  0.00    +0.000 C 
ATOM     36  C   UNL     1     111.459 124.605 136.077  0.00  0.00    +0.000 C 
ENDBRANCH   6  32
BRANCH  12  38
ATOM     37  O   UNL     1     108.609 132.404 135.051  0.00  0.00    +0.000 OA
ATOM     38  C   UNL     1     109.228 130.062 135.556  0.00  0.00    +0.000 A 
ATOM     39  C   UNL     1     108.976 130.562 136.161  0.00  0.00    +0.000 A 
ATOM     40  C   UNL     1     109.273 130.343 134.782  0.00  0.00    +0.000 A 
ATOM     41  C   UNL     1     108.770 131.343 135.993  0.00  0.00    +0.000 A 
ATOM     42  C   UNL     1     109.067 131.124 134.612  0.00  0.00    +0.000 A 
ATOM     43  C   UNL     1     108.815 131.624 135.219  0.00  0.00    +0.000 A 
ENDBRANCH  12  38
TORSDOF 6
ENDMDL
MODEL 6
REMARK VINA RESULT:     -10.1      2.387      4.929
REMARK  Name = 44257739
REMARK  6 active torsions:
REMARK  status: ('A' for Active; 'I' for Inactive)
REMARK    1  A    between atoms: O_10  and  C_29
REMARK    2  A    between atoms: O_10  and  C_37
REMARK    3  A    between atoms: C_16  and  C_21
REMARK    4  A    between atoms: C_20  and  C_29
REMARK    5  A    between atoms: C_22  and  C_24
REMARK    6  A    between atoms: C_34  and  C_36
REMARK                            x       y       z     vdW  Elec       q    Type
REMARK                         _______ _______ _______ _____ _____    ______ ____
ROOT
ATOM      1  O   UNL     1     111.646 127.821 137.286  0.00  0.00    +0.000 OA
ATOM      2  O   UNL     1     109.652 126.225 138.618  0.00  0.00    +0.000 OA
ATOM      3  O   UNL     1     110.962 128.320 140.054  0.00  0.00    +0.000 OA
ATOM      4  O   UNL     1     111.966 129.142 139.422  0.00  0.00    +0.000 OA
ATOM      5  C   UNL     1     110.643 127.024 137.970  0.00  0.00    +0.000 A 
ATOM      6  C   UNL     1     110.307 127.273 139.335  0.00  0.00    +0.000 A 
ATOM      7  C   UNL     1     110.201 126.841 138.641  0.00  0.00    +0.000 A 
ATOM      8  C   UNL     1     111.192 127.640 137.992  0.00  0.00    +0.000 A 
ATOM      9  C   UNL     1     110.855 127.888 139.359  0.00  0.00    +0.000 A 
ATOM     10  C   UNL     1     111.298 128.072 138.687  0.00  0.00    +0.000 A 
ATOM     11  C   UNL     1     111.866 128.715 138.724  0.00  0.00    +0.000 A 
ATOM     12  C   UNL     1     112.220 128.462 137.304  0.00  0.00    +0.000 A 
ATOM     13  C   UNL     1     112.331 128.911 138.027  0.00  0.00    +0.000 A 
ENDROOT
BRANCH   5  18
ATOM     14  O   UNL     1     111.030 125.951 137.108  0.00  0.00    +0.000 OA
ATOM     15  O   UNL     1     109.445 127.441 136.914  0.00  0.00    +0.000 OA
ATOM     16  O   UNL     1     109.233 126.577 135.524  0.00  0.00    +0.000 OA
ATOM     17  O   UNL     1     110.218 125.296 135.191  0.00  0.00    +0.000 OA
ATOM     18  C   UNL     1     110.537 126.592 137.275  0.00  0.00    +0.000 C 
ATOM     19  C   UNL     1     109.938 126.800 136.747  0.00  0.00    +0.000 C 
ATOM     20  C   UNL     1     109.832 126.368 136.052  0.00  0.00    +0.000 C 
ATOM     21  C   UNL     1     110.324 125.728 135.885  0.00  0.00    +0.000 C 
ATOM     22  C   UNL     1     110.923 125.519 136.413  0.00  0.00    +0.000 C 
BRANCH  22  23
ATOM     23  C   UNL     1     111.416 124.879 136.246  0.00  0.00    +0.000 C 
BRANCH  23  24
ATOM     24  O   UNL     1     111.976 124.635 136.800  0.00  0.00    +0.000 OA
BRANCH  24  26
ATOM     25  O   UNL     1     112.159 123.233 136.595  0.00  0.00    +0.000 OA
ATOM     26  C   UNL     1     112.471 123.996 136.633  0.00  0.00    +0.000 C 
ATOM     27  C   UNL     1     113.276 124.120 136.504  0.00  0.00    +0.000 C 
ENDBRANCH  24  26
ENDBRANCH  23  24
ENDBRANCH  22  23
ENDBRANCH   5  18
BRANCH   6  32
ATOM     28  O   UNL     1     109.155 127.485 140.154  0.00  0.00    +0.000 OA
ATOM     29  O   UNL     1     110.840 126.116 140.384  0.00  0.00    +0.000 OA
ATOM     30  O   UNL     1     109.955 125.749 141.727  0.00  0.00    +0.000 OA
ATOM     31  O   UNL     1     108.537 126.540 142.022  0.00  0.00    +0.000 OA
ATOM     32  C   UNL     1     109.864 127.089 140.008  0.00  0.00    +0.000 C 
ATOM     33  C   UNL     1     110.131 126.511 140.532  0.00  0.00    +0.000 C 
ATOM     34  C   UNL     1     109.688 126.328 141.203  0.00  0.00    +0.000 C 
ATOM     35  C   UNL     1     108.980 126.722 141.350  0.00  0.00    +0.000 C 
ATOM     36  C   UNL     1     108.713 127.301 140.826  0.00  0.00    +0.000 C 
ENDBRANCH   6  32
BRANCH  12  38
ATOM     37  O   UNL     1     113.985 129.186 134.612  0.00  0.00    +0.000 OA
ATOM     38  C   UNL     1     112.661 128.643 136.631  0.00  0.00    +0.000 A 
ATOM     39  C   UNL     1     112.381 129.200 136.091  0.00  0.00    +0.000 A 
ATOM     40  C   UNL     1     113.383 128.267 136.497  0.00  0.00    +0.000 A 
ATOM     41  C   UNL     1     112.822 129.382 135.418  0.00  0.00    +0.000 A 
ATOM     42  C   UNL     1     113.825 128.447 135.825  0.00  0.00    +0.000 A 
ATOM     43  C   UNL     1     113.544 129.005 135.284  0.00  0.00    +0.000 A 
ENDBRANCH  12  38
TORSDOF 6
ENDMDL
MODEL 7
REMARK VINA RESULT:     -10.1      1.627      4.745
REMARK  Name = 44257739
REMARK  6 active torsions:
REMARK  status: ('A' for Active; 'I' for Inactive)
REMARK    1  A    between atoms: O_10  and  C_29
REMARK    2  A    between atoms: O_10  and  C_37
REMARK    3  A    between atoms: C_16  and  C_21
REMARK    4  A    between atoms: C_20  and  C_29
REMARK    5  A    between atoms: C_22  and  C_24
REMARK    6  A    between atoms: C_34  and  C_36
REMARK                            x       y       z     vdW  Elec       q    Type
REMARK                         _______ _______ _______ _____ _____    ______ ____
ROOT
ATOM      1  O   UNL     1     112.765 127.264 138.009  0.00  0.00    +0.000 OA
ATOM      2  O   UNL     1     113.208 130.054 138.575  0.00  0.00    +0.000 OA
ATOM      3  O   UNL     1     113.926 128.094 140.527  0.00  0.00    +0.000 OA
ATOM      4  O   UNL     1     113.720 126.687 140.282  0.00  0.00    +0.000 OA
ATOM      5  C   UNL     1     112.993 128.667 138.307  0.00  0.00    +0.000 A 
ATOM      6  C   UNL     1     113.567 129.074 139.551  0.00  0.00    +0.000 A 
ATOM      7  C   UNL     1     113.256 129.264 138.811  0.00  0.00    +0.000 A 
ATOM      8  C   UNL     1     113.042 127.877 138.543  0.00  0.00    +0.000 A 
ATOM      9  C   UNL     1     113.615 128.285 139.787  0.00  0.00    +0.000 A 
ATOM     10  C   UNL     1     113.352 127.686 139.283  0.00  0.00    +0.000 A 
ATOM     11  C   UNL     1     113.408 126.869 139.540  0.00  0.00    +0.000 A 
ATOM     12  C   UNL     1     112.812 126.440 138.249  0.00  0.00    +0.000 A 
ATOM     13  C   UNL     1     113.136 126.241 139.019  0.00  0.00    +0.000 A 
ENDROOT
BRANCH   5  18
ATOM     14  O   UNL     1     111.865 128.906 137.463  0.00  0.00    +0.000 OA
ATOM     15  O   UNL     1     114.006 128.952 137.036  0.00  0.00    +0.000 OA
ATOM     16  O   UNL     1     113.384 129.334 135.556  0.00  0.00    +0.000 OA
ATOM     17  O   UNL     1     111.750 129.430 135.347  0.00  0.00    +0.000 OA
ATOM     18  C   UNL     1     112.683 128.858 137.567  0.00  0.00    +0.000 C 
ATOM     19  C   UNL     1     113.188 129.000 136.931  0.00  0.00    +0.000 C 
ATOM     20  C   UNL     1     112.877 129.191 136.191  0.00  0.00    +0.000 C 
ATOM     21  C   UNL     1     112.061 129.239 136.087  0.00  0.00    +0.000 C 
ATOM     22  C   UNL     1     111.554 129.097 136.723  0.00  0.00    +0.000 C 
BRANCH  22  23
ATOM     23  C   UNL     1     110.738 129.145 136.618  0.00  0.00    +0.000 C 
BRANCH  23  24
ATOM     24  O   UNL     1     110.240 128.618 137.013  0.00  0.00    +0.000 OA
BRANCH  24  26
ATOM     25  O   UNL     1     108.977 129.279 137.108  0.00  0.00    +0.000 OA
ATOM     26  C   UNL     1     109.427 128.631 136.868  0.00  0.00    +0.000 C 
ATOM     27  C   UNL     1     109.067 127.996 136.484  0.00  0.00    +0.000 C 
ENDBRANCH  24  26
ENDBRANCH  23  24
ENDBRANCH  22  23
ENDBRANCH   5  18
BRANCH   6  32
ATOM     28  O   UNL     1     114.616 129.919 140.026  0.00  0.00    +0.000 OA
ATOM     29  O   UNL     1     112.519 129.774 140.616  0.00  0.00    +0.000 OA
ATOM     30  O   UNL     1     113.045 130.970 141.624  0.00  0.00    +0.000 OA
ATOM     31  O   UNL     1     114.617 131.466 141.567  0.00  0.00    +0.000 OA
ATOM     32  C   UNL     1     113.829 129.672 140.055  0.00  0.00    +0.000 C 
ATOM     33  C   UNL     1     113.306 130.022 140.588  0.00  0.00    +0.000 C 
ATOM     34  C   UNL     1     113.568 130.620 141.091  0.00  0.00    +0.000 C 
ATOM     35  C   UNL     1     114.354 130.867 141.063  0.00  0.00    +0.000 C 
ATOM     36  C   UNL     1     114.878 130.517 140.530  0.00  0.00    +0.000 C 
ENDBRANCH   6  32
BRANCH  12  38
ATOM     37  O   UNL     1     111.758 124.055 136.226  0.00  0.00    +0.000 OA
ATOM     38  C   UNL     1     112.549 125.844 137.743  0.00  0.00    +0.000 A 
ATOM     39  C   UNL     1     113.061 125.523 137.181  0.00  0.00    +0.000 A 
ATOM     40  C   UNL     1     111.774 125.568 137.799  0.00  0.00    +0.000 A 
ATOM     41  C   UNL     1     112.797 124.927 136.675  0.00  0.00    +0.000 A 
ATOM     42  C   UNL     1     111.509 124.972 137.294  0.00  0.00    +0.000 A 
ATOM     43  C   UNL     1     112.022 124.651 136.731  0.00  0.00    +0.000 A 
ENDBRANCH  12  38
TORSDOF 6
ENDMDL
MODEL 8
REMARK VINA RESULT:     -10.0      0.834      1.952
REMARK  Name = 44257739
REMARK  6 active torsions:
REMARK  status: ('A' for Active; 'I' for Inactive)
REMARK    1  A    between atoms: O_10  and  C_29
REMARK    2  A    between atoms: O_10  and  C_37
REMARK    3  A    between atoms: C_16  and  C_21
REMARK    4  A    between atoms: C_20  and  C_29
REMARK    5  A    between atoms: C_22  and  C_24
REMARK    6  A    between atoms: C_34  and  C_36
REMARK                            x       y       z     vdW  Elec       q    Type
REMARK                         _______ _______ _______ _____ _____    ______ ____
ROOT
ATOM      1  O   UNL     1     110.735 127.285 136.768  0.00  0.00    +0.000 OA
ATOM      2  O   UNL     1     110.448 130.149 136.898  0.00  0.00    +0.000 OA
ATOM      3  O   UNL     1     108.360 128.580 135.737  0.00  0.00    +0.000 OA
ATOM      4  O   UNL     1     108.466 127.143 135.653  0.00  0.00    +0.000 OA
ATOM      5  C   UNL     1     110.577 128.728 136.827  0.00  0.00    +0.000 A 
ATOM      6  C   UNL     1     109.405 129.364 136.318  0.00  0.00    +0.000 A 
ATOM      7  C   UNL     1     110.144 129.413 136.681  0.00  0.00    +0.000 A 
ATOM      8  C   UNL     1     110.273 127.992 136.610  0.00  0.00    +0.000 A 
ATOM      9  C   UNL     1     109.099 128.629 136.100  0.00  0.00    +0.000 A 
ATOM     10  C   UNL     1     109.534 127.942 136.247  0.00  0.00    +0.000 A 
ATOM     11  C   UNL     1     109.206 127.183 136.016  0.00  0.00    +0.000 A 
ATOM     12  C   UNL     1     110.423 126.516 136.544  0.00  0.00    +0.000 A 
ATOM     13  C   UNL     1     109.654 126.464 136.166  0.00  0.00    +0.000 A 
ENDROOT
BRANCH   5  18
ATOM     14  O   UNL     1     112.002 128.791 136.731  0.00  0.00    +0.000 OA
ATOM     15  O   UNL     1     110.685 128.798 138.472  0.00  0.00    +0.000 OA
ATOM     16  O   UNL     1     112.163 128.897 139.199  0.00  0.00    +0.000 OA
ATOM     17  O   UNL     1     113.533 128.925 138.281  0.00  0.00    +0.000 OA
ATOM     18  C   UNL     1     111.316 128.777 137.191  0.00  0.00    +0.000 C 
ATOM     19  C   UNL     1     111.371 128.812 138.013  0.00  0.00    +0.000 C 
ATOM     20  C   UNL     1     112.110 128.862 138.376  0.00  0.00    +0.000 C 
ATOM     21  C   UNL     1     112.794 128.875 137.918  0.00  0.00    +0.000 C 
ATOM     22  C   UNL     1     112.741 128.840 137.095  0.00  0.00    +0.000 C 
BRANCH  22  23
ATOM     23  C   UNL     1     113.426 128.854 136.636  0.00  0.00    +0.000 C 
BRANCH  23  24
ATOM     24  O   UNL     1     113.375 128.775 135.816  0.00  0.00    +0.000 OA
BRANCH  24  26
ATOM     25  O   UNL     1     114.611 128.217 135.366  0.00  0.00    +0.000 OA
ATOM     26  C   UNL     1     114.056 128.827 135.353  0.00  0.00    +0.000 C 
ATOM     27  C   UNL     1     114.182 129.489 134.877  0.00  0.00    +0.000 C 
ENDBRANCH  24  26
ENDBRANCH  23  24
ENDBRANCH  22  23
ENDBRANCH   5  18
BRANCH   6  32
ATOM     28  O   UNL     1     108.430 130.323 136.732  0.00  0.00    +0.000 OA
ATOM     29  O   UNL     1     109.616 130.189 134.905  0.00  0.00    +0.000 OA
ATOM     30  O   UNL     1     108.747 131.561 134.612  0.00  0.00    +0.000 OA
ATOM     31  O   UNL     1     107.667 132.108 135.733  0.00  0.00    +0.000 OA
ATOM     32  C   UNL     1     108.970 130.050 136.171  0.00  0.00    +0.000 C 
ATOM     33  C   UNL     1     109.076 130.463 135.465  0.00  0.00    +0.000 C 
ATOM     34  C   UNL     1     108.641 131.148 135.319  0.00  0.00    +0.000 C 
ATOM     35  C   UNL     1     108.102 131.422 135.878  0.00  0.00    +0.000 C 
ATOM     36  C   UNL     1     107.996 131.009 136.585  0.00  0.00    +0.000 C 
ENDBRANCH   6  32
BRANCH  12  38
ATOM     37  O   UNL     1     112.169 123.778 137.133  0.00  0.00    +0.000 OA
ATOM     38  C   UNL     1     110.859 125.831 136.692  0.00  0.00    +0.000 A 
ATOM     39  C   UNL     1     110.817 125.465 137.429  0.00  0.00    +0.000 A 
ATOM     40  C   UNL     1     111.339 125.513 136.101  0.00  0.00    +0.000 A 
ATOM     41  C   UNL     1     111.253 124.781 137.577  0.00  0.00    +0.000 A 
ATOM     42  C   UNL     1     111.776 124.829 136.247  0.00  0.00    +0.000 A 
ATOM     43  C   UNL     1     111.733 124.462 136.986  0.00  0.00    +0.000 A 
ENDBRANCH  12  38
TORSDOF 6
ENDMDL
MODEL 9
REMARK VINA RESULT:     -10.0      2.514      5.800
REMARK  Name = 44257739
REMARK  6 active torsions:
REMARK  status: ('A' for Active; 'I' for Inactive)
REMARK    1  A    between atoms: O_10  and  C_29
REMARK    2  A    between atoms: O_10  and  C_37
REMARK    3  A    between atoms: C_16  and  C_21
REMARK    4  A    between atoms: C_20  and  C_29
REMARK    5  A    between atoms: C_22  and  C_24
REMARK    6  A    between atoms: C_34  and  C_36
REMARK                            x       y       z     vdW  Elec       q    Type
REMARK                         _______ _______ _______ _____ _____    ______ ____
ROOT
ATOM      1  O   UNL     1     113.262 128.829 139.419  0.00  0.00    +0.000 OA
ATOM      2  O   UNL     1     112.110 127.411 137.191  0.00  0.00    +0.000 OA
ATOM      3  O   UNL     1     113.653 125.976 139.122  0.00  0.00    +0.000 OA
ATOM      4  O   UNL     1     114.247 126.649 140.252  0.00  0.00    +0.000 OA
ATOM      5  C   UNL     1     112.687 128.102 138.301  0.00  0.00    +0.000 A 
ATOM      6  C   UNL     1     112.882 126.694 138.157  0.00  0.00    +0.000 A 
ATOM      7  C   UNL     1     112.560 127.403 137.883  0.00  0.00    +0.000 A 
ATOM      8  C   UNL     1     113.137 128.094 138.993  0.00  0.00    +0.000 A 
ATOM      9  C   UNL     1     113.331 126.685 138.848  0.00  0.00    +0.000 A 
ATOM     10  C   UNL     1     113.459 127.385 139.267  0.00  0.00    +0.000 A 
ATOM     11  C   UNL     1     113.928 127.362 139.985  0.00  0.00    +0.000 A 
ATOM     12  C   UNL     1     113.730 128.826 140.141  0.00  0.00    +0.000 A 
ATOM     13  C   UNL     1     114.065 128.088 140.426  0.00  0.00    +0.000 A 
ENDROOT
BRANCH   5  18
ATOM     14  O   UNL     1     111.642 129.077 138.324  0.00  0.00    +0.000 OA
ATOM     15  O   UNL     1     113.488 128.986 137.161  0.00  0.00    +0.000 OA
ATOM     16  O   UNL     1     112.844 130.403 136.613  0.00  0.00    +0.000 OA
ATOM     17  O   UNL     1     111.400 130.936 137.207  0.00  0.00    +0.000 OA
ATOM     18  C   UNL     1     112.365 128.810 138.027  0.00  0.00    +0.000 C 
ATOM     19  C   UNL     1     112.765 129.253 137.457  0.00  0.00    +0.000 C 
ATOM     20  C   UNL     1     112.443 129.961 137.184  0.00  0.00    +0.000 C 
ATOM     21  C   UNL     1     111.721 130.228 137.480  0.00  0.00    +0.000 C 
ATOM     22  C   UNL     1     111.321 129.786 138.050  0.00  0.00    +0.000 C 
BRANCH  22  23
ATOM     23  C   UNL     1     110.599 130.052 138.347  0.00  0.00    +0.000 C 
BRANCH  23  24
ATOM     24  O   UNL     1     110.196 129.607 138.913  0.00  0.00    +0.000 OA
BRANCH  24  26
ATOM     25  O   UNL     1     108.791 129.837 138.792  0.00  0.00    +0.000 OA
ATOM     26  C   UNL     1     109.487 129.887 139.231  0.00  0.00    +0.000 C 
ATOM     27  C   UNL     1     109.476 130.217 139.987  0.00  0.00    +0.000 C 
ENDBRANCH  24  26
ENDBRANCH  23  24
ENDBRANCH  22  23
ENDBRANCH   5  18
BRANCH   6  32
ATOM     28  O   UNL     1     113.286 125.761 137.153  0.00  0.00    +0.000 OA
ATOM     29  O   UNL     1     111.562 125.762 138.492  0.00  0.00    +0.000 OA
ATOM     30  O   UNL     1     111.307 124.362 137.655  0.00  0.00    +0.000 OA
ATOM     31  O   UNL     1     112.372 123.895 136.484  0.00  0.00    +0.000 OA
ATOM     32  C   UNL     1     112.754 125.994 137.738  0.00  0.00    +0.000 C 
ATOM     33  C   UNL     1     112.094 125.528 137.906  0.00  0.00    +0.000 C 
ATOM     34  C   UNL     1     111.967 124.828 137.488  0.00  0.00    +0.000 C 
ATOM     35  C   UNL     1     112.499 124.595 136.903  0.00  0.00    +0.000 C 
ATOM     36  C   UNL     1     113.159 125.061 136.736  0.00  0.00    +0.000 C 
ENDBRANCH   6  32
BRANCH  12  38
ATOM     37  O   UNL     1     114.235 131.630 141.804  0.00  0.00    +0.000 OA
ATOM     38  C   UNL     1     113.856 129.527 140.557  0.00  0.00    +0.000 A 
ATOM     39  C   UNL     1     113.312 129.773 141.126  0.00  0.00    +0.000 A 
ATOM     40  C   UNL     1     114.527 129.983 140.404  0.00  0.00    +0.000 A 
ATOM     41  C   UNL     1     113.438 130.474 141.542  0.00  0.00    +0.000 A 
ATOM     42  C   UNL     1     114.654 130.684 140.819  0.00  0.00    +0.000 A 
ATOM     43  C   UNL     1     114.109 130.930 141.389  0.00  0.00    +0.000 A 
ENDBRANCH  12  38
TORSDOF 6
ENDMDL
MODEL 10
REMARK VINA RESULT:      -9.9      2.287      3.732
REMARK  Name = 44257739
REMARK  6 active torsions:
REMARK  status: ('A' for Active; 'I' for Inactive)
REMARK    1  A    between atoms: O_10  and  C_29
REMARK    2  A    between atoms: O_10  and  C_37
REMARK    3  A    between atoms: C_16  and  C_21
REMARK    4  A    between atoms: C_20  and  C_29
REMARK    5  A    between atoms: C_22  and  C_24
REMARK    6  A    between atoms: C_34  and  C_36
REMARK                            x       y       z     vdW  Elec       q    Type
REMARK                         _______ _______ _______ _____ _____    ______ ____
ROOT
ATOM      1  O   UNL     1     112.468 127.252 138.105  0.00  0.00    +0.000 OA
ATOM      2  O   UNL     1     110.944 129.692 137.948  0.00  0.00    +0.000 OA
ATOM      3  O   UNL     1     111.019 128.239 140.408  0.00  0.00    +0.000 OA
ATOM      4  O   UNL     1     111.771 127.012 140.527  0.00  0.00    +0.000 OA
ATOM      5  C   UNL     1     111.696 128.480 138.039  0.00  0.00    +0.000 A 
ATOM      6  C   UNL     1     110.982 128.965 139.177  0.00  0.00    +0.000 A 
ATOM      7  C   UNL     1     111.208 129.045 138.388  0.00  0.00    +0.000 A 
ATOM      8  C   UNL     1     111.960 127.834 138.479  0.00  0.00    +0.000 A 
ATOM      9  C   UNL     1     111.245 128.319 139.618  0.00  0.00    +0.000 A 
ATOM     10  C   UNL     1     111.734 127.753 139.269  0.00  0.00    +0.000 A 
ATOM     11  C   UNL     1     112.001 127.085 139.738  0.00  0.00    +0.000 A 
ATOM     12  C   UNL     1     112.746 126.576 138.558  0.00  0.00    +0.000 A 
ATOM     13  C   UNL     1     112.511 126.492 139.380  0.00  0.00    +0.000 A 
ENDROOT
BRANCH   5  18
ATOM     14  O   UNL     1     111.500 128.170 136.658  0.00  0.00    +0.000 OA
ATOM     15  O   UNL     1     112.992 129.422 137.644  0.00  0.00    +0.000 OA
ATOM     16  O   UNL     1     113.444 129.583 136.065  0.00  0.00    +0.000 OA
ATOM     17  O   UNL     1     112.600 128.802 134.882  0.00  0.00    +0.000 OA
ATOM     18  C   UNL     1     111.922 128.560 137.250  0.00  0.00    +0.000 C 
ATOM     19  C   UNL     1     112.570 129.031 137.052  0.00  0.00    +0.000 C 
ATOM     20  C   UNL     1     112.796 129.112 136.262  0.00  0.00    +0.000 C 
ATOM     21  C   UNL     1     112.374 128.721 135.671  0.00  0.00    +0.000 C 
ATOM     22  C   UNL     1     111.726 128.250 135.868  0.00  0.00    +0.000 C 
BRANCH  22  23
ATOM     23  C   UNL     1     111.304 127.860 135.277  0.00  0.00    +0.000 C 
BRANCH  23  24
ATOM     24  O   UNL     1     110.838 127.206 135.467  0.00  0.00    +0.000 OA
BRANCH  24  26
ATOM     25  O   UNL     1     109.695 127.305 134.614  0.00  0.00    +0.000 OA
ATOM     26  C   UNL     1     110.339 126.875 134.897  0.00  0.00    +0.000 C 
ATOM     27  C   UNL     1     110.486 126.115 134.612  0.00  0.00    +0.000 C 
ENDBRANCH  24  26
ENDBRANCH  23  24
ENDBRANCH  22  23
ENDBRANCH   5  18
BRANCH   6  32
ATOM     28  O   UNL     1     110.825 130.179 139.914  0.00  0.00    +0.000 OA
ATOM     29  O   UNL     1     109.342 128.799 139.100  0.00  0.00    +0.000 OA
ATOM     30  O   UNL     1     108.365 129.930 139.798  0.00  0.00    +0.000 OA
ATOM     31  O   UNL     1     109.027 131.227 140.574  0.00  0.00    +0.000 OA
ATOM     32  C   UNL     1     110.493 129.531 139.527  0.00  0.00    +0.000 C 
ATOM     33  C   UNL     1     109.673 129.448 139.488  0.00  0.00    +0.000 C 
ATOM     34  C   UNL     1     109.185 130.013 139.837  0.00  0.00    +0.000 C 
ATOM     35  C   UNL     1     109.515 130.661 140.224  0.00  0.00    +0.000 C 
ATOM     36  C   UNL     1     110.335 130.744 140.263  0.00  0.00    +0.000 C 
ENDBRANCH   6  32
BRANCH  12  38
ATOM     37  O   UNL     1     114.700 124.319 137.153  0.00  0.00    +0.000 OA
ATOM     38  C   UNL     1     113.235 126.012 138.207  0.00  0.00    +0.000 A 
ATOM     39  C   UNL     1     114.052 126.057 138.302  0.00  0.00    +0.000 A 
ATOM     40  C   UNL     1     112.905 125.402 137.760  0.00  0.00    +0.000 A 
ATOM     41  C   UNL     1     114.541 125.493 137.951  0.00  0.00    +0.000 A 
ATOM     42  C   UNL     1     113.393 124.837 137.408  0.00  0.00    +0.000 A 
ATOM     43  C   UNL     1     114.212 124.883 137.504  0.00  0.00    +0.000 A 
ENDBRANCH  12  38
TORSDOF 6
ENDMDL
