MODEL 1
REMARK VINA RESULT:      -8.0      0.000      0.000
REMARK  Name = 4053302
REMARK  2 active torsions:
REMARK  status: ('A' for Active; 'I' for Inactive)
REMARK    1  A    between atoms: O_2  and  C_11
REMARK    2  A    between atoms: C_5  and  C_9
REMARK                            x       y       z     vdW  Elec       q    Type
REMARK                         _______ _______ _______ _____ _____    ______ ____
ROOT
ATOM      1  O   UNL     1     105.497 124.373 147.350  0.00  0.00    +0.000 OA
ATOM      2  O   UNL     1     103.873 125.500 148.840  0.00  0.00    +0.000 OA
ATOM      3  O   UNL     1     103.342 123.607 145.547  0.00  0.00    +0.000 OA
ATOM      4  C   UNL     1     105.759 124.747 148.038  0.00  0.00    +0.000 C 
ATOM      5  C   UNL     1     105.217 125.122 148.535  0.00  0.00    +0.000 C 
ATOM      6  C   UNL     1     104.153 124.751 147.656  0.00  0.00    +0.000 A 
ATOM      7  C   UNL     1     104.414 125.124 148.343  0.00  0.00    +0.000 C 
ATOM      8  C   UNL     1     104.695 124.375 147.159  0.00  0.00    +0.000 A 
ATOM      9  C   UNL     1     103.315 124.759 147.467  0.00  0.00    +0.000 A 
ATOM     10  C   UNL     1     104.435 123.982 146.440  0.00  0.00    +0.000 A 
ATOM     11  C   UNL     1     103.037 124.372 146.753  0.00  0.00    +0.000 A 
ATOM     12  C   UNL     1     103.600 123.981 146.236  0.00  0.00    +0.000 A 
ENDROOT
BRANCH   4  13
ATOM     13  C   UNL     1     106.560 124.745 148.229  0.00  0.00    +0.000 A 
ATOM     14  C   UNL     1     106.822 124.361 148.912  0.00  0.00    +0.000 A 
ATOM     15  C   UNL     1     107.102 125.126 147.738  0.00  0.00    +0.000 A 
ATOM     16  C   UNL     1     107.624 124.359 149.103  0.00  0.00    +0.000 A 
ATOM     17  C   UNL     1     107.906 125.125 147.929  0.00  0.00    +0.000 A 
ATOM     18  C   UNL     1     108.166 124.741 148.611  0.00  0.00    +0.000 A 
ENDBRANCH   4  13
BRANCH   9  19
ATOM     19  O   UNL     1     102.781 125.138 147.970  0.00  0.00    +0.000 OA
ATOM     20  C   UNL     1     101.969 125.045 147.854  0.00  0.00    +0.000 C 
ENDBRANCH   9  19
TORSDOF 2
ENDMDL
MODEL 2
REMARK VINA RESULT:      -8.0     13.357     13.820
REMARK  Name = 4053302
REMARK  2 active torsions:
REMARK  status: ('A' for Active; 'I' for Inactive)
REMARK    1  A    between atoms: O_2  and  C_11
REMARK    2  A    between atoms: C_5  and  C_9
REMARK                            x       y       z     vdW  Elec       q    Type
REMARK                         _______ _______ _______ _____ _____    ______ ____
ROOT
ATOM      1  O   UNL     1     112.109 125.686 136.121  0.00  0.00    +0.000 OA
ATOM      2  O   UNL     1     112.053 128.150 135.887  0.00  0.00    +0.000 OA
ATOM      3  O   UNL     1     109.564 125.476 134.721  0.00  0.00    +0.000 OA
ATOM      4  C   UNL     1     112.725 126.143 136.426  0.00  0.00    +0.000 C 
ATOM      5  C   UNL     1     112.706 126.964 136.348  0.00  0.00    +0.000 C 
ATOM      6  C   UNL     1     111.457 126.871 135.660  0.00  0.00    +0.000 A 
ATOM      7  C   UNL     1     112.072 127.329 135.965  0.00  0.00    +0.000 C 
ATOM      8  C   UNL     1     111.476 126.050 135.738  0.00  0.00    +0.000 A 
ATOM      9  C   UNL     1     110.802 127.262 135.264  0.00  0.00    +0.000 A 
ATOM     10  C   UNL     1     110.841 125.563 135.425  0.00  0.00    +0.000 A 
ATOM     11  C   UNL     1     110.159 126.791 134.944  0.00  0.00    +0.000 A 
ATOM     12  C   UNL     1     110.178 125.936 135.025  0.00  0.00    +0.000 A 
ENDROOT
BRANCH   4  13
ATOM     13  C   UNL     1     113.358 125.780 136.808  0.00  0.00    +0.000 A 
ATOM     14  C   UNL     1     113.407 125.794 137.632  0.00  0.00    +0.000 A 
ATOM     15  C   UNL     1     113.944 125.402 136.367  0.00  0.00    +0.000 A 
ATOM     16  C   UNL     1     114.041 125.431 138.014  0.00  0.00    +0.000 A 
ATOM     17  C   UNL     1     114.579 125.038 136.750  0.00  0.00    +0.000 A 
ATOM     18  C   UNL     1     114.626 125.052 137.574  0.00  0.00    +0.000 A 
ENDBRANCH   4  13
BRANCH   9  19
ATOM     19  O   UNL     1     110.792 128.083 135.191  0.00  0.00    +0.000 OA
ATOM     20  C   UNL     1     110.178 128.454 134.782  0.00  0.00    +0.000 C 
ENDBRANCH   9  19
TORSDOF 2
ENDMDL
MODEL 3
REMARK VINA RESULT:      -7.9      2.274      3.015
REMARK  Name = 4053302
REMARK  2 active torsions:
REMARK  status: ('A' for Active; 'I' for Inactive)
REMARK    1  A    between atoms: O_2  and  C_11
REMARK    2  A    between atoms: C_5  and  C_9
REMARK                            x       y       z     vdW  Elec       q    Type
REMARK                         _______ _______ _______ _____ _____    ______ ____
ROOT
ATOM      1  O   UNL     1     106.484 124.854 146.836  0.00  0.00    +0.000 OA
ATOM      2  O   UNL     1     107.279 127.130 146.278  0.00  0.00    +0.000 OA
ATOM      3  O   UNL     1     105.265 124.611 144.203  0.00  0.00    +0.000 OA
ATOM      4  C   UNL     1     106.914 125.287 147.391  0.00  0.00    +0.000 C 
ATOM      5  C   UNL     1     107.179 126.046 147.205  0.00  0.00    +0.000 C 
ATOM      6  C   UNL     1     106.584 125.936 145.910  0.00  0.00    +0.000 A 
ATOM      7  C   UNL     1     107.014 126.371 146.464  0.00  0.00    +0.000 C 
ATOM      8  C   UNL     1     106.319 125.178 146.097  0.00  0.00    +0.000 A 
ATOM      9  C   UNL     1     106.418 126.285 145.142  0.00  0.00    +0.000 A 
ATOM     10  C   UNL     1     105.870 124.715 145.528  0.00  0.00    +0.000 A 
ATOM     11  C   UNL     1     105.971 125.838 144.561  0.00  0.00    +0.000 A 
ATOM     12  C   UNL     1     105.695 125.048 144.755  0.00  0.00    +0.000 A 
ENDROOT
BRANCH   4  13
ATOM     13  C   UNL     1     107.079 124.963 148.131  0.00  0.00    +0.000 A 
ATOM     14  C   UNL     1     106.466 124.817 148.664  0.00  0.00    +0.000 A 
ATOM     15  C   UNL     1     107.857 124.786 148.339  0.00  0.00    +0.000 A 
ATOM     16  C   UNL     1     106.631 124.493 149.404  0.00  0.00    +0.000 A 
ATOM     17  C   UNL     1     108.022 124.461 149.080  0.00  0.00    +0.000 A 
ATOM     18  C   UNL     1     107.409 124.315 149.612  0.00  0.00    +0.000 A 
ENDBRANCH   4  13
BRANCH   9  19
ATOM     19  O   UNL     1     106.688 127.044 144.965  0.00  0.00    +0.000 OA
ATOM     20  C   UNL     1     106.538 127.372 144.222  0.00  0.00    +0.000 C 
ENDBRANCH   9  19
TORSDOF 2
ENDMDL
MODEL 4
REMARK VINA RESULT:      -7.8     12.343     13.700
REMARK  Name = 4053302
REMARK  2 active torsions:
REMARK  status: ('A' for Active; 'I' for Inactive)
REMARK    1  A    between atoms: O_2  and  C_11
REMARK    2  A    between atoms: C_5  and  C_9
REMARK                            x       y       z     vdW  Elec       q    Type
REMARK                         _______ _______ _______ _____ _____    ______ ____
ROOT
ATOM      1  O   UNL     1     112.424 125.602 136.298  0.00  0.00    +0.000 OA
ATOM      2  O   UNL     1     112.163 127.052 138.287  0.00  0.00    +0.000 OA
ATOM      3  O   UNL     1     114.966 124.618 137.325  0.00  0.00    +0.000 OA
ATOM      4  C   UNL     1     111.757 126.082 136.373  0.00  0.00    +0.000 C 
ATOM      5  C   UNL     1     111.670 126.565 137.036  0.00  0.00    +0.000 C 
ATOM      6  C   UNL     1     112.916 126.088 137.548  0.00  0.00    +0.000 A 
ATOM      7  C   UNL     1     112.250 126.568 137.624  0.00  0.00    +0.000 C 
ATOM      8  C   UNL     1     113.003 125.605 136.885  0.00  0.00    +0.000 A 
ATOM      9  C   UNL     1     113.513 126.100 138.166  0.00  0.00    +0.000 A 
ATOM     10  C   UNL     1     113.693 125.100 136.795  0.00  0.00    +0.000 A 
ATOM     11  C   UNL     1     114.209 125.602 138.093  0.00  0.00    +0.000 A 
ATOM     12  C   UNL     1     114.300 125.099 137.403  0.00  0.00    +0.000 A 
ENDROOT
BRANCH   4  13
ATOM     13  C   UNL     1     111.178 126.079 135.786  0.00  0.00    +0.000 A 
ATOM     14  C   UNL     1     110.677 125.428 135.703  0.00  0.00    +0.000 A 
ATOM     15  C   UNL     1     111.099 126.727 135.282  0.00  0.00    +0.000 A 
ATOM     16  C   UNL     1     110.098 125.425 135.117  0.00  0.00    +0.000 A 
ATOM     17  C   UNL     1     110.519 126.724 134.694  0.00  0.00    +0.000 A 
ATOM     18  C   UNL     1     110.019 126.073 134.612  0.00  0.00    +0.000 A 
ENDBRANCH   4  13
BRANCH   9  19
ATOM     19  O   UNL     1     113.417 126.587 138.826  0.00  0.00    +0.000 OA
ATOM     20  C   UNL     1     113.891 126.476 139.492  0.00  0.00    +0.000 C 
ENDBRANCH   9  19
TORSDOF 2
ENDMDL
MODEL 5
REMARK VINA RESULT:      -7.8      8.381      9.562
REMARK  Name = 4053302
REMARK  2 active torsions:
REMARK  status: ('A' for Active; 'I' for Inactive)
REMARK    1  A    between atoms: O_2  and  C_11
REMARK    2  A    between atoms: C_5  and  C_9
REMARK                            x       y       z     vdW  Elec       q    Type
REMARK                         _______ _______ _______ _____ _____    ______ ____
ROOT
ATOM      1  O   UNL     1     102.081 130.931 140.985  0.00  0.00    +0.000 OA
ATOM      2  O   UNL     1     103.547 129.874 142.676  0.00  0.00    +0.000 OA
ATOM      3  O   UNL     1     102.575 128.724 139.150  0.00  0.00    +0.000 OA
ATOM      4  C   UNL     1     102.201 131.299 141.713  0.00  0.00    +0.000 C 
ATOM      5  C   UNL     1     102.690 130.947 142.277  0.00  0.00    +0.000 C 
ATOM      6  C   UNL     1     102.938 129.860 141.383  0.00  0.00    +0.000 A 
ATOM      7  C   UNL     1     103.058 130.226 142.112  0.00  0.00    +0.000 C 
ATOM      8  C   UNL     1     102.449 130.212 140.820  0.00  0.00    +0.000 A 
ATOM      9  C   UNL     1     103.327 129.110 141.223  0.00  0.00    +0.000 A 
ATOM     10  C   UNL     1     102.316 129.839 140.057  0.00  0.00    +0.000 A 
ATOM     11  C   UNL     1     103.206 128.723 140.466  0.00  0.00    +0.000 A 
ATOM     12  C   UNL     1     102.697 129.089 139.879  0.00  0.00    +0.000 A 
ENDROOT
BRANCH   4  13
ATOM     13  C   UNL     1     101.833 132.018 141.879  0.00  0.00    +0.000 A 
ATOM     14  C   UNL     1     102.216 132.728 141.705  0.00  0.00    +0.000 A 
ATOM     15  C   UNL     1     101.081 132.028 142.218  0.00  0.00    +0.000 A 
ATOM     16  C   UNL     1     101.848 133.447 141.870  0.00  0.00    +0.000 A 
ATOM     17  C   UNL     1     100.712 132.748 142.383  0.00  0.00    +0.000 A 
ATOM     18  C   UNL     1     101.096 133.457 142.209  0.00  0.00    +0.000 A 
ENDBRANCH   4  13
BRANCH   9  19
ATOM     19  O   UNL     1     103.814 128.765 141.793  0.00  0.00    +0.000 OA
ATOM     20  C   UNL     1     104.426 128.262 141.563  0.00  0.00    +0.000 C 
ENDBRANCH   9  19
TORSDOF 2
ENDMDL
MODEL 6
REMARK VINA RESULT:      -7.7     13.625     14.639
REMARK  Name = 4053302
REMARK  2 active torsions:
REMARK  status: ('A' for Active; 'I' for Inactive)
REMARK    1  A    between atoms: O_2  and  C_11
REMARK    2  A    between atoms: C_5  and  C_9
REMARK                            x       y       z     vdW  Elec       q    Type
REMARK                         _______ _______ _______ _____ _____    ______ ____
ROOT
ATOM      1  O   UNL     1     113.967 127.441 136.317  0.00  0.00    +0.000 OA
ATOM      2  O   UNL     1     111.509 127.422 136.029  0.00  0.00    +0.000 OA
ATOM      3  O   UNL     1     114.092 130.146 135.245  0.00  0.00    +0.000 OA
ATOM      4  C   UNL     1     113.532 126.774 136.532  0.00  0.00    +0.000 C 
ATOM      5  C   UNL     1     112.713 126.767 136.436  0.00  0.00    +0.000 C 
ATOM      6  C   UNL     1     112.764 128.095 135.909  0.00  0.00    +0.000 A 
ATOM      7  C   UNL     1     112.328 127.428 136.125  0.00  0.00    +0.000 C 
ATOM      8  C   UNL     1     113.583 128.101 136.005  0.00  0.00    +0.000 A 
ATOM      9  C   UNL     1     112.353 128.777 135.586  0.00  0.00    +0.000 A 
ATOM     10  C   UNL     1     114.048 128.790 135.784  0.00  0.00    +0.000 A 
ATOM     11  C   UNL     1     112.801 129.474 135.360  0.00  0.00    +0.000 A 
ATOM     12  C   UNL     1     113.654 129.481 135.460  0.00  0.00    +0.000 A 
ENDROOT
BRANCH   4  13
ATOM     13  C   UNL     1     113.916 126.114 136.844  0.00  0.00    +0.000 A 
ATOM     14  C   UNL     1     113.926 125.988 137.659  0.00  0.00    +0.000 A 
ATOM     15  C   UNL     1     114.289 125.578 136.340  0.00  0.00    +0.000 A 
ATOM     16  C   UNL     1     114.310 125.328 137.971  0.00  0.00    +0.000 A 
ATOM     17  C   UNL     1     114.674 124.917 136.651  0.00  0.00    +0.000 A 
ATOM     18  C   UNL     1     114.683 124.793 137.467  0.00  0.00    +0.000 A 
ENDBRANCH   4  13
BRANCH   9  19
ATOM     19  O   UNL     1     111.533 128.761 135.494  0.00  0.00    +0.000 OA
ATOM     20  C   UNL     1     111.143 129.409 135.163  0.00  0.00    +0.000 C 
ENDBRANCH   9  19
TORSDOF 2
ENDMDL
MODEL 7
REMARK VINA RESULT:      -7.7      7.490      9.482
REMARK  Name = 4053302
REMARK  2 active torsions:
REMARK  status: ('A' for Active; 'I' for Inactive)
REMARK    1  A    between atoms: O_2  and  C_11
REMARK    2  A    between atoms: C_5  and  C_9
REMARK                            x       y       z     vdW  Elec       q    Type
REMARK                         _______ _______ _______ _____ _____    ______ ____
ROOT
ATOM      1  O   UNL     1     104.718 123.391 138.801  0.00  0.00    +0.000 OA
ATOM      2  O   UNL     1     104.409 125.765 139.427  0.00  0.00    +0.000 OA
ATOM      3  O   UNL     1     106.598 123.036 140.997  0.00  0.00    +0.000 OA
ATOM      4  C   UNL     1     104.206 123.868 138.365  0.00  0.00    +0.000 C 
ATOM      5  C   UNL     1     104.103 124.660 138.574  0.00  0.00    +0.000 C 
ATOM      6  C   UNL     1     105.024 124.495 139.654  0.00  0.00    +0.000 A 
ATOM      7  C   UNL     1     104.512 124.974 139.219  0.00  0.00    +0.000 C 
ATOM      8  C   UNL     1     105.127 123.704 139.445  0.00  0.00    +0.000 A 
ATOM      9  C   UNL     1     105.444 124.833 140.323  0.00  0.00    +0.000 A 
ATOM     10  C   UNL     1     105.658 123.195 139.891  0.00  0.00    +0.000 A 
ATOM     11  C   UNL     1     105.979 124.340 140.781  0.00  0.00    +0.000 A 
ATOM     12  C   UNL     1     106.086 123.516 140.563  0.00  0.00    +0.000 A 
ENDROOT
BRANCH   4  13
ATOM     13  C   UNL     1     103.798 123.556 137.721  0.00  0.00    +0.000 A 
ATOM     14  C   UNL     1     104.209 123.318 137.046  0.00  0.00    +0.000 A 
ATOM     15  C   UNL     1     102.977 123.480 137.751  0.00  0.00    +0.000 A 
ATOM     16  C   UNL     1     103.800 123.005 136.402  0.00  0.00    +0.000 A 
ATOM     17  C   UNL     1     102.567 123.166 137.106  0.00  0.00    +0.000 A 
ATOM     18  C   UNL     1     102.979 122.929 136.432  0.00  0.00    +0.000 A 
ENDBRANCH   4  13
BRANCH   9  19
ATOM     19  O   UNL     1     105.335 125.626 140.524  0.00  0.00    +0.000 OA
ATOM     20  C   UNL     1     105.642 125.918 141.233  0.00  0.00    +0.000 C 
ENDBRANCH   9  19
TORSDOF 2
ENDMDL
MODEL 8
REMARK VINA RESULT:      -7.7     10.873     12.399
REMARK  Name = 4053302
REMARK  2 active torsions:
REMARK  status: ('A' for Active; 'I' for Inactive)
REMARK    1  A    between atoms: O_2  and  C_11
REMARK    2  A    between atoms: C_5  and  C_9
REMARK                            x       y       z     vdW  Elec       q    Type
REMARK                         _______ _______ _______ _____ _____    ______ ____
ROOT
ATOM      1  O   UNL     1     113.836 126.414 138.865  0.00  0.00    +0.000 OA
ATOM      2  O   UNL     1     111.465 125.732 139.063  0.00  0.00    +0.000 OA
ATOM      3  O   UNL     1     113.665 127.817 141.411  0.00  0.00    +0.000 OA
ATOM      4  C   UNL     1     113.488 125.958 138.272  0.00  0.00    +0.000 C 
ATOM      5  C   UNL     1     112.698 125.730 138.338  0.00  0.00    +0.000 C 
ATOM      6  C   UNL     1     112.605 126.416 139.589  0.00  0.00    +0.000 A 
ATOM      7  C   UNL     1     112.255 125.959 138.997  0.00  0.00    +0.000 C 
ATOM      8  C   UNL     1     113.395 126.643 139.523  0.00  0.00    +0.000 A 
ATOM      9  C   UNL     1     112.134 126.648 140.270  0.00  0.00    +0.000 A 
ATOM     10  C   UNL     1     113.769 127.119 140.133  0.00  0.00    +0.000 A 
ATOM     11  C   UNL     1     112.491 127.124 140.889  0.00  0.00    +0.000 A 
ATOM     12  C   UNL     1     113.314 127.361 140.821  0.00  0.00    +0.000 A 
ENDROOT
BRANCH   4  13
ATOM     13  C   UNL     1     113.929 125.729 137.615  0.00  0.00    +0.000 A 
ATOM     14  C   UNL     1     114.373 125.033 137.637  0.00  0.00    +0.000 A 
ATOM     15  C   UNL     1     113.927 126.195 136.934  0.00  0.00    +0.000 A 
ATOM     16  C   UNL     1     114.814 124.804 136.979  0.00  0.00    +0.000 A 
ATOM     17  C   UNL     1     114.369 125.966 136.275  0.00  0.00    +0.000 A 
ATOM     18  C   UNL     1     114.812 125.271 136.298  0.00  0.00    +0.000 A 
ENDBRANCH   4  13
BRANCH   9  19
ATOM     19  O   UNL     1     111.344 126.416 140.327  0.00  0.00    +0.000 OA
ATOM     20  C   UNL     1     110.898 126.631 140.987  0.00  0.00    +0.000 C 
ENDBRANCH   9  19
TORSDOF 2
ENDMDL
MODEL 9
REMARK VINA RESULT:      -7.6     13.338     14.336
REMARK  Name = 4053302
REMARK  2 active torsions:
REMARK  status: ('A' for Active; 'I' for Inactive)
REMARK    1  A    between atoms: O_2  and  C_11
REMARK    2  A    between atoms: C_5  and  C_9
REMARK                            x       y       z     vdW  Elec       q    Type
REMARK                         _______ _______ _______ _____ _____    ______ ____
ROOT
ATOM      1  O   UNL     1     113.942 126.883 136.740  0.00  0.00    +0.000 OA
ATOM      2  O   UNL     1     111.751 125.953 136.064  0.00  0.00    +0.000 OA
ATOM      3  O   UNL     1     114.855 124.227 137.510  0.00  0.00    +0.000 OA
ATOM      4  C   UNL     1     113.358 127.382 136.440  0.00  0.00    +0.000 C 
ATOM      5  C   UNL     1     112.627 127.072 136.215  0.00  0.00    +0.000 C 
ATOM      6  C   UNL     1     113.066 125.765 136.590  0.00  0.00    +0.000 A 
ATOM      7  C   UNL     1     112.481 126.263 136.290  0.00  0.00    +0.000 C 
ATOM      8  C   UNL     1     113.797 126.075 136.815  0.00  0.00    +0.000 A 
ATOM      9  C   UNL     1     112.903 124.924 136.663  0.00  0.00    +0.000 A 
ATOM     10  C   UNL     1     114.414 125.566 137.129  0.00  0.00    +0.000 A 
ATOM     11  C   UNL     1     113.508 124.400 136.975  0.00  0.00    +0.000 A 
ATOM     12  C   UNL     1     114.269 124.723 137.210  0.00  0.00    +0.000 A 
ENDROOT
BRANCH   4  13
ATOM     13  C   UNL     1     113.503 128.190 136.365  0.00  0.00    +0.000 A 
ATOM     14  C   UNL     1     113.270 128.709 136.963  0.00  0.00    +0.000 A 
ATOM     15  C   UNL     1     113.882 128.480 135.692  0.00  0.00    +0.000 A 
ATOM     16  C   UNL     1     113.415 129.517 136.888  0.00  0.00    +0.000 A 
ATOM     17  C   UNL     1     114.027 129.290 135.617  0.00  0.00    +0.000 A 
ATOM     18  C   UNL     1     113.794 129.807 136.215  0.00  0.00    +0.000 A 
ENDBRANCH   4  13
BRANCH   9  19
ATOM     19  O   UNL     1     112.169 124.623 136.435  0.00  0.00    +0.000 OA
ATOM     20  C   UNL     1     111.961 123.849 136.634  0.00  0.00    +0.000 C 
ENDBRANCH   9  19
TORSDOF 2
ENDMDL
MODEL 10
REMARK VINA RESULT:      -7.5     13.183     14.037
REMARK  Name = 4053302
REMARK  2 active torsions:
REMARK  status: ('A' for Active; 'I' for Inactive)
REMARK    1  A    between atoms: O_2  and  C_11
REMARK    2  A    between atoms: C_5  and  C_9
REMARK                            x       y       z     vdW  Elec       q    Type
REMARK                         _______ _______ _______ _____ _____    ______ ____
ROOT
ATOM      1  O   UNL     1     112.279 127.187 135.988  0.00  0.00    +0.000 OA
ATOM      2  O   UNL     1     113.469 125.370 137.174  0.00  0.00    +0.000 OA
ATOM      3  O   UNL     1     110.136 125.347 135.278  0.00  0.00    +0.000 OA
ATOM      4  C   UNL     1     113.001 127.340 136.358  0.00  0.00    +0.000 C 
ATOM      5  C   UNL     1     113.397 126.734 136.753  0.00  0.00    +0.000 C 
ATOM      6  C   UNL     1     112.350 125.824 136.409  0.00  0.00    +0.000 A 
ATOM      7  C   UNL     1     113.072 125.976 136.779  0.00  0.00    +0.000 C 
ATOM      8  C   UNL     1     111.954 126.430 136.014  0.00  0.00    +0.000 A 
ATOM      9  C   UNL     1     112.022 125.030 136.443  0.00  0.00    +0.000 A 
ATOM     10  C   UNL     1     111.201 126.284 135.625  0.00  0.00    +0.000 A 
ATOM     11  C   UNL     1     111.271 124.866 136.060  0.00  0.00    +0.000 A 
ATOM     12  C   UNL     1     110.858 125.497 135.648  0.00  0.00    +0.000 A 
ENDROOT
BRANCH   4  13
ATOM     13  C   UNL     1     113.325 128.097 136.332  0.00  0.00    +0.000 A 
ATOM     14  C   UNL     1     113.828 128.310 135.713  0.00  0.00    +0.000 A 
ATOM     15  C   UNL     1     113.148 128.642 136.925  0.00  0.00    +0.000 A 
ATOM     16  C   UNL     1     114.153 129.068 135.687  0.00  0.00    +0.000 A 
ATOM     17  C   UNL     1     113.474 129.401 136.900  0.00  0.00    +0.000 A 
ATOM     18  C   UNL     1     113.976 129.613 136.281  0.00  0.00    +0.000 A 
ENDBRANCH   4  13
BRANCH   9  19
ATOM     19  O   UNL     1     112.426 124.431 136.841  0.00  0.00    +0.000 OA
ATOM     20  C   UNL     1     112.095 123.677 136.895  0.00  0.00    +0.000 C 
ENDBRANCH   9  19
TORSDOF 2
ENDMDL
