MODEL 1
REMARK VINA RESULT:      -9.0      0.000      0.000
REMARK  Name = 6442433
REMARK  9 active torsions:
REMARK  status: ('A' for Active; 'I' for Inactive)
REMARK    1  A    between atoms: O_1  and  C_14
REMARK    2  A    between atoms: O_1  and  C_17
REMARK    3  A    between atoms: O_7  and  C_20
REMARK    4  A    between atoms: O_7  and  C_25
REMARK    5  A    between atoms: C_15  and  C_23
REMARK    6  A    between atoms: C_21  and  C_24
REMARK    7  A    between atoms: C_30  and  C_31
REMARK    8  A    between atoms: C_32  and  C_33
REMARK    9  A    between atoms: C_33  and  C_34
REMARK                            x       y       z     vdW  Elec       q    Type
REMARK                         _______ _______ _______ _____ _____    ______ ____
ROOT
ATOM      1  O   UNL     1     111.384 130.050 136.268  0.00  0.00    +0.000 OA
ATOM      2  O   UNL     1     110.196 131.906 137.393  0.00  0.00    +0.000 OA
ATOM      3  O   UNL     1     111.837 131.788 137.506  0.00  0.00    +0.000 OA
ATOM      4  C   UNL     1     110.167 130.727 136.586  0.00  0.00    +0.000 C 
ATOM      5  C   UNL     1     110.592 131.287 137.018  0.00  0.00    +0.000 C 
ATOM      6  C   UNL     1     111.412 131.229 137.075  0.00  0.00    +0.000 C 
ATOM      7  C   UNL     1     110.563 130.108 136.211  0.00  0.00    +0.000 C 
ATOM      8  C   UNL     1     111.809 130.610 136.700  0.00  0.00    +0.000 C 
ENDROOT
BRANCH   8  10
ATOM      9  O   UNL     1     112.969 129.953 137.213  0.00  0.00    +0.000 OA
ATOM     10  C   UNL     1     112.629 130.551 136.756  0.00  0.00    +0.000 C 
ENDBRANCH   8  10
BRANCH   4  11
ATOM     11  O   UNL     1     109.346 130.786 136.530  0.00  0.00    +0.000 OA
BRANCH  11  17
ATOM     12  O   UNL     1     109.412 131.698 135.378  0.00  0.00    +0.000 OA
ATOM     13  O   UNL     1     107.765 132.383 134.622  0.00  0.00    +0.000 OA
ATOM     14  O   UNL     1     107.589 131.065 136.291  0.00  0.00    +0.000 OA
ATOM     15  C   UNL     1     108.105 131.906 135.201  0.00  0.00    +0.000 C 
ATOM     16  C   UNL     1     108.198 131.392 135.840  0.00  0.00    +0.000 C 
ATOM     17  C   UNL     1     109.005 131.264 135.950  0.00  0.00    +0.000 C 
ATOM     18  C   UNL     1     108.856 132.094 134.916  0.00  0.00    +0.000 C 
BRANCH  15  20
ATOM     19  O   UNL     1     106.795 132.239 134.741  0.00  0.00    +0.000 OA
ATOM     20  C   UNL     1     107.286 131.874 135.293  0.00  0.00    +0.000 C 
ENDBRANCH  15  20
ENDBRANCH  11  17
ENDBRANCH   4  11
BRANCH   7  21
ATOM     21  O   UNL     1     110.139 129.548 135.779  0.00  0.00    +0.000 OA
BRANCH  21  22
ATOM     22  C   UNL     1     110.375 128.758 135.783  0.00  0.00    +0.000 A 
ATOM     23  C   UNL     1     110.794 128.450 135.142  0.00  0.00    +0.000 A 
ATOM     24  C   UNL     1     110.194 128.276 136.427  0.00  0.00    +0.000 A 
ATOM     25  C   UNL     1     111.031 127.660 135.146  0.00  0.00    +0.000 A 
ATOM     26  C   UNL     1     110.430 127.486 136.431  0.00  0.00    +0.000 A 
ATOM     27  C   UNL     1     110.849 127.177 135.791  0.00  0.00    +0.000 A 
BRANCH  27  28
ATOM     28  C   UNL     1     111.086 126.387 135.795  0.00  0.00    +0.000 C 
ATOM     29  C   UNL     1     111.790 126.169 136.167  0.00  0.00    +0.000 C 
BRANCH  29  31
ATOM     30  O   UNL     1     111.537 124.800 135.845  0.00  0.00    +0.000 OA
ATOM     31  C   UNL     1     112.026 125.379 136.171  0.00  0.00    +0.000 C 
BRANCH  31  34
ATOM     32  O   UNL     1     112.081 124.335 137.447  0.00  0.00    +0.000 OA
ATOM     33  O   UNL     1     114.931 124.533 137.488  0.00  0.00    +0.000 OA
ATOM     34  C   UNL     1     112.752 125.167 136.501  0.00  0.00    +0.000 A 
ATOM     35  C   UNL     1     112.779 124.645 137.139  0.00  0.00    +0.000 A 
ATOM     36  C   UNL     1     113.452 125.478 136.192  0.00  0.00    +0.000 A 
ATOM     37  C   UNL     1     113.506 124.434 137.468  0.00  0.00    +0.000 A 
ATOM     38  C   UNL     1     114.178 125.266 136.522  0.00  0.00    +0.000 A 
ATOM     39  C   UNL     1     114.205 124.744 137.160  0.00  0.00    +0.000 A 
ENDBRANCH  31  34
ENDBRANCH  29  31
ENDBRANCH  27  28
ENDBRANCH  21  22
ENDBRANCH   7  21
TORSDOF 9
ENDMDL
MODEL 2
REMARK VINA RESULT:      -8.9      8.214     11.049
REMARK  Name = 6442433
REMARK  9 active torsions:
REMARK  status: ('A' for Active; 'I' for Inactive)
REMARK    1  A    between atoms: O_1  and  C_14
REMARK    2  A    between atoms: O_1  and  C_17
REMARK    3  A    between atoms: O_7  and  C_20
REMARK    4  A    between atoms: O_7  and  C_25
REMARK    5  A    between atoms: C_15  and  C_23
REMARK    6  A    between atoms: C_21  and  C_24
REMARK    7  A    between atoms: C_30  and  C_31
REMARK    8  A    between atoms: C_32  and  C_33
REMARK    9  A    between atoms: C_33  and  C_34
REMARK                            x       y       z     vdW  Elec       q    Type
REMARK                         _______ _______ _______ _____ _____    ______ ____
ROOT
ATOM      1  O   UNL     1     106.530 128.477 142.700  0.00  0.00    +0.000 OA
ATOM      2  O   UNL     1     107.785 126.346 142.804  0.00  0.00    +0.000 OA
ATOM      3  O   UNL     1     108.562 127.741 142.394  0.00  0.00    +0.000 OA
ATOM      4  C   UNL     1     106.560 127.068 142.940  0.00  0.00    +0.000 C 
ATOM      5  C   UNL     1     107.367 127.056 142.770  0.00  0.00    +0.000 C 
ATOM      6  C   UNL     1     107.756 127.753 142.565  0.00  0.00    +0.000 C 
ATOM      7  C   UNL     1     106.141 127.778 142.906  0.00  0.00    +0.000 C 
ATOM      8  C   UNL     1     107.337 128.464 142.530  0.00  0.00    +0.000 C 
ENDROOT
BRANCH   8  10
ATOM      9  O   UNL     1     107.684 129.819 142.824  0.00  0.00    +0.000 OA
ATOM     10  C   UNL     1     107.726 129.162 142.325  0.00  0.00    +0.000 C 
ENDBRANCH   8  10
BRANCH   4  11
ATOM     11  O   UNL     1     106.171 126.370 143.146  0.00  0.00    +0.000 OA
BRANCH  11  17
ATOM     12  O   UNL     1     106.552 126.482 144.561  0.00  0.00    +0.000 OA
ATOM     13  O   UNL     1     105.994 125.101 145.801  0.00  0.00    +0.000 OA
ATOM     14  O   UNL     1     105.403 124.870 143.763  0.00  0.00    +0.000 OA
ATOM     15  C   UNL     1     105.981 125.366 145.021  0.00  0.00    +0.000 C 
ATOM     16  C   UNL     1     105.831 125.415 144.210  0.00  0.00    +0.000 C 
ATOM     17  C   UNL     1     106.184 126.104 143.927  0.00  0.00    +0.000 C 
ATOM     18  C   UNL     1     106.427 126.026 145.237  0.00  0.00    +0.000 C 
BRANCH  15  20
ATOM     19  O   UNL     1     105.502 124.248 145.770  0.00  0.00    +0.000 OA
ATOM     20  C   UNL     1     105.561 124.657 145.056  0.00  0.00    +0.000 C 
ENDBRANCH  15  20
ENDBRANCH  11  17
ENDBRANCH   4  11
BRANCH   7  21
ATOM     21  O   UNL     1     105.334 127.791 143.076  0.00  0.00    +0.000 OA
BRANCH  21  22
ATOM     22  C   UNL     1     104.823 128.249 142.619  0.00  0.00    +0.000 A 
ATOM     23  C   UNL     1     104.487 128.932 142.937  0.00  0.00    +0.000 A 
ATOM     24  C   UNL     1     104.648 128.024 141.845  0.00  0.00    +0.000 A 
ATOM     25  C   UNL     1     103.975 129.391 142.480  0.00  0.00    +0.000 A 
ATOM     26  C   UNL     1     104.137 128.483 141.388  0.00  0.00    +0.000 A 
ATOM     27  C   UNL     1     103.800 129.166 141.705  0.00  0.00    +0.000 A 
BRANCH  27  28
ATOM     28  C   UNL     1     103.289 129.624 141.248  0.00  0.00    +0.000 C 
ATOM     29  C   UNL     1     103.049 130.367 141.517  0.00  0.00    +0.000 C 
BRANCH  29  31
ATOM     30  O   UNL     1     102.445 130.663 140.255  0.00  0.00    +0.000 OA
ATOM     31  C   UNL     1     102.538 130.825 141.059  0.00  0.00    +0.000 C 
BRANCH  31  34
ATOM     32  O   UNL     1     103.073 132.377 140.895  0.00  0.00    +0.000 OA
ATOM     33  O   UNL     1     100.857 133.305 142.444  0.00  0.00    +0.000 OA
ATOM     34  C   UNL     1     102.118 131.445 141.405  0.00  0.00    +0.000 A 
ATOM     35  C   UNL     1     102.386 132.221 141.323  0.00  0.00    +0.000 A 
ATOM     36  C   UNL     1     101.430 131.289 141.834  0.00  0.00    +0.000 A 
ATOM     37  C   UNL     1     101.965 132.841 141.670  0.00  0.00    +0.000 A 
ATOM     38  C   UNL     1     101.010 131.909 142.180  0.00  0.00    +0.000 A 
ATOM     39  C   UNL     1     101.278 132.685 142.098  0.00  0.00    +0.000 A 
ENDBRANCH  31  34
ENDBRANCH  29  31
ENDBRANCH  27  28
ENDBRANCH  21  22
ENDBRANCH   7  21
TORSDOF 9
ENDMDL
MODEL 3
REMARK VINA RESULT:      -8.9      1.509      2.753
REMARK  Name = 6442433
REMARK  9 active torsions:
REMARK  status: ('A' for Active; 'I' for Inactive)
REMARK    1  A    between atoms: O_1  and  C_14
REMARK    2  A    between atoms: O_1  and  C_17
REMARK    3  A    between atoms: O_7  and  C_20
REMARK    4  A    between atoms: O_7  and  C_25
REMARK    5  A    between atoms: C_15  and  C_23
REMARK    6  A    between atoms: C_21  and  C_24
REMARK    7  A    between atoms: C_30  and  C_31
REMARK    8  A    between atoms: C_32  and  C_33
REMARK    9  A    between atoms: C_33  and  C_34
REMARK                            x       y       z     vdW  Elec       q    Type
REMARK                         _______ _______ _______ _____ _____    ______ ____
ROOT
ATOM      1  O   UNL     1     109.927 128.841 136.295  0.00  0.00    +0.000 OA
ATOM      2  O   UNL     1     108.283 130.610 135.756  0.00  0.00    +0.000 OA
ATOM      3  O   UNL     1     107.843 129.023 135.675  0.00  0.00    +0.000 OA
ATOM      4  C   UNL     1     109.599 130.225 136.156  0.00  0.00    +0.000 C 
ATOM      5  C   UNL     1     108.831 130.020 135.935  0.00  0.00    +0.000 C 
ATOM      6  C   UNL     1     108.610 129.227 135.895  0.00  0.00    +0.000 C 
ATOM      7  C   UNL     1     110.147 129.635 136.335  0.00  0.00    +0.000 C 
ATOM      8  C   UNL     1     109.159 128.637 136.075  0.00  0.00    +0.000 C 
ENDROOT
BRANCH   8  10
ATOM      9  O   UNL     1     108.878 127.396 136.726  0.00  0.00    +0.000 OA
ATOM     10  C   UNL     1     108.939 127.843 136.034  0.00  0.00    +0.000 C 
ENDBRANCH   8  10
BRANCH   4  11
ATOM     11  O   UNL     1     109.819 131.018 136.196  0.00  0.00    +0.000 OA
BRANCH  11  17
ATOM     12  O   UNL     1     109.232 131.205 137.531  0.00  0.00    +0.000 OA
ATOM     13  O   UNL     1     109.584 132.849 138.496  0.00  0.00    +0.000 OA
ATOM     14  O   UNL     1     110.470 132.651 136.564  0.00  0.00    +0.000 OA
ATOM     15  C   UNL     1     109.716 132.419 137.805  0.00  0.00    +0.000 C 
ATOM     16  C   UNL     1     109.986 132.199 137.057  0.00  0.00    +0.000 C 
ATOM     17  C   UNL     1     109.687 131.449 136.887  0.00  0.00    +0.000 C 
ATOM     18  C   UNL     1     109.251 131.804 138.098  0.00  0.00    +0.000 C 
BRANCH  15  20
ATOM     19  O   UNL     1     110.297 133.571 138.417  0.00  0.00    +0.000 OA
ATOM     20  C   UNL     1     110.118 133.136 137.740  0.00  0.00    +0.000 C 
ENDBRANCH  15  20
ENDBRANCH  11  17
ENDBRANCH   4  11
BRANCH   7  21
ATOM     21  O   UNL     1     110.916 129.839 136.556  0.00  0.00    +0.000 OA
BRANCH  21  22
ATOM     22  C   UNL     1     111.518 129.277 136.519  0.00  0.00    +0.000 A 
ATOM     23  C   UNL     1     111.779 128.907 137.209  0.00  0.00    +0.000 A 
ATOM     24  C   UNL     1     111.860 129.086 135.793  0.00  0.00    +0.000 A 
ATOM     25  C   UNL     1     112.382 128.345 137.172  0.00  0.00    +0.000 A 
ATOM     26  C   UNL     1     112.463 128.524 135.756  0.00  0.00    +0.000 A 
ATOM     27  C   UNL     1     112.724 128.153 136.445  0.00  0.00    +0.000 A 
BRANCH  27  28
ATOM     28  C   UNL     1     113.327 127.591 136.408  0.00  0.00    +0.000 C 
ATOM     29  C   UNL     1     113.162 126.798 136.568  0.00  0.00    +0.000 C 
BRANCH  29  31
ATOM     30  O   UNL     1     114.529 126.464 136.317  0.00  0.00    +0.000 OA
ATOM     31  C   UNL     1     113.765 126.236 136.532  0.00  0.00    +0.000 C 
BRANCH  31  34
ATOM     32  O   UNL     1     114.660 125.447 137.671  0.00  0.00    +0.000 OA
ATOM     33  O   UNL     1     113.122 123.077 137.238  0.00  0.00    +0.000 OA
ATOM     34  C   UNL     1     113.605 125.447 136.709  0.00  0.00    +0.000 A 
ATOM     35  C   UNL     1     114.052 125.052 137.278  0.00  0.00    +0.000 A 
ATOM     36  C   UNL     1     112.996 125.051 136.315  0.00  0.00    +0.000 A 
ATOM     37  C   UNL     1     113.891 124.262 137.455  0.00  0.00    +0.000 A 
ATOM     38  C   UNL     1     112.836 124.262 136.492  0.00  0.00    +0.000 A 
ATOM     39  C   UNL     1     113.283 123.867 137.062  0.00  0.00    +0.000 A 
ENDBRANCH  31  34
ENDBRANCH  29  31
ENDBRANCH  27  28
ENDBRANCH  21  22
ENDBRANCH   7  21
TORSDOF 9
ENDMDL
MODEL 4
REMARK VINA RESULT:      -8.8      2.977      5.333
REMARK  Name = 6442433
REMARK  9 active torsions:
REMARK  status: ('A' for Active; 'I' for Inactive)
REMARK    1  A    between atoms: O_1  and  C_14
REMARK    2  A    between atoms: O_1  and  C_17
REMARK    3  A    between atoms: O_7  and  C_20
REMARK    4  A    between atoms: O_7  and  C_25
REMARK    5  A    between atoms: C_15  and  C_23
REMARK    6  A    between atoms: C_21  and  C_24
REMARK    7  A    between atoms: C_30  and  C_31
REMARK    8  A    between atoms: C_32  and  C_33
REMARK    9  A    between atoms: C_33  and  C_34
REMARK                            x       y       z     vdW  Elec       q    Type
REMARK                         _______ _______ _______ _____ _____    ______ ____
ROOT
ATOM      1  O   UNL     1     111.394 125.693 137.407  0.00  0.00    +0.000 OA
ATOM      2  O   UNL     1     110.826 125.781 135.000  0.00  0.00    +0.000 OA
ATOM      3  O   UNL     1     111.323 124.363 135.678  0.00  0.00    +0.000 OA
ATOM      4  C   UNL     1     110.956 126.433 136.265  0.00  0.00    +0.000 C 
ATOM      5  C   UNL     1     111.015 125.752 135.802  0.00  0.00    +0.000 C 
ATOM      6  C   UNL     1     111.264 125.043 136.141  0.00  0.00    +0.000 C 
ATOM      7  C   UNL     1     111.145 126.403 137.067  0.00  0.00    +0.000 C 
ATOM      8  C   UNL     1     111.453 125.013 136.943  0.00  0.00    +0.000 C 
ENDROOT
BRANCH   8  10
ATOM      9  O   UNL     1     111.399 124.069 138.014  0.00  0.00    +0.000 OA
ATOM     10  C   UNL     1     111.702 124.304 137.283  0.00  0.00    +0.000 C 
ENDBRANCH   8  10
BRANCH   4  11
ATOM     11  O   UNL     1     110.707 127.142 135.926  0.00  0.00    +0.000 OA
BRANCH  11  17
ATOM     12  O   UNL     1     109.280 126.805 136.033  0.00  0.00    +0.000 OA
ATOM     13  O   UNL     1     107.959 128.197 135.754  0.00  0.00    +0.000 OA
ATOM     14  O   UNL     1     110.010 128.760 135.582  0.00  0.00    +0.000 OA
ATOM     15  C   UNL     1     108.761 128.009 135.777  0.00  0.00    +0.000 C 
ATOM     16  C   UNL     1     109.584 128.073 135.745  0.00  0.00    +0.000 C 
ATOM     17  C   UNL     1     109.904 127.330 135.902  0.00  0.00    +0.000 C 
ATOM     18  C   UNL     1     108.574 127.226 135.955  0.00  0.00    +0.000 C 
BRANCH  15  20
ATOM     19  O   UNL     1     107.982 129.206 135.746  0.00  0.00    +0.000 OA
ATOM     20  C   UNL     1     108.692 128.812 135.601  0.00  0.00    +0.000 C 
ENDBRANCH  15  20
ENDBRANCH  11  17
ENDBRANCH   4  11
BRANCH   7  21
ATOM     21  O   UNL     1     111.086 127.083 137.530  0.00  0.00    +0.000 OA
BRANCH  21  22
ATOM     22  C   UNL     1     111.670 127.256 138.086  0.00  0.00    +0.000 A 
ATOM     23  C   UNL     1     111.511 127.175 138.892  0.00  0.00    +0.000 A 
ATOM     24  C   UNL     1     112.414 127.511 137.836  0.00  0.00    +0.000 A 
ATOM     25  C   UNL     1     112.095 127.348 139.447  0.00  0.00    +0.000 A 
ATOM     26  C   UNL     1     112.998 127.684 138.392  0.00  0.00    +0.000 A 
ATOM     27  C   UNL     1     112.840 127.603 139.197  0.00  0.00    +0.000 A 
BRANCH  27  28
ATOM     28  C   UNL     1     113.425 127.776 139.753  0.00  0.00    +0.000 C 
ATOM     29  C   UNL     1     113.507 128.546 140.038  0.00  0.00    +0.000 C 
BRANCH  29  31
ATOM     30  O   UNL     1     114.429 128.113 141.040  0.00  0.00    +0.000 OA
ATOM     31  C   UNL     1     114.092 128.719 140.594  0.00  0.00    +0.000 C 
BRANCH  31  34
ATOM     32  O   UNL     1     113.287 129.701 141.648  0.00  0.00    +0.000 OA
ATOM     33  O   UNL     1     115.084 131.836 141.031  0.00  0.00    +0.000 OA
ATOM     34  C   UNL     1     114.339 129.499 140.703  0.00  0.00    +0.000 A 
ATOM     35  C   UNL     1     113.937 129.990 141.230  0.00  0.00    +0.000 A 
ATOM     36  C   UNL     1     114.990 129.787 140.285  0.00  0.00    +0.000 A 
ATOM     37  C   UNL     1     114.186 130.769 141.339  0.00  0.00    +0.000 A 
ATOM     38  C   UNL     1     115.238 130.566 140.395  0.00  0.00    +0.000 A 
ATOM     39  C   UNL     1     114.836 131.057 140.922  0.00  0.00    +0.000 A 
ENDBRANCH  31  34
ENDBRANCH  29  31
ENDBRANCH  27  28
ENDBRANCH  21  22
ENDBRANCH   7  21
TORSDOF 9
ENDMDL
MODEL 5
REMARK VINA RESULT:      -8.7      4.311      5.296
REMARK  Name = 6442433
REMARK  9 active torsions:
REMARK  status: ('A' for Active; 'I' for Inactive)
REMARK    1  A    between atoms: O_1  and  C_14
REMARK    2  A    between atoms: O_1  and  C_17
REMARK    3  A    between atoms: O_7  and  C_20
REMARK    4  A    between atoms: O_7  and  C_25
REMARK    5  A    between atoms: C_15  and  C_23
REMARK    6  A    between atoms: C_21  and  C_24
REMARK    7  A    between atoms: C_30  and  C_31
REMARK    8  A    between atoms: C_32  and  C_33
REMARK    9  A    between atoms: C_33  and  C_34
REMARK                            x       y       z     vdW  Elec       q    Type
REMARK                         _______ _______ _______ _____ _____    ______ ____
ROOT
ATOM      1  O   UNL     1     113.523 129.758 140.052  0.00  0.00    +0.000 OA
ATOM      2  O   UNL     1     114.140 131.331 141.860  0.00  0.00    +0.000 OA
ATOM      3  O   UNL     1     114.924 131.392 140.411  0.00  0.00    +0.000 OA
ATOM      4  C   UNL     1     113.336 130.252 141.381  0.00  0.00    +0.000 C 
ATOM      5  C   UNL     1     113.934 130.807 141.258  0.00  0.00    +0.000 C 
ATOM      6  C   UNL     1     114.327 130.837 140.533  0.00  0.00    +0.000 C 
ATOM      7  C   UNL     1     113.130 129.727 140.778  0.00  0.00    +0.000 C 
ATOM      8  C   UNL     1     114.121 130.313 139.931  0.00  0.00    +0.000 C 
ENDROOT
BRANCH   8  10
ATOM      9  O   UNL     1     114.118 130.618 138.535  0.00  0.00    +0.000 OA
ATOM     10  C   UNL     1     114.513 130.343 139.205  0.00  0.00    +0.000 C 
ENDBRANCH   8  10
BRANCH   4  11
ATOM     11  O   UNL     1     112.944 130.221 142.105  0.00  0.00    +0.000 OA
BRANCH  11  17
ATOM     12  O   UNL     1     111.986 131.268 141.719  0.00  0.00    +0.000 OA
ATOM     13  O   UNL     1     110.612 131.801 142.979  0.00  0.00    +0.000 OA
ATOM     14  O   UNL     1     111.966 130.276 143.610  0.00  0.00    +0.000 OA
ATOM     15  C   UNL     1     111.259 131.309 142.838  0.00  0.00    +0.000 C 
ATOM     16  C   UNL     1     111.848 130.739 142.937  0.00  0.00    +0.000 C 
ATOM     17  C   UNL     1     112.297 130.714 142.246  0.00  0.00    +0.000 C 
ATOM     18  C   UNL     1     111.345 131.635 142.086  0.00  0.00    +0.000 C 
BRANCH  15  20
ATOM     19  O   UNL     1     110.356 131.594 143.908  0.00  0.00    +0.000 OA
ATOM     20  C   UNL     1     110.977 131.150 143.597  0.00  0.00    +0.000 C 
ENDBRANCH  15  20
ENDBRANCH  11  17
ENDBRANCH   4  11
BRANCH   7  21
ATOM     21  O   UNL     1     112.533 129.172 140.900  0.00  0.00    +0.000 OA
BRANCH  21  22
ATOM     22  C   UNL     1     112.533 128.465 140.475  0.00  0.00    +0.000 A 
ATOM     23  C   UNL     1     112.036 128.377 139.822  0.00  0.00    +0.000 A 
ATOM     24  C   UNL     1     113.028 127.847 140.703  0.00  0.00    +0.000 A 
ATOM     25  C   UNL     1     112.036 127.670 139.397  0.00  0.00    +0.000 A 
ATOM     26  C   UNL     1     113.028 127.140 140.278  0.00  0.00    +0.000 A 
ATOM     27  C   UNL     1     112.533 127.051 139.625  0.00  0.00    +0.000 A 
BRANCH  27  28
ATOM     28  C   UNL     1     112.532 126.344 139.199  0.00  0.00    +0.000 C 
ATOM     29  C   UNL     1     112.993 126.273 138.518  0.00  0.00    +0.000 C 
BRANCH  29  31
ATOM     30  O   UNL     1     112.411 124.998 138.237  0.00  0.00    +0.000 OA
ATOM     31  C   UNL     1     112.993 125.566 138.093  0.00  0.00    +0.000 C 
BRANCH  31  34
ATOM     32  O   UNL     1     112.644 125.756 136.492  0.00  0.00    +0.000 OA
ATOM     33  O   UNL     1     115.318 125.005 135.820  0.00  0.00    +0.000 OA
ATOM     34  C   UNL     1     113.574 125.426 137.524  0.00  0.00    +0.000 A 
ATOM     35  C   UNL     1     113.399 125.521 136.724  0.00  0.00    +0.000 A 
ATOM     36  C   UNL     1     114.330 125.191 137.757  0.00  0.00    +0.000 A 
ATOM     37  C   UNL     1     113.981 125.381 136.156  0.00  0.00    +0.000 A 
ATOM     38  C   UNL     1     114.911 125.051 137.188  0.00  0.00    +0.000 A 
ATOM     39  C   UNL     1     114.736 125.146 136.388  0.00  0.00    +0.000 A 
ENDBRANCH  31  34
ENDBRANCH  29  31
ENDBRANCH  27  28
ENDBRANCH  21  22
ENDBRANCH   7  21
TORSDOF 9
ENDMDL
MODEL 6
REMARK VINA RESULT:      -8.7     10.069     12.122
REMARK  Name = 6442433
REMARK  9 active torsions:
REMARK  status: ('A' for Active; 'I' for Inactive)
REMARK    1  A    between atoms: O_1  and  C_14
REMARK    2  A    between atoms: O_1  and  C_17
REMARK    3  A    between atoms: O_7  and  C_20
REMARK    4  A    between atoms: O_7  and  C_25
REMARK    5  A    between atoms: C_15  and  C_23
REMARK    6  A    between atoms: C_21  and  C_24
REMARK    7  A    between atoms: C_30  and  C_31
REMARK    8  A    between atoms: C_32  and  C_33
REMARK    9  A    between atoms: C_33  and  C_34
REMARK                            x       y       z     vdW  Elec       q    Type
REMARK                         _______ _______ _______ _____ _____    ______ ____
ROOT
ATOM      1  O   UNL     1     107.020 127.309 144.882  0.00  0.00    +0.000 OA
ATOM      2  O   UNL     1     105.500 125.631 145.880  0.00  0.00    +0.000 OA
ATOM      3  O   UNL     1     105.619 125.764 144.241  0.00  0.00    +0.000 OA
ATOM      4  C   UNL     1     106.454 126.683 146.035  0.00  0.00    +0.000 C 
ATOM      5  C   UNL     1     106.007 126.190 145.547  0.00  0.00    +0.000 C 
ATOM      6  C   UNL     1     106.066 126.257 144.728  0.00  0.00    +0.000 C 
ATOM      7  C   UNL     1     106.961 127.242 145.702  0.00  0.00    +0.000 C 
ATOM      8  C   UNL     1     106.572 126.816 144.395  0.00  0.00    +0.000 C 
ENDROOT
BRANCH   8  10
ATOM      9  O   UNL     1     107.348 126.717 143.199  0.00  0.00    +0.000 OA
ATOM     10  C   UNL     1     106.632 126.883 143.575  0.00  0.00    +0.000 C 
ENDBRANCH   8  10
BRANCH   4  11
ATOM     11  O   UNL     1     106.395 126.616 146.855  0.00  0.00    +0.000 OA
BRANCH  11  17
ATOM     12  O   UNL     1     107.461 125.608 146.943  0.00  0.00    +0.000 OA
ATOM     13  O   UNL     1     107.724 124.656 148.611  0.00  0.00    +0.000 OA
ATOM     14  O   UNL     1     106.157 126.104 148.559  0.00  0.00    +0.000 OA
ATOM     15  C   UNL     1     107.284 125.227 148.211  0.00  0.00    +0.000 C 
ATOM     16  C   UNL     1     106.725 125.810 148.038  0.00  0.00    +0.000 C 
ATOM     17  C   UNL     1     106.835 126.045 147.256  0.00  0.00    +0.000 C 
ATOM     18  C   UNL     1     107.739 125.103 147.534  0.00  0.00    +0.000 C 
BRANCH  15  20
ATOM     19  O   UNL     1     107.328 124.641 149.512  0.00  0.00    +0.000 OA
ATOM     20  C   UNL     1     106.988 125.169 148.978  0.00  0.00    +0.000 C 
ENDBRANCH  15  20
ENDBRANCH  11  17
ENDBRANCH   4  11
BRANCH   7  21
ATOM     21  O   UNL     1     107.408 127.736 146.189  0.00  0.00    +0.000 OA
BRANCH  21  22
ATOM     22  C   UNL     1     107.547 128.518 145.968  0.00  0.00    +0.000 A 
ATOM     23  C   UNL     1     108.274 128.731 145.640  0.00  0.00    +0.000 A 
ATOM     24  C   UNL     1     106.960 129.087 146.076  0.00  0.00    +0.000 A 
ATOM     25  C   UNL     1     108.413 129.514 145.419  0.00  0.00    +0.000 A 
ATOM     26  C   UNL     1     107.099 129.870 145.855  0.00  0.00    +0.000 A 
ATOM     27  C   UNL     1     107.825 130.084 145.527  0.00  0.00    +0.000 A 
BRANCH  27  28
ATOM     28  C   UNL     1     107.964 130.866 145.306  0.00  0.00    +0.000 C 
ATOM     29  C   UNL     1     108.613 131.272 145.615  0.00  0.00    +0.000 C 
BRANCH  29  31
ATOM     30  O   UNL     1     108.317 132.394 144.779  0.00  0.00    +0.000 OA
ATOM     31  C   UNL     1     108.752 132.055 145.394  0.00  0.00    +0.000 C 
BRANCH  31  34
ATOM     32  O   UNL     1     110.175 132.419 144.642  0.00  0.00    +0.000 OA
ATOM     33  O   UNL     1     111.042 133.834 146.969  0.00  0.00    +0.000 OA
ATOM     34  C   UNL     1     109.325 132.500 145.787  0.00  0.00    +0.000 A 
ATOM     35  C   UNL     1     110.036 132.682 145.411  0.00  0.00    +0.000 A 
ATOM     36  C   UNL     1     109.185 132.762 146.557  0.00  0.00    +0.000 A 
ATOM     37  C   UNL     1     110.608 133.127 145.806  0.00  0.00    +0.000 A 
ATOM     38  C   UNL     1     109.758 133.207 146.951  0.00  0.00    +0.000 A 
ATOM     39  C   UNL     1     110.470 133.389 146.575  0.00  0.00    +0.000 A 
ENDBRANCH  31  34
ENDBRANCH  29  31
ENDBRANCH  27  28
ENDBRANCH  21  22
ENDBRANCH   7  21
TORSDOF 9
ENDMDL
MODEL 7
REMARK VINA RESULT:      -8.6      1.203      6.991
REMARK  Name = 6442433
REMARK  9 active torsions:
REMARK  status: ('A' for Active; 'I' for Inactive)
REMARK    1  A    between atoms: O_1  and  C_14
REMARK    2  A    between atoms: O_1  and  C_17
REMARK    3  A    between atoms: O_7  and  C_20
REMARK    4  A    between atoms: O_7  and  C_25
REMARK    5  A    between atoms: C_15  and  C_23
REMARK    6  A    between atoms: C_21  and  C_24
REMARK    7  A    between atoms: C_30  and  C_31
REMARK    8  A    between atoms: C_32  and  C_33
REMARK    9  A    between atoms: C_33  and  C_34
REMARK                            x       y       z     vdW  Elec       q    Type
REMARK                         _______ _______ _______ _____ _____    ______ ____
ROOT
ATOM      1  O   UNL     1     111.027 127.093 135.510  0.00  0.00    +0.000 OA
ATOM      2  O   UNL     1     111.251 124.876 136.586  0.00  0.00    +0.000 OA
ATOM      3  O   UNL     1     110.203 125.081 135.330  0.00  0.00    +0.000 OA
ATOM      4  C   UNL     1     111.627 126.252 136.498  0.00  0.00    +0.000 C 
ATOM      5  C   UNL     1     111.176 125.615 136.227  0.00  0.00    +0.000 C 
ATOM      6  C   UNL     1     110.652 125.717 135.599  0.00  0.00    +0.000 C 
ATOM      7  C   UNL     1     111.552 126.991 136.139  0.00  0.00    +0.000 C 
ATOM      8  C   UNL     1     110.578 126.456 135.241  0.00  0.00    +0.000 C 
ENDROOT
BRANCH   8  10
ATOM      9  O   UNL     1     109.385 127.035 134.707  0.00  0.00    +0.000 OA
ATOM     10  C   UNL     1     110.054 126.560 134.612  0.00  0.00    +0.000 C 
ENDBRANCH   8  10
BRANCH   4  11
ATOM     11  O   UNL     1     112.151 126.149 137.126  0.00  0.00    +0.000 OA
BRANCH  11  17
ATOM     12  O   UNL     1     113.217 125.633 136.256  0.00  0.00    +0.000 OA
ATOM     13  O   UNL     1     114.877 125.029 137.054  0.00  0.00    +0.000 OA
ATOM     14  O   UNL     1     113.376 125.765 138.380  0.00  0.00    +0.000 OA
ATOM     15  C   UNL     1     114.129 125.347 137.189  0.00  0.00    +0.000 C 
ATOM     16  C   UNL     1     113.463 125.654 137.567  0.00  0.00    +0.000 C 
ATOM     17  C   UNL     1     112.900 125.831 136.992  0.00  0.00    +0.000 C 
ATOM     18  C   UNL     1     113.976 125.334 136.378  0.00  0.00    +0.000 C 
BRANCH  15  20
ATOM     19  O   UNL     1     115.239 124.889 137.962  0.00  0.00    +0.000 OA
ATOM     20  C   UNL     1     114.505 125.261 137.918  0.00  0.00    +0.000 C 
ENDBRANCH  15  20
ENDBRANCH  11  17
ENDBRANCH   4  11
BRANCH   7  21
ATOM     21  O   UNL     1     112.002 127.628 136.409  0.00  0.00    +0.000 OA
BRANCH  21  22
ATOM     22  C   UNL     1     111.666 128.380 136.454  0.00  0.00    +0.000 A 
ATOM     23  C   UNL     1     111.165 128.571 137.081  0.00  0.00    +0.000 A 
ATOM     24  C   UNL     1     111.832 128.941 135.872  0.00  0.00    +0.000 A 
ATOM     25  C   UNL     1     110.830 129.324 137.126  0.00  0.00    +0.000 A 
ATOM     26  C   UNL     1     111.497 129.693 135.917  0.00  0.00    +0.000 A 
ATOM     27  C   UNL     1     110.996 129.885 136.543  0.00  0.00    +0.000 A 
BRANCH  27  28
ATOM     28  C   UNL     1     110.660 130.638 136.588  0.00  0.00    +0.000 C 
ATOM     29  C   UNL     1     109.899 130.767 136.298  0.00  0.00    +0.000 C 
BRANCH  29  31
ATOM     30  O   UNL     1     109.909 132.098 136.821  0.00  0.00    +0.000 OA
ATOM     31  C   UNL     1     109.564 131.520 136.343  0.00  0.00    +0.000 C 
BRANCH  31  34
ATOM     32  O   UNL     1     108.082 131.425 137.063  0.00  0.00    +0.000 OA
ATOM     33  O   UNL     1     106.842 132.222 134.613  0.00  0.00    +0.000 OA
ATOM     34  C   UNL     1     108.883 131.695 135.911  0.00  0.00    +0.000 A 
ATOM     35  C   UNL     1     108.142 131.648 136.271  0.00  0.00    +0.000 A 
ATOM     36  C   UNL     1     108.944 131.918 135.119  0.00  0.00    +0.000 A 
ATOM     37  C   UNL     1     107.462 131.824 135.838  0.00  0.00    +0.000 A 
ATOM     38  C   UNL     1     108.263 132.093 134.687  0.00  0.00    +0.000 A 
ATOM     39  C   UNL     1     107.522 132.046 135.047  0.00  0.00    +0.000 A 
ENDBRANCH  31  34
ENDBRANCH  29  31
ENDBRANCH  27  28
ENDBRANCH  21  22
ENDBRANCH   7  21
TORSDOF 9
ENDMDL
MODEL 8
REMARK VINA RESULT:      -8.6      3.977      4.758
REMARK  Name = 6442433
REMARK  9 active torsions:
REMARK  status: ('A' for Active; 'I' for Inactive)
REMARK    1  A    between atoms: O_1  and  C_14
REMARK    2  A    between atoms: O_1  and  C_17
REMARK    3  A    between atoms: O_7  and  C_20
REMARK    4  A    between atoms: O_7  and  C_25
REMARK    5  A    between atoms: C_15  and  C_23
REMARK    6  A    between atoms: C_21  and  C_24
REMARK    7  A    between atoms: C_30  and  C_31
REMARK    8  A    between atoms: C_32  and  C_33
REMARK    9  A    between atoms: C_33  and  C_34
REMARK                            x       y       z     vdW  Elec       q    Type
REMARK                         _______ _______ _______ _____ _____    ______ ____
ROOT
ATOM      1  O   UNL     1     113.703 129.823 140.365  0.00  0.00    +0.000 OA
ATOM      2  O   UNL     1     112.927 131.190 142.277  0.00  0.00    +0.000 OA
ATOM      3  O   UNL     1     114.426 131.441 141.638  0.00  0.00    +0.000 OA
ATOM      4  C   UNL     1     112.694 130.153 141.322  0.00  0.00    +0.000 C 
ATOM      5  C   UNL     1     113.186 130.734 141.640  0.00  0.00    +0.000 C 
ATOM      6  C   UNL     1     113.935 130.860 141.321  0.00  0.00    +0.000 C 
ATOM      7  C   UNL     1     112.952 129.697 140.685  0.00  0.00    +0.000 C 
ATOM      8  C   UNL     1     114.194 130.405 140.684  0.00  0.00    +0.000 C 
ENDROOT
BRANCH   8  10
ATOM      9  O   UNL     1     115.024 130.729 139.566  0.00  0.00    +0.000 OA
ATOM     10  C   UNL     1     114.944 130.530 140.364  0.00  0.00    +0.000 C 
ENDBRANCH   8  10
BRANCH   4  11
ATOM     11  O   UNL     1     111.944 130.027 141.642  0.00  0.00    +0.000 OA
BRANCH  11  17
ATOM     12  O   UNL     1     111.324 131.052 140.790  0.00  0.00    +0.000 OA
ATOM     13  O   UNL     1     109.421 131.386 140.948  0.00  0.00    +0.000 OA
ATOM     14  O   UNL     1     110.250 129.883 142.217  0.00  0.00    +0.000 OA
ATOM     15  C   UNL     1     110.063 130.945 141.218  0.00  0.00    +0.000 C 
ATOM     16  C   UNL     1     110.523 130.402 141.636  0.00  0.00    +0.000 C 
ATOM     17  C   UNL     1     111.301 130.467 141.372  0.00  0.00    +0.000 C 
ATOM     18  C   UNL     1     110.559 131.347 140.695  0.00  0.00    +0.000 C 
BRANCH  15  20
ATOM     19  O   UNL     1     108.677 131.094 141.528  0.00  0.00    +0.000 OA
ATOM     20  C   UNL     1     109.394 130.699 141.632  0.00  0.00    +0.000 C 
ENDBRANCH  15  20
ENDBRANCH  11  17
ENDBRANCH   4  11
BRANCH   7  21
ATOM     21  O   UNL     1     112.462 129.116 140.367  0.00  0.00    +0.000 OA
BRANCH  21  22
ATOM     22  C   UNL     1     112.790 128.453 140.001  0.00  0.00    +0.000 A 
ATOM     23  C   UNL     1     113.070 127.826 140.458  0.00  0.00    +0.000 A 
ATOM     24  C   UNL     1     112.837 128.418 139.179  0.00  0.00    +0.000 A 
ATOM     25  C   UNL     1     113.398 127.164 140.092  0.00  0.00    +0.000 A 
ATOM     26  C   UNL     1     113.165 127.755 138.813  0.00  0.00    +0.000 A 
ATOM     27  C   UNL     1     113.446 127.128 139.269  0.00  0.00    +0.000 A 
BRANCH  27  28
ATOM     28  C   UNL     1     113.774 126.465 138.903  0.00  0.00    +0.000 C 
ATOM     29  C   UNL     1     113.363 126.082 138.299  0.00  0.00    +0.000 C 
BRANCH  29  31
ATOM     30  O   UNL     1     114.486 125.233 138.052  0.00  0.00    +0.000 OA
ATOM     31  C   UNL     1     113.691 125.420 137.933  0.00  0.00    +0.000 C 
BRANCH  31  34
ATOM     32  O   UNL     1     114.178 125.082 136.393  0.00  0.00    +0.000 OA
ATOM     33  O   UNL     1     111.824 123.511 135.994  0.00  0.00    +0.000 OA
ATOM     34  C   UNL     1     113.225 124.942 137.448  0.00  0.00    +0.000 A 
ATOM     35  C   UNL     1     113.468 124.774 136.678  0.00  0.00    +0.000 A 
ATOM     36  C   UNL     1     112.514 124.634 137.733  0.00  0.00    +0.000 A 
ATOM     37  C   UNL     1     113.001 124.296 136.193  0.00  0.00    +0.000 A 
ATOM     38  C   UNL     1     112.048 124.157 137.248  0.00  0.00    +0.000 A 
ATOM     39  C   UNL     1     112.291 123.988 136.478  0.00  0.00    +0.000 A 
ENDBRANCH  31  34
ENDBRANCH  29  31
ENDBRANCH  27  28
ENDBRANCH  21  22
ENDBRANCH   7  21
TORSDOF 9
ENDMDL
MODEL 9
REMARK VINA RESULT:      -8.5      4.381      5.537
REMARK  Name = 6442433
REMARK  9 active torsions:
REMARK  status: ('A' for Active; 'I' for Inactive)
REMARK    1  A    between atoms: O_1  and  C_14
REMARK    2  A    between atoms: O_1  and  C_17
REMARK    3  A    between atoms: O_7  and  C_20
REMARK    4  A    between atoms: O_7  and  C_25
REMARK    5  A    between atoms: C_15  and  C_23
REMARK    6  A    between atoms: C_21  and  C_24
REMARK    7  A    between atoms: C_30  and  C_31
REMARK    8  A    between atoms: C_32  and  C_33
REMARK    9  A    between atoms: C_33  and  C_34
REMARK                            x       y       z     vdW  Elec       q    Type
REMARK                         _______ _______ _______ _____ _____    ______ ____
ROOT
ATOM      1  O   UNL     1     113.840 129.516 140.784  0.00  0.00    +0.000 OA
ATOM      2  O   UNL     1     112.670 131.305 142.032  0.00  0.00    +0.000 OA
ATOM      3  O   UNL     1     114.252 131.495 141.606  0.00  0.00    +0.000 OA
ATOM      4  C   UNL     1     112.658 130.017 141.413  0.00  0.00    +0.000 C 
ATOM      5  C   UNL     1     113.060 130.709 141.616  0.00  0.00    +0.000 C 
ATOM      6  C   UNL     1     113.851 130.804 141.403  0.00  0.00    +0.000 C 
ATOM      7  C   UNL     1     113.048 129.421 140.997  0.00  0.00    +0.000 C 
ATOM      8  C   UNL     1     114.241 130.208 140.987  0.00  0.00    +0.000 C 
ENDROOT
BRANCH   8  10
ATOM      9  O   UNL     1     115.229 130.483 139.992  0.00  0.00    +0.000 OA
ATOM     10  C   UNL     1     115.032 130.303 140.774  0.00  0.00    +0.000 C 
ENDBRANCH   8  10
BRANCH   4  11
ATOM     11  O   UNL     1     111.868 129.922 141.626  0.00  0.00    +0.000 OA
BRANCH  11  17
ATOM     12  O   UNL     1     112.208 129.415 142.964  0.00  0.00    +0.000 OA
ATOM     13  O   UNL     1     110.779 128.981 144.200  0.00  0.00    +0.000 OA
ATOM     14  O   UNL     1     110.208 129.711 142.277  0.00  0.00    +0.000 OA
ATOM     15  C   UNL     1     110.973 129.258 143.448  0.00  0.00    +0.000 C 
ATOM     16  C   UNL     1     110.911 129.547 142.678  0.00  0.00    +0.000 C 
ATOM     17  C   UNL     1     111.673 129.644 142.379  0.00  0.00    +0.000 C 
ATOM     18  C   UNL     1     111.775 129.176 143.624  0.00  0.00    +0.000 C 
BRANCH  15  20
ATOM     19  O   UNL     1     109.795 129.000 144.213  0.00  0.00    +0.000 OA
ATOM     20  C   UNL     1     110.151 129.250 143.513  0.00  0.00    +0.000 C 
ENDBRANCH  15  20
ENDBRANCH  11  17
ENDBRANCH   4  11
BRANCH   7  21
ATOM     21  O   UNL     1     112.647 128.729 140.794  0.00  0.00    +0.000 OA
BRANCH  21  22
ATOM     22  C   UNL     1     112.834 128.334 140.094  0.00  0.00    +0.000 A 
ATOM     23  C   UNL     1     112.525 128.598 139.376  0.00  0.00    +0.000 A 
ATOM     24  C   UNL     1     113.330 127.676 140.113  0.00  0.00    +0.000 A 
ATOM     25  C   UNL     1     112.711 128.203 138.677  0.00  0.00    +0.000 A 
ATOM     26  C   UNL     1     113.517 127.280 139.413  0.00  0.00    +0.000 A 
ATOM     27  C   UNL     1     113.208 127.543 138.695  0.00  0.00    +0.000 A 
BRANCH  27  28
ATOM     28  C   UNL     1     113.395 127.148 137.996  0.00  0.00    +0.000 C 
ATOM     29  C   UNL     1     113.113 126.383 137.867  0.00  0.00    +0.000 C 
BRANCH  29  31
ATOM     30  O   UNL     1     113.877 126.293 136.662  0.00  0.00    +0.000 OA
ATOM     31  C   UNL     1     113.300 125.988 137.167  0.00  0.00    +0.000 C 
BRANCH  31  34
ATOM     32  O   UNL     1     114.085 124.543 137.298  0.00  0.00    +0.000 OA
ATOM     33  O   UNL     1     111.741 123.186 136.386  0.00  0.00    +0.000 OA
ATOM     34  C   UNL     1     112.911 125.287 136.972  0.00  0.00    +0.000 A 
ATOM     35  C   UNL     1     113.304 124.565 137.037  0.00  0.00    +0.000 A 
ATOM     36  C   UNL     1     112.128 125.310 136.711  0.00  0.00    +0.000 A 
ATOM     37  C   UNL     1     112.913 123.864 136.842  0.00  0.00    +0.000 A 
ATOM     38  C   UNL     1     111.739 124.609 136.516  0.00  0.00    +0.000 A 
ATOM     39  C   UNL     1     112.131 123.886 136.581  0.00  0.00    +0.000 A 
ENDBRANCH  31  34
ENDBRANCH  29  31
ENDBRANCH  27  28
ENDBRANCH  21  22
ENDBRANCH   7  21
TORSDOF 9
ENDMDL
MODEL 10
REMARK VINA RESULT:      -8.5      7.415     10.396
REMARK  Name = 6442433
REMARK  9 active torsions:
REMARK  status: ('A' for Active; 'I' for Inactive)
REMARK    1  A    between atoms: O_1  and  C_14
REMARK    2  A    between atoms: O_1  and  C_17
REMARK    3  A    between atoms: O_7  and  C_20
REMARK    4  A    between atoms: O_7  and  C_25
REMARK    5  A    between atoms: C_15  and  C_23
REMARK    6  A    between atoms: C_21  and  C_24
REMARK    7  A    between atoms: C_30  and  C_31
REMARK    8  A    between atoms: C_32  and  C_33
REMARK    9  A    between atoms: C_33  and  C_34
REMARK                            x       y       z     vdW  Elec       q    Type
REMARK                         _______ _______ _______ _____ _____    ______ ____
ROOT
ATOM      1  O   UNL     1     106.469 128.375 141.676  0.00  0.00    +0.000 OA
ATOM      2  O   UNL     1     107.840 126.462 142.442  0.00  0.00    +0.000 OA
ATOM      3  O   UNL     1     108.557 127.908 142.104  0.00  0.00    +0.000 OA
ATOM      4  C   UNL     1     106.567 127.014 142.101  0.00  0.00    +0.000 C 
ATOM      5  C   UNL     1     107.383 127.100 142.187  0.00  0.00    +0.000 C 
ATOM      6  C   UNL     1     107.742 127.822 142.018  0.00  0.00    +0.000 C 
ATOM      7  C   UNL     1     106.110 127.652 141.845  0.00  0.00    +0.000 C 
ATOM      8  C   UNL     1     107.285 128.460 141.762  0.00  0.00    +0.000 C 
ENDROOT
BRANCH   8  10
ATOM      9  O   UNL     1     107.502 129.554 140.869  0.00  0.00    +0.000 OA
ATOM     10  C   UNL     1     107.643 129.184 141.593  0.00  0.00    +0.000 C 
ENDBRANCH   8  10
BRANCH   4  11
ATOM     11  O   UNL     1     106.208 126.291 142.269  0.00  0.00    +0.000 OA
BRANCH  11  17
ATOM     12  O   UNL     1     106.468 125.759 140.924  0.00  0.00    +0.000 OA
ATOM     13  O   UNL     1     105.873 123.967 140.486  0.00  0.00    +0.000 OA
ATOM     14  O   UNL     1     105.459 124.671 142.458  0.00  0.00    +0.000 OA
ATOM     15  C   UNL     1     105.911 124.553 141.064  0.00  0.00    +0.000 C 
ATOM     16  C   UNL     1     105.825 124.960 141.778  0.00  0.00    +0.000 C 
ATOM     17  C   UNL     1     106.169 125.704 141.691  0.00  0.00    +0.000 C 
ATOM     18  C   UNL     1     106.309 125.048 140.537  0.00  0.00    +0.000 C 
BRANCH  15  20
ATOM     19  O   UNL     1     105.311 123.267 140.905  0.00  0.00    +0.000 OA
ATOM     20  C   UNL     1     105.521 123.902 141.387  0.00  0.00    +0.000 C 
ENDBRANCH  15  20
ENDBRANCH  11  17
ENDBRANCH   4  11
BRANCH   7  21
ATOM     21  O   UNL     1     105.294 127.567 141.759  0.00  0.00    +0.000 OA
BRANCH  21  22
ATOM     22  C   UNL     1     104.788 128.177 141.990  0.00  0.00    +0.000 A 
ATOM     23  C   UNL     1     104.301 128.541 141.432  0.00  0.00    +0.000 A 
ATOM     24  C   UNL     1     104.770 128.421 142.777  0.00  0.00    +0.000 A 
ATOM     25  C   UNL     1     103.796 129.151 141.663  0.00  0.00    +0.000 A 
ATOM     26  C   UNL     1     104.265 129.031 143.008  0.00  0.00    +0.000 A 
ATOM     27  C   UNL     1     103.778 129.396 142.452  0.00  0.00    +0.000 A 
BRANCH  27  28
ATOM     28  C   UNL     1     103.272 130.006 142.682  0.00  0.00    +0.000 C 
ATOM     29  C   UNL     1     103.276 130.722 142.272  0.00  0.00    +0.000 C 
BRANCH  29  31
ATOM     30  O   UNL     1     102.236 131.213 143.120  0.00  0.00    +0.000 OA
ATOM     31  C   UNL     1     102.770 131.332 142.503  0.00  0.00    +0.000 C 
BRANCH  31  34
ATOM     32  O   UNL     1     101.464 131.865 141.647  0.00  0.00    +0.000 OA
ATOM     33  O   UNL     1     102.886 134.246 140.959  0.00  0.00    +0.000 OA
ATOM     34  C   UNL     1     102.799 132.060 142.117  0.00  0.00    +0.000 A 
ATOM     35  C   UNL     1     102.146 132.327 141.689  0.00  0.00    +0.000 A 
ATOM     36  C   UNL     1     103.482 132.522 142.159  0.00  0.00    +0.000 A 
ATOM     37  C   UNL     1     102.175 133.056 141.303  0.00  0.00    +0.000 A 
ATOM     38  C   UNL     1     103.510 133.251 141.773  0.00  0.00    +0.000 A 
ATOM     39  C   UNL     1     102.857 133.517 141.345  0.00  0.00    +0.000 A 
ENDBRANCH  31  34
ENDBRANCH  29  31
ENDBRANCH  27  28
ENDBRANCH  21  22
ENDBRANCH   7  21
TORSDOF 9
ENDMDL
