MODEL 1
REMARK VINA RESULT:      -8.2      0.000      0.000
REMARK  Name = 15489634
REMARK  2 active torsions:
REMARK  status: ('A' for Active; 'I' for Inactive)
REMARK    1  A    between atoms: O_6  and  C_21
REMARK    2  A    between atoms: C_7  and  C_9
REMARK                            x       y       z     vdW  Elec       q    Type
REMARK                         _______ _______ _______ _____ _____    ______ ____
ROOT
ATOM      1  O   UNL     1     104.341 124.541 138.897  0.00  0.00    +0.000 OA
ATOM      2  O   UNL     1     105.787 122.801 140.033  0.00  0.00    +0.000 OA
ATOM      3  O   UNL     1     106.209 123.805 140.980  0.00  0.00    +0.000 OA
ATOM      4  O   UNL     1     104.328 126.081 139.507  0.00  0.00    +0.000 OA
ATOM      5  O   UNL     1     105.233 126.486 140.826  0.00  0.00    +0.000 OA
ATOM      6  C   UNL     1     104.355 123.739 138.589  0.00  0.00    +0.000 C 
ATOM      7  C   UNL     1     104.845 123.147 138.972  0.00  0.00    +0.000 C 
ATOM      8  C   UNL     1     105.287 124.171 139.953  0.00  0.00    +0.000 A 
ATOM      9  C   UNL     1     105.314 123.364 139.658  0.00  0.00    +0.000 C 
ATOM     10  C   UNL     1     104.817 124.740 139.585  0.00  0.00    +0.000 A 
ATOM     11  C   UNL     1     105.739 124.374 140.612  0.00  0.00    +0.000 A 
ATOM     12  C   UNL     1     104.798 125.512 139.875  0.00  0.00    +0.000 A 
ATOM     13  C   UNL     1     105.251 125.714 140.535  0.00  0.00    +0.000 A 
ATOM     14  C   UNL     1     105.721 125.145 140.903  0.00  0.00    +0.000 A 
ENDROOT
BRANCH   6  15
ATOM     15  C   UNL     1     103.902 123.540 137.929  0.00  0.00    +0.000 A 
ATOM     16  C   UNL     1     103.079 123.526 137.982  0.00  0.00    +0.000 A 
ATOM     17  C   UNL     1     104.272 123.353 137.216  0.00  0.00    +0.000 A 
ATOM     18  C   UNL     1     102.626 123.326 137.323  0.00  0.00    +0.000 A 
ATOM     19  C   UNL     1     103.819 123.153 136.555  0.00  0.00    +0.000 A 
ATOM     20  C   UNL     1     102.996 123.140 136.609  0.00  0.00    +0.000 A 
BRANCH  20  21
ATOM     21  O   UNL     1     102.542 122.940 135.950  0.00  0.00    +0.000 OA
ATOM     22  C   UNL     1     102.788 123.166 135.196  0.00  0.00    +0.000 C 
ENDBRANCH  20  21
ENDBRANCH   6  15
TORSDOF 2
ENDMDL
MODEL 2
REMARK VINA RESULT:      -8.2      5.909      8.043
REMARK  Name = 15489634
REMARK  2 active torsions:
REMARK  status: ('A' for Active; 'I' for Inactive)
REMARK    1  A    between atoms: O_6  and  C_21
REMARK    2  A    between atoms: C_7  and  C_9
REMARK                            x       y       z     vdW  Elec       q    Type
REMARK                         _______ _______ _______ _____ _____    ______ ____
ROOT
ATOM      1  O   UNL     1     102.936 130.499 142.121  0.00  0.00    +0.000 OA
ATOM      2  O   UNL     1     102.676 129.308 139.902  0.00  0.00    +0.000 OA
ATOM      3  O   UNL     1     103.623 128.317 140.349  0.00  0.00    +0.000 OA
ATOM      4  O   UNL     1     103.971 129.859 143.246  0.00  0.00    +0.000 OA
ATOM      5  O   UNL     1     104.820 128.478 142.940  0.00  0.00    +0.000 OA
ATOM      6  C   UNL     1     102.403 130.821 141.530  0.00  0.00    +0.000 C 
ATOM      7  C   UNL     1     102.312 130.419 140.777  0.00  0.00    +0.000 C 
ATOM      8  C   UNL     1     103.286 129.392 141.226  0.00  0.00    +0.000 A 
ATOM      9  C   UNL     1     102.757 129.701 140.623  0.00  0.00    +0.000 C 
ATOM     10  C   UNL     1     103.373 129.778 141.950  0.00  0.00    +0.000 A 
ATOM     11  C   UNL     1     103.710 128.702 141.073  0.00  0.00    +0.000 A 
ATOM     12  C   UNL     1     103.884 129.474 142.521  0.00  0.00    +0.000 A 
ATOM     13  C   UNL     1     104.308 128.783 142.368  0.00  0.00    +0.000 A 
ATOM     14  C   UNL     1     104.221 128.397 141.644  0.00  0.00    +0.000 A 
ENDROOT
BRANCH   6  15
ATOM     15  C   UNL     1     101.980 131.512 141.686  0.00  0.00    +0.000 A 
ATOM     16  C   UNL     1     101.225 131.469 142.016  0.00  0.00    +0.000 A 
ATOM     17  C   UNL     1     102.311 132.247 141.512  0.00  0.00    +0.000 A 
ATOM     18  C   UNL     1     100.802 132.160 142.171  0.00  0.00    +0.000 A 
ATOM     19  C   UNL     1     101.889 132.939 141.667  0.00  0.00    +0.000 A 
ATOM     20  C   UNL     1     101.134 132.894 141.997  0.00  0.00    +0.000 A 
BRANCH  20  21
ATOM     21  O   UNL     1     100.711 133.585 142.153  0.00  0.00    +0.000 OA
ATOM     22  C   UNL     1     100.750 134.221 141.629  0.00  0.00    +0.000 C 
ENDBRANCH  20  21
ENDBRANCH   6  15
TORSDOF 2
ENDMDL
MODEL 3
REMARK VINA RESULT:      -8.0      7.605      8.135
REMARK  Name = 15489634
REMARK  2 active torsions:
REMARK  status: ('A' for Active; 'I' for Inactive)
REMARK    1  A    between atoms: O_6  and  C_21
REMARK    2  A    between atoms: C_7  and  C_9
REMARK                            x       y       z     vdW  Elec       q    Type
REMARK                         _______ _______ _______ _____ _____    ______ ____
ROOT
ATOM      1  O   UNL     1     112.052 125.872 136.356  0.00  0.00    +0.000 OA
ATOM      2  O   UNL     1     111.895 123.410 136.926  0.00  0.00    +0.000 OA
ATOM      3  O   UNL     1     113.329 123.378 137.078  0.00  0.00    +0.000 OA
ATOM      4  O   UNL     1     113.546 126.586 136.337  0.00  0.00    +0.000 OA
ATOM      5  O   UNL     1     114.911 125.724 136.679  0.00  0.00    +0.000 OA
ATOM      6  C   UNL     1     111.282 125.491 136.369  0.00  0.00    +0.000 C 
ATOM      7  C   UNL     1     111.225 124.656 136.562  0.00  0.00    +0.000 C 
ATOM      8  C   UNL     1     112.701 124.610 136.722  0.00  0.00    +0.000 A 
ATOM      9  C   UNL     1     111.939 124.213 136.740  0.00  0.00    +0.000 C 
ATOM     10  C   UNL     1     112.756 125.412 136.536  0.00  0.00    +0.000 A 
ATOM     11  C   UNL     1     113.383 124.180 136.893  0.00  0.00    +0.000 A 
ATOM     12  C   UNL     1     113.492 125.784 136.522  0.00  0.00    +0.000 A 
ATOM     13  C   UNL     1     114.174 125.352 136.693  0.00  0.00    +0.000 A 
ATOM     14  C   UNL     1     114.119 124.550 136.879  0.00  0.00    +0.000 A 
ENDROOT
BRANCH   6  15
ATOM     15  C   UNL     1     110.601 125.925 136.198  0.00  0.00    +0.000 A 
ATOM     16  C   UNL     1     110.194 126.310 136.802  0.00  0.00    +0.000 A 
ATOM     17  C   UNL     1     110.328 125.972 135.421  0.00  0.00    +0.000 A 
ATOM     18  C   UNL     1     109.513 126.744 136.630  0.00  0.00    +0.000 A 
ATOM     19  C   UNL     1     109.647 126.406 135.248  0.00  0.00    +0.000 A 
ATOM     20  C   UNL     1     109.240 126.791 135.853  0.00  0.00    +0.000 A 
BRANCH  20  21
ATOM     21  O   UNL     1     108.559 127.225 135.681  0.00  0.00    +0.000 OA
ATOM     22  C   UNL     1     108.567 128.047 135.742  0.00  0.00    +0.000 C 
ENDBRANCH  20  21
ENDBRANCH   6  15
TORSDOF 2
ENDMDL
MODEL 4
REMARK VINA RESULT:      -8.0      6.783      7.673
REMARK  Name = 15489634
REMARK  2 active torsions:
REMARK  status: ('A' for Active; 'I' for Inactive)
REMARK    1  A    between atoms: O_6  and  C_21
REMARK    2  A    between atoms: C_7  and  C_9
REMARK                            x       y       z     vdW  Elec       q    Type
REMARK                         _______ _______ _______ _____ _____    ______ ____
ROOT
ATOM      1  O   UNL     1     104.427 124.559 145.782  0.00  0.00    +0.000 OA
ATOM      2  O   UNL     1     105.448 124.466 148.097  0.00  0.00    +0.000 OA
ATOM      3  O   UNL     1     106.587 125.197 147.599  0.00  0.00    +0.000 OA
ATOM      4  O   UNL     1     105.267 125.326 144.577  0.00  0.00    +0.000 OA
ATOM      5  O   UNL     1     106.736 126.018 144.865  0.00  0.00    +0.000 OA
ATOM      6  C   UNL     1     104.001 124.164 146.414  0.00  0.00    +0.000 C 
ATOM      7  C   UNL     1     104.345 124.131 147.201  0.00  0.00    +0.000 C 
ATOM      8  C   UNL     1     105.522 124.884 146.700  0.00  0.00    +0.000 A 
ATOM      9  C   UNL     1     105.110 124.493 147.345  0.00  0.00    +0.000 C 
ATOM     10  C   UNL     1     105.192 124.916 145.944  0.00  0.00    +0.000 A 
ATOM     11  C   UNL     1     106.257 125.229 146.844  0.00  0.00    +0.000 A 
ATOM     12  C   UNL     1     105.597 125.293 145.333  0.00  0.00    +0.000 A 
ATOM     13  C   UNL     1     106.331 125.639 145.477  0.00  0.00    +0.000 A 
ATOM     14  C   UNL     1     106.661 125.607 146.233  0.00  0.00    +0.000 A 
ENDROOT
BRANCH   6  15
ATOM     15  C   UNL     1     103.266 123.819 146.268  0.00  0.00    +0.000 A 
ATOM     16  C   UNL     1     103.222 123.084 145.896  0.00  0.00    +0.000 A 
ATOM     17  C   UNL     1     102.575 124.209 146.493  0.00  0.00    +0.000 A 
ATOM     18  C   UNL     1     102.487 122.739 145.749  0.00  0.00    +0.000 A 
ATOM     19  C   UNL     1     101.839 123.864 146.346  0.00  0.00    +0.000 A 
ATOM     20  C   UNL     1     101.796 123.129 145.974  0.00  0.00    +0.000 A 
BRANCH  20  21
ATOM     21  O   UNL     1     101.061 122.784 145.828  0.00  0.00    +0.000 OA
ATOM     22  C   UNL     1     100.737 122.808 145.070  0.00  0.00    +0.000 C 
ENDBRANCH  20  21
ENDBRANCH   6  15
TORSDOF 2
ENDMDL
MODEL 5
REMARK VINA RESULT:      -7.8      7.428      9.423
REMARK  Name = 15489634
REMARK  2 active torsions:
REMARK  status: ('A' for Active; 'I' for Inactive)
REMARK    1  A    between atoms: O_6  and  C_21
REMARK    2  A    between atoms: C_7  and  C_9
REMARK                            x       y       z     vdW  Elec       q    Type
REMARK                         _______ _______ _______ _____ _____    ______ ____
ROOT
ATOM      1  O   UNL     1     104.544 124.013 146.821  0.00  0.00    +0.000 OA
ATOM      2  O   UNL     1     102.714 125.344 147.957  0.00  0.00    +0.000 OA
ATOM      3  O   UNL     1     101.744 124.683 147.118  0.00  0.00    +0.000 OA
ATOM      4  O   UNL     1     104.120 122.943 145.629  0.00  0.00    +0.000 OA
ATOM      5  O   UNL     1     102.545 122.739 145.182  0.00  0.00    +0.000 OA
ATOM      6  C   UNL     1     104.751 124.571 147.440  0.00  0.00    +0.000 C 
ATOM      7  C   UNL     1     104.133 125.024 147.828  0.00  0.00    +0.000 C 
ATOM      8  C   UNL     1     103.125 124.350 146.969  0.00  0.00    +0.000 A 
ATOM      9  C   UNL     1     103.314 124.913 147.591  0.00  0.00    +0.000 C 
ATOM     10  C   UNL     1     103.719 123.915 146.597  0.00  0.00    +0.000 A 
ATOM     11  C   UNL     1     102.338 124.248 146.746  0.00  0.00    +0.000 A 
ATOM     12  C   UNL     1     103.526 123.378 146.001  0.00  0.00    +0.000 A 
ATOM     13  C   UNL     1     102.739 123.277 145.778  0.00  0.00    +0.000 A 
ATOM     14  C   UNL     1     102.145 123.712 146.151  0.00  0.00    +0.000 A 
ENDROOT
BRANCH   6  15
ATOM     15  C   UNL     1     105.540 124.671 147.661  0.00  0.00    +0.000 A 
ATOM     16  C   UNL     1     105.817 124.337 148.363  0.00  0.00    +0.000 A 
ATOM     17  C   UNL     1     106.051 125.105 147.181  0.00  0.00    +0.000 A 
ATOM     18  C   UNL     1     106.606 124.437 148.584  0.00  0.00    +0.000 A 
ATOM     19  C   UNL     1     106.840 125.205 147.402  0.00  0.00    +0.000 A 
ATOM     20  C   UNL     1     107.117 124.871 148.104  0.00  0.00    +0.000 A 
BRANCH  20  21
ATOM     21  O   UNL     1     107.905 124.971 148.325  0.00  0.00    +0.000 OA
ATOM     22  C   UNL     1     108.198 124.589 148.994  0.00  0.00    +0.000 C 
ENDBRANCH  20  21
ENDBRANCH   6  15
TORSDOF 2
ENDMDL
MODEL 6
REMARK VINA RESULT:      -7.8      7.079      7.845
REMARK  Name = 15489634
REMARK  2 active torsions:
REMARK  status: ('A' for Active; 'I' for Inactive)
REMARK    1  A    between atoms: O_6  and  C_21
REMARK    2  A    between atoms: C_7  and  C_9
REMARK                            x       y       z     vdW  Elec       q    Type
REMARK                         _______ _______ _______ _____ _____    ______ ____
ROOT
ATOM      1  O   UNL     1     110.592 127.326 135.779  0.00  0.00    +0.000 OA
ATOM      2  O   UNL     1     108.096 127.375 136.198  0.00  0.00    +0.000 OA
ATOM      3  O   UNL     1     108.074 128.752 135.769  0.00  0.00    +0.000 OA
ATOM      4  O   UNL     1     111.328 128.700 135.218  0.00  0.00    +0.000 OA
ATOM      5  O   UNL     1     110.465 130.078 134.935  0.00  0.00    +0.000 OA
ATOM      6  C   UNL     1     110.200 126.619 136.069  0.00  0.00    +0.000 C 
ATOM      7  C   UNL     1     109.353 126.632 136.213  0.00  0.00    +0.000 C 
ATOM      8  C   UNL     1     109.319 128.050 135.773  0.00  0.00    +0.000 A 
ATOM      9  C   UNL     1     108.909 127.352 136.064  0.00  0.00    +0.000 C 
ATOM     10  C   UNL     1     110.132 128.037 135.635  0.00  0.00    +0.000 A 
ATOM     11  C   UNL     1     108.888 128.739 135.631  0.00  0.00    +0.000 A 
ATOM     12  C   UNL     1     110.514 128.713 135.356  0.00  0.00    +0.000 A 
ATOM     13  C   UNL     1     110.082 129.401 135.215  0.00  0.00    +0.000 A 
ATOM     14  C   UNL     1     109.269 129.414 135.352  0.00  0.00    +0.000 A 
ENDROOT
BRANCH   6  15
ATOM     15  C   UNL     1     110.634 125.931 136.210  0.00  0.00    +0.000 A 
ATOM     16  C   UNL     1     110.913 125.767 136.968  0.00  0.00    +0.000 A 
ATOM     17  C   UNL     1     110.789 125.408 135.592  0.00  0.00    +0.000 A 
ATOM     18  C   UNL     1     111.347 125.080 137.109  0.00  0.00    +0.000 A 
ATOM     19  C   UNL     1     111.223 124.720 135.732  0.00  0.00    +0.000 A 
ATOM     20  C   UNL     1     111.502 124.556 136.491  0.00  0.00    +0.000 A 
BRANCH  20  21
ATOM     21  O   UNL     1     111.936 123.869 136.631  0.00  0.00    +0.000 OA
ATOM     22  C   UNL     1     112.743 123.916 136.795  0.00  0.00    +0.000 C 
ENDBRANCH  20  21
ENDBRANCH   6  15
TORSDOF 2
ENDMDL
MODEL 7
REMARK VINA RESULT:      -7.8      8.995     10.089
REMARK  Name = 15489634
REMARK  2 active torsions:
REMARK  status: ('A' for Active; 'I' for Inactive)
REMARK    1  A    between atoms: O_6  and  C_21
REMARK    2  A    between atoms: C_7  and  C_9
REMARK                            x       y       z     vdW  Elec       q    Type
REMARK                         _______ _______ _______ _____ _____    ______ ____
ROOT
ATOM      1  O   UNL     1     112.808 126.430 136.360  0.00  0.00    +0.000 OA
ATOM      2  O   UNL     1     114.727 125.185 137.446  0.00  0.00    +0.000 OA
ATOM      3  O   UNL     1     113.979 123.959 137.308  0.00  0.00    +0.000 OA
ATOM      4  O   UNL     1     111.472 125.570 135.890  0.00  0.00    +0.000 OA
ATOM      5  O   UNL     1     111.380 123.939 136.120  0.00  0.00    +0.000 OA
ATOM      6  C   UNL     1     113.506 126.865 136.607  0.00  0.00    +0.000 C 
ATOM      7  C   UNL     1     114.159 126.445 136.976  0.00  0.00    +0.000 C 
ATOM      8  C   UNL     1     113.399 125.177 136.839  0.00  0.00    +0.000 A 
ATOM      9  C   UNL     1     114.105 125.596 137.093  0.00  0.00    +0.000 C 
ATOM     10  C   UNL     1     112.772 125.580 136.485  0.00  0.00    +0.000 A 
ATOM     11  C   UNL     1     113.353 124.362 136.953  0.00  0.00    +0.000 A 
ATOM     12  C   UNL     1     112.099 125.167 136.245  0.00  0.00    +0.000 A 
ATOM     13  C   UNL     1     112.054 124.352 136.360  0.00  0.00    +0.000 A 
ATOM     14  C   UNL     1     112.680 123.949 136.714  0.00  0.00    +0.000 A 
ENDROOT
BRANCH   6  15
ATOM     15  C   UNL     1     113.549 127.680 136.492  0.00  0.00    +0.000 A 
ATOM     16  C   UNL     1     113.228 128.195 137.050  0.00  0.00    +0.000 A 
ATOM     17  C   UNL     1     113.915 127.982 135.816  0.00  0.00    +0.000 A 
ATOM     18  C   UNL     1     113.271 129.010 136.935  0.00  0.00    +0.000 A 
ATOM     19  C   UNL     1     113.958 128.798 135.700  0.00  0.00    +0.000 A 
ATOM     20  C   UNL     1     113.636 129.312 136.259  0.00  0.00    +0.000 A 
BRANCH  20  21
ATOM     21  O   UNL     1     113.680 130.128 136.144  0.00  0.00    +0.000 OA
ATOM     22  C   UNL     1     114.323 130.553 136.436  0.00  0.00    +0.000 C 
ENDBRANCH  20  21
ENDBRANCH   6  15
TORSDOF 2
ENDMDL
MODEL 8
REMARK VINA RESULT:      -7.6      8.038      9.812
REMARK  Name = 15489634
REMARK  2 active torsions:
REMARK  status: ('A' for Active; 'I' for Inactive)
REMARK    1  A    between atoms: O_6  and  C_21
REMARK    2  A    between atoms: C_7  and  C_9
REMARK                            x       y       z     vdW  Elec       q    Type
REMARK                         _______ _______ _______ _____ _____    ______ ____
ROOT
ATOM      1  O   UNL     1     112.674 125.987 138.438  0.00  0.00    +0.000 OA
ATOM      2  O   UNL     1     114.853 125.110 137.493  0.00  0.00    +0.000 OA
ATOM      3  O   UNL     1     114.099 124.273 136.592  0.00  0.00    +0.000 OA
ATOM      4  O   UNL     1     111.252 125.408 137.815  0.00  0.00    +0.000 OA
ATOM      5  O   UNL     1     111.241 124.285 136.607  0.00  0.00    +0.000 OA
ATOM      6  C   UNL     1     113.418 126.280 138.752  0.00  0.00    +0.000 C 
ATOM      7  C   UNL     1     114.159 125.984 138.434  0.00  0.00    +0.000 C 
ATOM      8  C   UNL     1     113.393 125.118 137.502  0.00  0.00    +0.000 A 
ATOM      9  C   UNL     1     114.147 125.399 137.805  0.00  0.00    +0.000 C 
ATOM     10  C   UNL     1     112.681 125.402 137.808  0.00  0.00    +0.000 A 
ATOM     11  C   UNL     1     113.387 124.557 136.898  0.00  0.00    +0.000 A 
ATOM     12  C   UNL     1     111.964 125.124 137.510  0.00  0.00    +0.000 A 
ATOM     13  C   UNL     1     111.959 124.563 136.905  0.00  0.00    +0.000 A 
ATOM     14  C   UNL     1     112.671 124.279 136.599  0.00  0.00    +0.000 A 
ENDROOT
BRANCH   6  15
ATOM     15  C   UNL     1     113.420 126.841 139.357  0.00  0.00    +0.000 A 
ATOM     16  C   UNL     1     113.498 126.602 140.142  0.00  0.00    +0.000 A 
ATOM     17  C   UNL     1     113.345 127.642 139.176  0.00  0.00    +0.000 A 
ATOM     18  C   UNL     1     113.500 127.164 140.747  0.00  0.00    +0.000 A 
ATOM     19  C   UNL     1     113.347 128.205 139.780  0.00  0.00    +0.000 A 
ATOM     20  C   UNL     1     113.425 127.965 140.565  0.00  0.00    +0.000 A 
BRANCH  20  21
ATOM     21  O   UNL     1     113.428 128.527 141.170  0.00  0.00    +0.000 OA
ATOM     22  C   UNL     1     112.715 128.818 141.466  0.00  0.00    +0.000 C 
ENDBRANCH  20  21
ENDBRANCH   6  15
TORSDOF 2
ENDMDL
MODEL 9
REMARK VINA RESULT:      -7.6      6.265      8.467
REMARK  Name = 15489634
REMARK  2 active torsions:
REMARK  status: ('A' for Active; 'I' for Inactive)
REMARK    1  A    between atoms: O_6  and  C_21
REMARK    2  A    between atoms: C_7  and  C_9
REMARK                            x       y       z     vdW  Elec       q    Type
REMARK                         _______ _______ _______ _____ _____    ______ ____
ROOT
ATOM      1  O   UNL     1     106.821 125.208 146.811  0.00  0.00    +0.000 OA
ATOM      2  O   UNL     1     104.804 124.603 148.217  0.00  0.00    +0.000 OA
ATOM      3  O   UNL     1     105.688 124.331 149.325  0.00  0.00    +0.000 OA
ATOM      4  O   UNL     1     108.324 125.117 147.502  0.00  0.00    +0.000 OA
ATOM      5  O   UNL     1     108.517 124.645 149.071  0.00  0.00    +0.000 OA
ATOM      6  C   UNL     1     106.037 125.251 146.463  0.00  0.00    +0.000 C 
ATOM      7  C   UNL     1     105.351 125.047 146.937  0.00  0.00    +0.000 C 
ATOM      8  C   UNL     1     106.250 124.764 148.085  0.00  0.00    +0.000 A 
ATOM      9  C   UNL     1     105.457 124.801 147.754  0.00  0.00    +0.000 C 
ATOM     10  C   UNL     1     106.909 124.960 147.629  0.00  0.00    +0.000 A 
ATOM     11  C   UNL     1     106.347 124.528 148.869  0.00  0.00    +0.000 A 
ATOM     12  C   UNL     1     107.665 124.921 147.957  0.00  0.00    +0.000 A 
ATOM     13  C   UNL     1     107.760 124.684 148.742  0.00  0.00    +0.000 A 
ATOM     14  C   UNL     1     107.101 124.488 149.197  0.00  0.00    +0.000 A 
ENDROOT
BRANCH   6  15
ATOM     15  C   UNL     1     105.943 125.488 145.678  0.00  0.00    +0.000 A 
ATOM     16  C   UNL     1     105.872 126.289 145.494  0.00  0.00    +0.000 A 
ATOM     17  C   UNL     1     105.920 124.924 145.077  0.00  0.00    +0.000 A 
ATOM     18  C   UNL     1     105.778 126.525 144.709  0.00  0.00    +0.000 A 
ATOM     19  C   UNL     1     105.826 125.160 144.292  0.00  0.00    +0.000 A 
ATOM     20  C   UNL     1     105.755 125.961 144.108  0.00  0.00    +0.000 A 
BRANCH  20  21
ATOM     21  O   UNL     1     105.662 126.197 143.323  0.00  0.00    +0.000 OA
ATOM     22  C   UNL     1     106.322 126.296 142.840  0.00  0.00    +0.000 C 
ENDBRANCH  20  21
ENDBRANCH   6  15
TORSDOF 2
ENDMDL
MODEL 10
REMARK VINA RESULT:      -7.4      6.678      8.745
REMARK  Name = 15489634
REMARK  2 active torsions:
REMARK  status: ('A' for Active; 'I' for Inactive)
REMARK    1  A    between atoms: O_6  and  C_21
REMARK    2  A    between atoms: C_7  and  C_9
REMARK                            x       y       z     vdW  Elec       q    Type
REMARK                         _______ _______ _______ _____ _____    ______ ____
ROOT
ATOM      1  O   UNL     1     103.014 131.897 141.358  0.00  0.00    +0.000 OA
ATOM      2  O   UNL     1     100.717 132.154 142.394  0.00  0.00    +0.000 OA
ATOM      3  O   UNL     1     100.770 133.565 142.102  0.00  0.00    +0.000 OA
ATOM      4  O   UNL     1     103.763 133.243 140.750  0.00  0.00    +0.000 OA
ATOM      5  O   UNL     1     103.040 134.725 140.811  0.00  0.00    +0.000 OA
ATOM      6  C   UNL     1     102.616 131.205 141.677  0.00  0.00    +0.000 C 
ATOM      7  C   UNL     1     101.837 131.289 142.029  0.00  0.00    +0.000 C 
ATOM      8  C   UNL     1     101.879 132.744 141.734  0.00  0.00    +0.000 A 
ATOM      9  C   UNL     1     101.465 132.063 142.058  0.00  0.00    +0.000 C 
ATOM     10  C   UNL     1     102.627 132.663 141.396  0.00  0.00    +0.000 A 
ATOM     11  C   UNL     1     101.518 133.485 141.764  0.00  0.00    +0.000 A 
ATOM     12  C   UNL     1     103.014 133.323 141.088  0.00  0.00    +0.000 A 
ATOM     13  C   UNL     1     102.653 134.064 141.119  0.00  0.00    +0.000 A 
ATOM     14  C   UNL     1     101.904 134.145 141.457  0.00  0.00    +0.000 A 
ENDROOT
BRANCH   6  15
ATOM     15  C   UNL     1     102.979 130.465 141.645  0.00  0.00    +0.000 A 
ATOM     16  C   UNL     1     102.865 129.977 140.991  0.00  0.00    +0.000 A 
ATOM     17  C   UNL     1     103.458 130.214 142.269  0.00  0.00    +0.000 A 
ATOM     18  C   UNL     1     103.229 129.237 140.959  0.00  0.00    +0.000 A 
ATOM     19  C   UNL     1     103.822 129.474 142.238  0.00  0.00    +0.000 A 
ATOM     20  C   UNL     1     103.707 128.985 141.583  0.00  0.00    +0.000 A 
BRANCH  20  21
ATOM     21  O   UNL     1     104.071 128.246 141.551  0.00  0.00    +0.000 OA
ATOM     22  C   UNL     1     104.869 128.169 141.742  0.00  0.00    +0.000 C 
ENDBRANCH  20  21
ENDBRANCH   6  15
TORSDOF 2
ENDMDL
