MODEL 1
REMARK VINA RESULT:     -10.4      0.000      0.000
REMARK  Name = 44258198
REMARK  7 active torsions:
REMARK  status: ('A' for Active; 'I' for Inactive)
REMARK    1  A    between atoms: O_3  and  C_21
REMARK    2  A    between atoms: O_3  and  C_29
REMARK    3  A    between atoms: O_7  and  C_26
REMARK    4  A    between atoms: O_7  and  C_30
REMARK    5  A    between atoms: O_14  and  C_31
REMARK    6  A    between atoms: C_25  and  C_28
REMARK    7  A    between atoms: C_36  and  C_41
REMARK                            x       y       z     vdW  Elec       q    Type
REMARK                         _______ _______ _______ _____ _____    ______ ____
ROOT
ATOM      1  O   UNL     1     110.227 128.503 136.540  0.00  0.00    +0.000 OA
ATOM      2  O   UNL     1     107.931 129.931 135.521  0.00  0.00    +0.000 OA
ATOM      3  O   UNL     1     107.880 128.508 135.757  0.00  0.00    +0.000 OA
ATOM      4  C   UNL     1     109.973 130.673 136.070  0.00  0.00    +0.000 A 
ATOM      5  C   UNL     1     110.333 129.935 136.321  0.00  0.00    +0.000 A 
ATOM      6  C   UNL     1     109.157 130.675 135.797  0.00  0.00    +0.000 A 
ATOM      7  C   UNL     1     109.874 129.209 136.297  0.00  0.00    +0.000 A 
ATOM      8  C   UNL     1     109.093 129.210 136.036  0.00  0.00    +0.000 A 
ATOM      9  C   UNL     1     108.714 129.939 135.781  0.00  0.00    +0.000 A 
ATOM     10  C   UNL     1     109.797 127.799 136.522  0.00  0.00    +0.000 A 
ATOM     11  C   UNL     1     108.662 128.507 136.018  0.00  0.00    +0.000 A 
ATOM     12  C   UNL     1     109.014 127.801 136.260  0.00  0.00    +0.000 A 
ENDROOT
BRANCH  10  16
ATOM     13  C   UNL     1     110.854 125.683 137.250  0.00  0.00    +0.000 A 
ATOM     14  C   UNL     1     110.358 126.096 137.765  0.00  0.00    +0.000 A 
ATOM     15  C   UNL     1     110.996 125.977 136.492  0.00  0.00    +0.000 A 
ATOM     16  C   UNL     1     110.149 127.094 136.764  0.00  0.00    +0.000 A 
ATOM     17  C   UNL     1     110.006 126.801 137.523  0.00  0.00    +0.000 A 
ATOM     18  C   UNL     1     110.644 126.682 136.250  0.00  0.00    +0.000 A 
BRANCH  14  19
ATOM     19  O   UNL     1     110.215 125.802 138.523  0.00  0.00    +0.000 OA
ATOM     20  C   UNL     1     109.628 126.142 138.992  0.00  0.00    +0.000 C 
ENDBRANCH  14  19
BRANCH  13  21
ATOM     21  O   UNL     1     111.206 124.978 137.493  0.00  0.00    +0.000 OA
BRANCH  21  30
ATOM     22  O   UNL     1     112.532 125.441 137.757  0.00  0.00    +0.000 OA
ATOM     23  O   UNL     1     113.455 123.473 136.574  0.00  0.00    +0.000 OA
ATOM     24  O   UNL     1     114.473 124.591 137.234  0.00  0.00    +0.000 OA
ATOM     25  O   UNL     1     111.822 123.666 136.704  0.00  0.00    +0.000 OA
ATOM     26  C   UNL     1     113.147 124.129 136.969  0.00  0.00    +0.000 C 
ATOM     27  C   UNL     1     113.656 124.688 137.298  0.00  0.00    +0.000 C 
ATOM     28  C   UNL     1     112.331 124.226 137.034  0.00  0.00    +0.000 C 
ATOM     29  C   UNL     1     113.348 125.344 137.693  0.00  0.00    +0.000 C 
ATOM     30  C   UNL     1     112.023 124.882 137.428  0.00  0.00    +0.000 C 
ATOM     31  C   UNL     1     113.858 125.904 138.022  0.00  0.00    +0.000 C 
ENDBRANCH  21  30
ENDBRANCH  13  21
ENDBRANCH  10  16
BRANCH   4  32
ATOM     32  O   UNL     1     110.405 131.375 136.089  0.00  0.00    +0.000 OA
BRANCH  32  41
ATOM     33  O   UNL     1     110.257 131.562 137.498  0.00  0.00    +0.000 OA
ATOM     34  O   UNL     1     110.357 134.015 137.183  0.00  0.00    +0.000 OA
ATOM     35  O   UNL     1     110.175 133.383 138.698  0.00  0.00    +0.000 OA
ATOM     36  O   UNL     1     110.472 133.011 135.880  0.00  0.00    +0.000 OA
ATOM     37  C   UNL     1     110.323 133.197 137.288  0.00  0.00    +0.000 C 
ATOM     38  C   UNL     1     110.233 132.882 138.045  0.00  0.00    +0.000 C 
ATOM     39  C   UNL     1     110.381 132.695 136.636  0.00  0.00    +0.000 C 
ATOM     40  C   UNL     1     110.200 132.064 138.150  0.00  0.00    +0.000 C 
ATOM     41  C   UNL     1     110.348 131.877 136.741  0.00  0.00    +0.000 C 
BRANCH  40  44
ATOM     42  O   UNL     1     110.773 131.545 139.352  0.00  0.00    +0.000 OA
ATOM     43  O   UNL     1     109.353 131.635 139.218  0.00  0.00    +0.000 OA
ATOM     44  C   UNL     1     110.109 131.748 138.906  0.00  0.00    +0.000 C 
ENDBRANCH  40  44
ENDBRANCH  32  41
ENDBRANCH   4  32
TORSDOF 7
ENDMDL
MODEL 2
REMARK VINA RESULT:     -10.2      3.899      7.036
REMARK  Name = 44258198
REMARK  7 active torsions:
REMARK  status: ('A' for Active; 'I' for Inactive)
REMARK    1  A    between atoms: O_3  and  C_21
REMARK    2  A    between atoms: O_3  and  C_29
REMARK    3  A    between atoms: O_7  and  C_26
REMARK    4  A    between atoms: O_7  and  C_30
REMARK    5  A    between atoms: O_14  and  C_31
REMARK    6  A    between atoms: C_25  and  C_28
REMARK    7  A    between atoms: C_36  and  C_41
REMARK                            x       y       z     vdW  Elec       q    Type
REMARK                         _______ _______ _______ _____ _____    ______ ____
ROOT
ATOM      1  O   UNL     1     109.317 125.970 139.757  0.00  0.00    +0.000 OA
ATOM      2  O   UNL     1     112.069 126.522 140.444  0.00  0.00    +0.000 OA
ATOM      3  O   UNL     1     111.095 126.206 141.462  0.00  0.00    +0.000 OA
ATOM      4  C   UNL     1     111.052 126.485 138.448  0.00  0.00    +0.000 A 
ATOM      5  C   UNL     1     110.255 126.283 138.693  0.00  0.00    +0.000 A 
ATOM      6  C   UNL     1     111.671 126.567 139.040  0.00  0.00    +0.000 A 
ATOM      7  C   UNL     1     110.085 126.165 139.528  0.00  0.00    +0.000 A 
ATOM      8  C   UNL     1     110.677 126.243 140.096  0.00  0.00    +0.000 A 
ATOM      9  C   UNL     1     111.482 126.445 139.869  0.00  0.00    +0.000 A 
ATOM     10  C   UNL     1     109.141 125.854 140.555  0.00  0.00    +0.000 A 
ATOM     11  C   UNL     1     110.503 126.127 140.894  0.00  0.00    +0.000 A 
ATOM     12  C   UNL     1     109.735 125.933 141.123  0.00  0.00    +0.000 A 
ENDROOT
BRANCH  10  16
ATOM     13  C   UNL     1     106.837 125.271 141.244  0.00  0.00    +0.000 A 
ATOM     14  C   UNL     1     107.094 126.054 141.284  0.00  0.00    +0.000 A 
ATOM     15  C   UNL     1     107.348 124.683 140.974  0.00  0.00    +0.000 A 
ATOM     16  C   UNL     1     108.373 125.660 140.785  0.00  0.00    +0.000 A 
ATOM     17  C   UNL     1     107.862 126.249 141.055  0.00  0.00    +0.000 A 
ATOM     18  C   UNL     1     108.116 124.877 140.744  0.00  0.00    +0.000 A 
BRANCH  14  19
ATOM     19  O   UNL     1     106.582 126.642 141.555  0.00  0.00    +0.000 OA
ATOM     20  C   UNL     1     106.881 127.285 141.977  0.00  0.00    +0.000 C 
ENDBRANCH  14  19
BRANCH  13  21
ATOM     21  O   UNL     1     106.068 125.076 141.474  0.00  0.00    +0.000 OA
BRANCH  21  30
ATOM     22  O   UNL     1     105.500 124.763 140.201  0.00  0.00    +0.000 OA
ATOM     23  O   UNL     1     104.446 122.744 141.168  0.00  0.00    +0.000 OA
ATOM     24  O   UNL     1     104.229 123.103 139.573  0.00  0.00    +0.000 OA
ATOM     25  O   UNL     1     105.366 123.730 142.119  0.00  0.00    +0.000 OA
ATOM     26  C   UNL     1     104.797 123.417 140.846  0.00  0.00    +0.000 C 
ATOM     27  C   UNL     1     104.689 123.597 140.048  0.00  0.00    +0.000 C 
ATOM     28  C   UNL     1     105.257 123.910 141.320  0.00  0.00    +0.000 C 
ATOM     29  C   UNL     1     105.040 124.270 139.726  0.00  0.00    +0.000 C 
ATOM     30  C   UNL     1     105.609 124.583 140.998  0.00  0.00    +0.000 C 
ATOM     31  C   UNL     1     104.931 124.450 138.928  0.00  0.00    +0.000 C 
ENDBRANCH  21  30
ENDBRANCH  13  21
ENDBRANCH  10  16
BRANCH   4  32
ATOM     32  O   UNL     1     111.225 126.601 137.649  0.00  0.00    +0.000 OA
BRANCH  32  41
ATOM     33  O   UNL     1     111.707 125.285 137.368  0.00  0.00    +0.000 OA
ATOM     34  O   UNL     1     110.587 125.346 135.162  0.00  0.00    +0.000 OA
ATOM     35  O   UNL     1     111.443 124.009 135.618  0.00  0.00    +0.000 OA
ATOM     36  O   UNL     1     110.478 126.640 136.178  0.00  0.00    +0.000 OA
ATOM     37  C   UNL     1     110.960 125.325 135.898  0.00  0.00    +0.000 C 
ATOM     38  C   UNL     1     111.388 124.657 136.125  0.00  0.00    +0.000 C 
ATOM     39  C   UNL     1     110.906 125.973 136.406  0.00  0.00    +0.000 C 
ATOM     40  C   UNL     1     111.761 124.637 136.860  0.00  0.00    +0.000 C 
ATOM     41  C   UNL     1     111.279 125.953 137.141  0.00  0.00    +0.000 C 
BRANCH  40  44
ATOM     42  O   UNL     1     113.002 123.934 136.954  0.00  0.00    +0.000 OA
ATOM     43  O   UNL     1     111.803 123.337 137.452  0.00  0.00    +0.000 OA
ATOM     44  C   UNL     1     112.189 123.970 137.088  0.00  0.00    +0.000 C 
ENDBRANCH  40  44
ENDBRANCH  32  41
ENDBRANCH   4  32
TORSDOF 7
ENDMDL
MODEL 3
REMARK VINA RESULT:     -10.2      7.633      9.211
REMARK  Name = 44258198
REMARK  7 active torsions:
REMARK  status: ('A' for Active; 'I' for Inactive)
REMARK    1  A    between atoms: O_3  and  C_21
REMARK    2  A    between atoms: O_3  and  C_29
REMARK    3  A    between atoms: O_7  and  C_26
REMARK    4  A    between atoms: O_7  and  C_30
REMARK    5  A    between atoms: O_14  and  C_31
REMARK    6  A    between atoms: C_25  and  C_28
REMARK    7  A    between atoms: C_36  and  C_41
REMARK                            x       y       z     vdW  Elec       q    Type
REMARK                         _______ _______ _______ _____ _____    ______ ____
ROOT
ATOM      1  O   UNL     1     104.715 128.704 143.237  0.00  0.00    +0.000 OA
ATOM      2  O   UNL     1     103.775 128.465 140.516  0.00  0.00    +0.000 OA
ATOM      3  O   UNL     1     104.741 127.538 141.055  0.00  0.00    +0.000 OA
ATOM      4  C   UNL     1     103.247 129.952 142.106  0.00  0.00    +0.000 A 
ATOM      5  C   UNL     1     103.743 129.665 142.746  0.00  0.00    +0.000 A 
ATOM      6  C   UNL     1     103.256 129.547 141.348  0.00  0.00    +0.000 A 
ATOM      7  C   UNL     1     104.241 128.976 142.619  0.00  0.00    +0.000 A 
ATOM      8  C   UNL     1     104.250 128.587 141.892  0.00  0.00    +0.000 A 
ATOM      9  C   UNL     1     103.760 128.861 141.240  0.00  0.00    +0.000 A 
ATOM     10  C   UNL     1     105.198 128.044 143.128  0.00  0.00    +0.000 A 
ATOM     11  C   UNL     1     104.732 127.927 141.782  0.00  0.00    +0.000 A 
ATOM     12  C   UNL     1     105.206 127.655 142.400  0.00  0.00    +0.000 A 
ENDROOT
BRANCH  10  16
ATOM     13  C   UNL     1     106.620 127.230 144.983  0.00  0.00    +0.000 A 
ATOM     14  C   UNL     1     106.865 127.873 144.527  0.00  0.00    +0.000 A 
ATOM     15  C   UNL     1     105.902 126.859 144.820  0.00  0.00    +0.000 A 
ATOM     16  C   UNL     1     105.672 127.773 143.747  0.00  0.00    +0.000 A 
ATOM     17  C   UNL     1     106.391 128.145 143.908  0.00  0.00    +0.000 A 
ATOM     18  C   UNL     1     105.428 127.131 144.202  0.00  0.00    +0.000 A 
BRANCH  14  19
ATOM     19  O   UNL     1     107.584 128.244 144.689  0.00  0.00    +0.000 OA
ATOM     20  C   UNL     1     107.875 128.819 144.175  0.00  0.00    +0.000 C 
ENDBRANCH  14  19
BRANCH  13  21
ATOM     21  O   UNL     1     107.095 126.959 145.601  0.00  0.00    +0.000 OA
BRANCH  21  30
ATOM     22  O   UNL     1     106.285 127.369 146.705  0.00  0.00    +0.000 OA
ATOM     23  O   UNL     1     106.709 125.201 147.821  0.00  0.00    +0.000 OA
ATOM     24  O   UNL     1     105.758 126.333 148.553  0.00  0.00    +0.000 OA
ATOM     25  O   UNL     1     107.377 125.513 146.346  0.00  0.00    +0.000 OA
ATOM     26  C   UNL     1     106.567 125.923 147.449  0.00  0.00    +0.000 C 
ATOM     27  C   UNL     1     106.092 126.490 147.814  0.00  0.00    +0.000 C 
ATOM     28  C   UNL     1     106.901 126.080 146.711  0.00  0.00    +0.000 C 
ATOM     29  C   UNL     1     105.951 127.213 147.442  0.00  0.00    +0.000 C 
ATOM     30  C   UNL     1     106.760 126.803 146.339  0.00  0.00    +0.000 C 
ATOM     31  C   UNL     1     105.475 127.779 147.809  0.00  0.00    +0.000 C 
ENDBRANCH  21  30
ENDBRANCH  13  21
ENDBRANCH  10  16
BRANCH   4  32
ATOM     32  O   UNL     1     102.766 130.613 142.218  0.00  0.00    +0.000 OA
BRANCH  32  41
ATOM     33  O   UNL     1     103.785 131.525 141.805  0.00  0.00    +0.000 OA
ATOM     34  O   UNL     1     102.052 133.168 141.156  0.00  0.00    +0.000 OA
ATOM     35  O   UNL     1     103.650 133.532 140.959  0.00  0.00    +0.000 OA
ATOM     36  O   UNL     1     101.610 131.709 141.785  0.00  0.00    +0.000 OA
ATOM     37  C   UNL     1     102.630 132.620 141.372  0.00  0.00    +0.000 C 
ATOM     38  C   UNL     1     103.428 132.802 141.274  0.00  0.00    +0.000 C 
ATOM     39  C   UNL     1     102.409 131.890 141.687  0.00  0.00    +0.000 C 
ATOM     40  C   UNL     1     104.006 132.255 141.490  0.00  0.00    +0.000 C 
ATOM     41  C   UNL     1     102.986 131.343 141.904  0.00  0.00    +0.000 C 
BRANCH  40  44
ATOM     42  O   UNL     1     105.183 132.263 140.680  0.00  0.00    +0.000 OA
ATOM     43  O   UNL     1     105.225 132.791 142.008  0.00  0.00    +0.000 OA
ATOM     44  C   UNL     1     104.804 132.436 141.392  0.00  0.00    +0.000 C 
ENDBRANCH  40  44
ENDBRANCH  32  41
ENDBRANCH   4  32
TORSDOF 7
ENDMDL
MODEL 4
REMARK VINA RESULT:     -10.1      1.986      3.545
REMARK  Name = 44258198
REMARK  7 active torsions:
REMARK  status: ('A' for Active; 'I' for Inactive)
REMARK    1  A    between atoms: O_3  and  C_21
REMARK    2  A    between atoms: O_3  and  C_29
REMARK    3  A    between atoms: O_7  and  C_26
REMARK    4  A    between atoms: O_7  and  C_30
REMARK    5  A    between atoms: O_14  and  C_31
REMARK    6  A    between atoms: C_25  and  C_28
REMARK    7  A    between atoms: C_36  and  C_41
REMARK                            x       y       z     vdW  Elec       q    Type
REMARK                         _______ _______ _______ _____ _____    ______ ____
ROOT
ATOM      1  O   UNL     1     111.884 128.923 138.715  0.00  0.00    +0.000 OA
ATOM      2  O   UNL     1     112.493 130.770 140.852  0.00  0.00    +0.000 OA
ATOM      3  O   UNL     1     113.483 129.839 140.365  0.00  0.00    +0.000 OA
ATOM      4  C   UNL     1     110.601 130.471 139.690  0.00  0.00    +0.000 A 
ATOM      5  C   UNL     1     110.850 129.838 139.165  0.00  0.00    +0.000 A 
ATOM      6  C   UNL     1     111.157 130.790 140.264  0.00  0.00    +0.000 A 
ATOM      7  C   UNL     1     111.651 129.532 139.221  0.00  0.00    +0.000 A 
ATOM      8  C   UNL     1     112.184 129.837 139.771  0.00  0.00    +0.000 A 
ATOM      9  C   UNL     1     111.953 130.471 140.304  0.00  0.00    +0.000 A 
ATOM     10  C   UNL     1     112.649 128.620 138.758  0.00  0.00    +0.000 A 
ATOM     11  C   UNL     1     112.950 129.534 139.816  0.00  0.00    +0.000 A 
ATOM     12  C   UNL     1     113.183 128.926 139.309  0.00  0.00    +0.000 A 
ENDROOT
BRANCH  10  16
ATOM     13  C   UNL     1     113.348 126.796 137.239  0.00  0.00    +0.000 A 
ATOM     14  C   UNL     1     113.363 127.579 136.978  0.00  0.00    +0.000 A 
ATOM     15  C   UNL     1     113.101 126.622 138.006  0.00  0.00    +0.000 A 
ATOM     16  C   UNL     1     112.882 128.012 138.252  0.00  0.00    +0.000 A 
ATOM     17  C   UNL     1     113.130 128.187 137.484  0.00  0.00    +0.000 A 
ATOM     18  C   UNL     1     112.868 127.230 138.513  0.00  0.00    +0.000 A 
BRANCH  14  19
ATOM     19  O   UNL     1     113.610 127.753 136.210  0.00  0.00    +0.000 OA
ATOM     20  C   UNL     1     113.839 128.521 136.016  0.00  0.00    +0.000 C 
ENDBRANCH  14  19
BRANCH  13  21
ATOM     21  O   UNL     1     113.581 126.188 136.732  0.00  0.00    +0.000 OA
BRANCH  21  30
ATOM     22  O   UNL     1     112.325 125.603 136.383  0.00  0.00    +0.000 OA
ATOM     23  O   UNL     1     113.230 123.356 136.889  0.00  0.00    +0.000 OA
ATOM     24  O   UNL     1     111.672 123.520 136.371  0.00  0.00    +0.000 OA
ATOM     25  O   UNL     1     114.185 124.690 137.069  0.00  0.00    +0.000 OA
ATOM     26  C   UNL     1     112.929 124.105 136.720  0.00  0.00    +0.000 C 
ATOM     27  C   UNL     1     112.150 124.188 136.461  0.00  0.00    +0.000 C 
ATOM     28  C   UNL     1     113.405 124.772 136.810  0.00  0.00    +0.000 C 
ATOM     29  C   UNL     1     111.848 124.937 136.293  0.00  0.00    +0.000 C 
ATOM     30  C   UNL     1     113.103 125.521 136.642  0.00  0.00    +0.000 C 
ATOM     31  C   UNL     1     111.069 125.019 136.034  0.00  0.00    +0.000 C 
ENDBRANCH  21  30
ENDBRANCH  13  21
ENDBRANCH  10  16
BRANCH   4  32
ATOM     32  O   UNL     1     109.834 130.772 139.644  0.00  0.00    +0.000 OA
BRANCH  32  41
ATOM     33  O   UNL     1     110.098 131.828 138.718  0.00  0.00    +0.000 OA
ATOM     34  O   UNL     1     107.942 131.378 137.589  0.00  0.00    +0.000 OA
ATOM     35  O   UNL     1     108.926 132.584 137.039  0.00  0.00    +0.000 OA
ATOM     36  O   UNL     1     108.396 130.473 138.890  0.00  0.00    +0.000 OA
ATOM     37  C   UNL     1     108.661 131.528 137.965  0.00  0.00    +0.000 C 
ATOM     38  C   UNL     1     109.153 132.131 137.690  0.00  0.00    +0.000 C 
ATOM     39  C   UNL     1     108.888 131.075 138.616  0.00  0.00    +0.000 C 
ATOM     40  C   UNL     1     109.871 132.281 138.066  0.00  0.00    +0.000 C 
ATOM     41  C   UNL     1     109.607 131.225 138.993  0.00  0.00    +0.000 C 
BRANCH  40  44
ATOM     42  O   UNL     1     110.873 132.744 137.159  0.00  0.00    +0.000 OA
ATOM     43  O   UNL     1     110.345 133.626 138.152  0.00  0.00    +0.000 OA
ATOM     44  C   UNL     1     110.363 132.883 137.792  0.00  0.00    +0.000 C 
ENDBRANCH  40  44
ENDBRANCH  32  41
ENDBRANCH   4  32
TORSDOF 7
ENDMDL
MODEL 5
REMARK VINA RESULT:     -10.0      7.235     10.778
REMARK  Name = 44258198
REMARK  7 active torsions:
REMARK  status: ('A' for Active; 'I' for Inactive)
REMARK    1  A    between atoms: O_3  and  C_21
REMARK    2  A    between atoms: O_3  and  C_29
REMARK    3  A    between atoms: O_7  and  C_26
REMARK    4  A    between atoms: O_7  and  C_30
REMARK    5  A    between atoms: O_14  and  C_31
REMARK    6  A    between atoms: C_25  and  C_28
REMARK    7  A    between atoms: C_36  and  C_41
REMARK                            x       y       z     vdW  Elec       q    Type
REMARK                         _______ _______ _______ _____ _____    ______ ____
ROOT
ATOM      1  O   UNL     1     104.951 127.755 142.391  0.00  0.00    +0.000 OA
ATOM      2  O   UNL     1     107.814 127.600 142.752  0.00  0.00    +0.000 OA
ATOM      3  O   UNL     1     107.181 128.825 142.327  0.00  0.00    +0.000 OA
ATOM      4  C   UNL     1     106.231 126.039 143.031  0.00  0.00    +0.000 A 
ATOM      5  C   UNL     1     105.535 126.497 142.821  0.00  0.00    +0.000 A 
ATOM      6  C   UNL     1     107.006 126.411 143.008  0.00  0.00    +0.000 A 
ATOM      7  C   UNL     1     105.623 127.321 142.591  0.00  0.00    +0.000 A 
ATOM      8  C   UNL     1     106.366 127.677 142.570  0.00  0.00    +0.000 A 
ATOM      9  C   UNL     1     107.074 127.235 142.777  0.00  0.00    +0.000 A 
ATOM     10  C   UNL     1     105.022 128.547 142.169  0.00  0.00    +0.000 A 
ATOM     11  C   UNL     1     106.438 128.469 142.348  0.00  0.00    +0.000 A 
ATOM     12  C   UNL     1     105.766 128.903 142.148  0.00  0.00    +0.000 A 
ENDROOT
BRANCH  10  16
ATOM     13  C   UNL     1     103.006 129.850 141.568  0.00  0.00    +0.000 A 
ATOM     14  C   UNL     1     103.307 129.289 141.042  0.00  0.00    +0.000 A 
ATOM     15  C   UNL     1     103.378 129.976 142.293  0.00  0.00    +0.000 A 
ATOM     16  C   UNL     1     104.350 128.981 141.969  0.00  0.00    +0.000 A 
ATOM     17  C   UNL     1     103.979 128.855 141.243  0.00  0.00    +0.000 A 
ATOM     18  C   UNL     1     104.050 129.541 142.494  0.00  0.00    +0.000 A 
BRANCH  14  19
ATOM     19  O   UNL     1     102.935 129.164 140.317  0.00  0.00    +0.000 OA
ATOM     20  C   UNL     1     102.997 128.430 139.944  0.00  0.00    +0.000 C 
ENDBRANCH  14  19
BRANCH  13  21
ATOM     21  O   UNL     1     102.334 130.285 141.367  0.00  0.00    +0.000 OA
BRANCH  21  30
ATOM     22  O   UNL     1     103.006 131.508 141.058  0.00  0.00    +0.000 OA
ATOM     23  O   UNL     1     101.135 132.787 142.052  0.00  0.00    +0.000 OA
ATOM     24  O   UNL     1     102.430 133.584 141.411  0.00  0.00    +0.000 OA
ATOM     25  O   UNL     1     101.087 131.138 142.030  0.00  0.00    +0.000 OA
ATOM     26  C   UNL     1     101.758 132.361 141.721  0.00  0.00    +0.000 C 
ATOM     27  C   UNL     1     102.406 132.758 141.400  0.00  0.00    +0.000 C 
ATOM     28  C   UNL     1     101.735 131.536 141.709  0.00  0.00    +0.000 C 
ATOM     29  C   UNL     1     103.030 132.332 141.069  0.00  0.00    +0.000 C 
ATOM     30  C   UNL     1     102.359 131.110 141.378  0.00  0.00    +0.000 C 
ATOM     31  C   UNL     1     103.677 132.731 140.749  0.00  0.00    +0.000 C 
ENDBRANCH  21  30
ENDBRANCH  13  21
ENDBRANCH  10  16
BRANCH   4  32
ATOM     32  O   UNL     1     106.156 125.248 143.252  0.00  0.00    +0.000 OA
BRANCH  32  41
ATOM     33  O   UNL     1     106.350 125.428 144.657  0.00  0.00    +0.000 OA
ATOM     34  O   UNL     1     104.617 123.722 145.115  0.00  0.00    +0.000 OA
ATOM     35  O   UNL     1     105.389 124.472 146.367  0.00  0.00    +0.000 OA
ATOM     36  O   UNL     1     105.001 124.110 143.559  0.00  0.00    +0.000 OA
ATOM     37  C   UNL     1     105.195 124.291 144.962  0.00  0.00    +0.000 C 
ATOM     38  C   UNL     1     105.581 124.665 145.588  0.00  0.00    +0.000 C 
ATOM     39  C   UNL     1     105.387 124.485 144.184  0.00  0.00    +0.000 C 
ATOM     40  C   UNL     1     106.158 125.234 145.435  0.00  0.00    +0.000 C 
ATOM     41  C   UNL     1     105.964 125.053 144.031  0.00  0.00    +0.000 C 
BRANCH  40  44
ATOM     42  O   UNL     1     107.255 125.305 146.348  0.00  0.00    +0.000 OA
ATOM     43  O   UNL     1     106.219 126.289 146.397  0.00  0.00    +0.000 OA
ATOM     44  C   UNL     1     106.544 125.609 146.060  0.00  0.00    +0.000 C 
ENDBRANCH  40  44
ENDBRANCH  32  41
ENDBRANCH   4  32
TORSDOF 7
ENDMDL
MODEL 6
REMARK VINA RESULT:     -10.0      1.747      7.000
REMARK  Name = 44258198
REMARK  7 active torsions:
REMARK  status: ('A' for Active; 'I' for Inactive)
REMARK    1  A    between atoms: O_3  and  C_21
REMARK    2  A    between atoms: O_3  and  C_29
REMARK    3  A    between atoms: O_7  and  C_26
REMARK    4  A    between atoms: O_7  and  C_30
REMARK    5  A    between atoms: O_14  and  C_31
REMARK    6  A    between atoms: C_25  and  C_28
REMARK    7  A    between atoms: C_36  and  C_41
REMARK                            x       y       z     vdW  Elec       q    Type
REMARK                         _______ _______ _______ _____ _____    ______ ____
ROOT
ATOM      1  O   UNL     1     110.974 128.092 138.379  0.00  0.00    +0.000 OA
ATOM      2  O   UNL     1     113.525 127.968 139.732  0.00  0.00    +0.000 OA
ATOM      3  O   UNL     1     112.864 129.230 139.501  0.00  0.00    +0.000 OA
ATOM      4  C   UNL     1     112.249 126.330 138.889  0.00  0.00    +0.000 A 
ATOM      5  C   UNL     1     111.595 126.796 138.585  0.00  0.00    +0.000 A 
ATOM      6  C   UNL     1     112.906 126.725 139.279  0.00  0.00    +0.000 A 
ATOM      7  C   UNL     1     111.606 127.651 138.674  0.00  0.00    +0.000 A 
ATOM      8  C   UNL     1     112.235 128.030 139.047  0.00  0.00    +0.000 A 
ATOM      9  C   UNL     1     112.899 127.580 139.359  0.00  0.00    +0.000 A 
ATOM     10  C   UNL     1     110.972 128.914 138.458  0.00  0.00    +0.000 A 
ATOM     11  C   UNL     1     112.234 128.851 139.127  0.00  0.00    +0.000 A 
ATOM     12  C   UNL     1     111.603 129.293 138.832  0.00  0.00    +0.000 A 
ENDROOT
BRANCH  10  16
ATOM     13  C   UNL     1     109.079 130.239 137.574  0.00  0.00    +0.000 A 
ATOM     14  C   UNL     1     109.172 130.145 138.389  0.00  0.00    +0.000 A 
ATOM     15  C   UNL     1     109.617 129.892 137.055  0.00  0.00    +0.000 A 
ATOM     16  C   UNL     1     110.341 129.355 138.163  0.00  0.00    +0.000 A 
ATOM     17  C   UNL     1     109.803 129.703 138.684  0.00  0.00    +0.000 A 
ATOM     18  C   UNL     1     110.249 129.450 137.350  0.00  0.00    +0.000 A 
BRANCH  14  19
ATOM     19  O   UNL     1     108.633 130.492 138.908  0.00  0.00    +0.000 OA
ATOM     20  C   UNL     1     108.695 130.354 139.719  0.00  0.00    +0.000 C 
ENDBRANCH  14  19
BRANCH  13  21
ATOM     21  O   UNL     1     108.447 130.681 137.279  0.00  0.00    +0.000 OA
BRANCH  21  30
ATOM     22  O   UNL     1     109.177 131.766 136.701  0.00  0.00    +0.000 OA
ATOM     23  O   UNL     1     107.717 131.681 134.703  0.00  0.00    +0.000 OA
ATOM     24  O   UNL     1     108.933 132.794 134.791  0.00  0.00    +0.000 OA
ATOM     25  O   UNL     1     107.475 130.625 135.948  0.00  0.00    +0.000 OA
ATOM     26  C   UNL     1     108.204 131.709 135.369  0.00  0.00    +0.000 C 
ATOM     27  C   UNL     1     108.812 132.265 135.414  0.00  0.00    +0.000 C 
ATOM     28  C   UNL     1     108.083 131.182 135.992  0.00  0.00    +0.000 C 
ATOM     29  C   UNL     1     109.298 132.293 136.079  0.00  0.00    +0.000 C 
ATOM     30  C   UNL     1     108.569 131.210 136.657  0.00  0.00    +0.000 C 
ATOM     31  C   UNL     1     109.906 132.850 136.122  0.00  0.00    +0.000 C 
ENDBRANCH  21  30
ENDBRANCH  13  21
ENDBRANCH  10  16
BRANCH   4  32
ATOM     32  O   UNL     1     112.248 125.509 138.808  0.00  0.00    +0.000 OA
BRANCH  32  41
ATOM     33  O   UNL     1     113.311 125.347 137.867  0.00  0.00    +0.000 OA
ATOM     34  O   UNL     1     111.929 123.746 136.581  0.00  0.00    +0.000 OA
ATOM     35  O   UNL     1     113.454 124.119 136.069  0.00  0.00    +0.000 OA
ATOM     36  O   UNL     1     111.327 124.441 137.950  0.00  0.00    +0.000 OA
ATOM     37  C   UNL     1     112.390 124.280 137.010  0.00  0.00    +0.000 C 
ATOM     38  C   UNL     1     113.152 124.466 136.754  0.00  0.00    +0.000 C 
ATOM     39  C   UNL     1     112.089 124.627 137.695  0.00  0.00    +0.000 C 
ATOM     40  C   UNL     1     113.613 124.999 137.183  0.00  0.00    +0.000 C 
ATOM     41  C   UNL     1     112.549 125.161 138.124  0.00  0.00    +0.000 C 
BRANCH  40  44
ATOM     42  O   UNL     1     114.488 125.776 136.362  0.00  0.00    +0.000 OA
ATOM     43  O   UNL     1     115.024 124.780 137.238  0.00  0.00    +0.000 OA
ATOM     44  C   UNL     1     114.374 125.186 136.927  0.00  0.00    +0.000 C 
ENDBRANCH  40  44
ENDBRANCH  32  41
ENDBRANCH   4  32
TORSDOF 7
ENDMDL
MODEL 7
REMARK VINA RESULT:      -9.9      2.853      5.725
REMARK  Name = 44258198
REMARK  7 active torsions:
REMARK  status: ('A' for Active; 'I' for Inactive)
REMARK    1  A    between atoms: O_3  and  C_21
REMARK    2  A    between atoms: O_3  and  C_29
REMARK    3  A    between atoms: O_7  and  C_26
REMARK    4  A    between atoms: O_7  and  C_30
REMARK    5  A    between atoms: O_14  and  C_31
REMARK    6  A    between atoms: C_25  and  C_28
REMARK    7  A    between atoms: C_36  and  C_41
REMARK                            x       y       z     vdW  Elec       q    Type
REMARK                         _______ _______ _______ _____ _____    ______ ____
ROOT
ATOM      1  O   UNL     1     112.005 128.363 138.678  0.00  0.00    +0.000 OA
ATOM      2  O   UNL     1     112.703 126.290 140.566  0.00  0.00    +0.000 OA
ATOM      3  O   UNL     1     111.620 126.111 139.630  0.00  0.00    +0.000 OA
ATOM      4  C   UNL     1     113.602 128.316 140.240  0.00  0.00    +0.000 A 
ATOM      5  C   UNL     1     113.104 128.595 139.598  0.00  0.00    +0.000 A 
ATOM      6  C   UNL     1     113.468 127.534 140.571  0.00  0.00    +0.000 A 
ATOM      7  C   UNL     1     112.479 128.089 139.295  0.00  0.00    +0.000 A 
ATOM      8  C   UNL     1     112.351 127.339 139.612  0.00  0.00    +0.000 A 
ATOM      9  C   UNL     1     112.839 127.042 140.255  0.00  0.00    +0.000 A 
ATOM     10  C   UNL     1     111.402 127.886 138.378  0.00  0.00    +0.000 A 
ATOM     11  C   UNL     1     111.748 126.861 139.313  0.00  0.00    +0.000 A 
ATOM     12  C   UNL     1     111.273 127.135 138.696  0.00  0.00    +0.000 A 
ENDROOT
BRANCH  10  16
ATOM     13  C   UNL     1     109.978 128.708 136.528  0.00  0.00    +0.000 A 
ATOM     14  C   UNL     1     110.689 128.322 136.362  0.00  0.00    +0.000 A 
ATOM     15  C   UNL     1     109.743 128.819 137.311  0.00  0.00    +0.000 A 
ATOM     16  C   UNL     1     110.927 128.160 137.762  0.00  0.00    +0.000 A 
ATOM     17  C   UNL     1     111.164 128.048 136.979  0.00  0.00    +0.000 A 
ATOM     18  C   UNL     1     110.217 128.545 137.928  0.00  0.00    +0.000 A 
BRANCH  14  19
ATOM     19  O   UNL     1     110.924 128.211 135.579  0.00  0.00    +0.000 OA
ATOM     20  C   UNL     1     111.480 127.630 135.395  0.00  0.00    +0.000 C 
ENDBRANCH  14  19
BRANCH  13  21
ATOM     21  O   UNL     1     109.503 128.981 135.911  0.00  0.00    +0.000 OA
BRANCH  21  30
ATOM     22  O   UNL     1     109.700 130.391 136.037  0.00  0.00    +0.000 OA
ATOM     23  O   UNL     1     107.263 130.753 135.809  0.00  0.00    +0.000 OA
ATOM     24  O   UNL     1     108.272 132.042 136.011  0.00  0.00    +0.000 OA
ATOM     25  O   UNL     1     107.878 129.222 135.759  0.00  0.00    +0.000 OA
ATOM     26  C   UNL     1     108.075 130.632 135.885  0.00  0.00    +0.000 C 
ATOM     27  C   UNL     1     108.581 131.276 135.986  0.00  0.00    +0.000 C 
ATOM     28  C   UNL     1     108.383 129.867 135.860  0.00  0.00    +0.000 C 
ATOM     29  C   UNL     1     109.393 131.156 136.062  0.00  0.00    +0.000 C 
ATOM     30  C   UNL     1     109.196 129.747 135.936  0.00  0.00    +0.000 C 
ATOM     31  C   UNL     1     109.898 131.801 136.163  0.00  0.00    +0.000 C 
ENDBRANCH  21  30
ENDBRANCH  13  21
ENDBRANCH  10  16
BRANCH   4  32
ATOM     32  O   UNL     1     114.204 128.795 140.538  0.00  0.00    +0.000 OA
BRANCH  32  41
ATOM     33  O   UNL     1     113.326 129.566 141.360  0.00  0.00    +0.000 OA
ATOM     34  O   UNL     1     114.846 131.509 141.160  0.00  0.00    +0.000 OA
ATOM     35  O   UNL     1     113.461 131.633 142.050  0.00  0.00    +0.000 OA
ATOM     36  O   UNL     1     115.218 130.091 140.405  0.00  0.00    +0.000 OA
ATOM     37  C   UNL     1     114.340 130.862 141.227  0.00  0.00    +0.000 C 
ATOM     38  C   UNL     1     113.647 130.923 141.671  0.00  0.00    +0.000 C 
ATOM     39  C   UNL     1     114.525 130.152 140.849  0.00  0.00    +0.000 C 
ATOM     40  C   UNL     1     113.141 130.276 141.738  0.00  0.00    +0.000 C 
ATOM     41  C   UNL     1     114.019 129.505 140.915  0.00  0.00    +0.000 C 
BRANCH  40  44
ATOM     42  O   UNL     1     112.427 130.049 142.955  0.00  0.00    +0.000 OA
ATOM     43  O   UNL     1     111.777 130.687 141.852  0.00  0.00    +0.000 OA
ATOM     44  C   UNL     1     112.449 130.337 142.182  0.00  0.00    +0.000 C 
ENDBRANCH  40  44
ENDBRANCH  32  41
ENDBRANCH   4  32
TORSDOF 7
ENDMDL
MODEL 8
REMARK VINA RESULT:      -9.9      7.316     10.010
REMARK  Name = 44258198
REMARK  7 active torsions:
REMARK  status: ('A' for Active; 'I' for Inactive)
REMARK    1  A    between atoms: O_3  and  C_21
REMARK    2  A    between atoms: O_3  and  C_29
REMARK    3  A    between atoms: O_7  and  C_26
REMARK    4  A    between atoms: O_7  and  C_30
REMARK    5  A    between atoms: O_14  and  C_31
REMARK    6  A    between atoms: C_25  and  C_28
REMARK    7  A    between atoms: C_36  and  C_41
REMARK                            x       y       z     vdW  Elec       q    Type
REMARK                         _______ _______ _______ _____ _____    ______ ____
ROOT
ATOM      1  O   UNL     1     106.599 126.437 144.197  0.00  0.00    +0.000 OA
ATOM      2  O   UNL     1     105.299 128.566 145.655  0.00  0.00    +0.000 OA
ATOM      3  O   UNL     1     104.995 128.320 144.266  0.00  0.00    +0.000 OA
ATOM      4  C   UNL     1     106.836 127.079 146.324  0.00  0.00    +0.000 A 
ATOM      5  C   UNL     1     106.943 126.641 145.593  0.00  0.00    +0.000 A 
ATOM      6  C   UNL     1     106.278 127.733 146.348  0.00  0.00    +0.000 A 
ATOM      7  C   UNL     1     106.492 126.862 144.896  0.00  0.00    +0.000 A 
ATOM      8  C   UNL     1     105.957 127.489 144.919  0.00  0.00    +0.000 A 
ATOM      9  C   UNL     1     105.837 127.939 145.642  0.00  0.00    +0.000 A 
ATOM     10  C   UNL     1     106.172 126.640 143.521  0.00  0.00    +0.000 A 
ATOM     11  C   UNL     1     105.529 127.692 144.243  0.00  0.00    +0.000 A 
ATOM     12  C   UNL     1     105.637 127.268 143.544  0.00  0.00    +0.000 A 
ENDROOT
BRANCH  10  16
ATOM     13  C   UNL     1     106.495 125.365 141.423  0.00  0.00    +0.000 A 
ATOM     14  C   UNL     1     106.970 126.021 141.586  0.00  0.00    +0.000 A 
ATOM     15  C   UNL     1     105.913 125.136 141.961  0.00  0.00    +0.000 A 
ATOM     16  C   UNL     1     106.280 126.215 142.821  0.00  0.00    +0.000 A 
ATOM     17  C   UNL     1     106.863 126.446 142.285  0.00  0.00    +0.000 A 
ATOM     18  C   UNL     1     105.805 125.561 142.660  0.00  0.00    +0.000 A 
BRANCH  14  19
ATOM     19  O   UNL     1     107.552 126.250 141.048  0.00  0.00    +0.000 OA
ATOM     20  C   UNL     1     108.220 126.655 141.314  0.00  0.00    +0.000 C 
ENDBRANCH  14  19
BRANCH  13  21
ATOM     21  O   UNL     1     106.602 124.941 140.724  0.00  0.00    +0.000 OA
BRANCH  21  30
ATOM     22  O   UNL     1     105.404 125.260 140.014  0.00  0.00    +0.000 OA
ATOM     23  O   UNL     1     105.072 122.863 139.496  0.00  0.00    +0.000 OA
ATOM     24  O   UNL     1     103.984 123.981 138.959  0.00  0.00    +0.000 OA
ATOM     25  O   UNL     1     106.381 123.343 140.379  0.00  0.00    +0.000 OA
ATOM     26  C   UNL     1     105.183 123.662 139.669  0.00  0.00    +0.000 C 
ATOM     27  C   UNL     1     104.639 124.222 139.400  0.00  0.00    +0.000 C 
ATOM     28  C   UNL     1     105.837 123.902 140.110  0.00  0.00    +0.000 C 
ATOM     29  C   UNL     1     104.750 125.021 139.573  0.00  0.00    +0.000 C 
ATOM     30  C   UNL     1     105.947 124.702 140.283  0.00  0.00    +0.000 C 
ATOM     31  C   UNL     1     104.206 125.580 139.304  0.00  0.00    +0.000 C 
ENDBRANCH  21  30
ENDBRANCH  13  21
ENDBRANCH  10  16
BRANCH   4  32
ATOM     32  O   UNL     1     107.265 126.874 146.998  0.00  0.00    +0.000 OA
BRANCH  32  41
ATOM     33  O   UNL     1     106.260 126.076 147.627  0.00  0.00    +0.000 OA
ATOM     34  O   UNL     1     107.995 124.474 148.368  0.00  0.00    +0.000 OA
ATOM     35  O   UNL     1     106.411 124.211 148.750  0.00  0.00    +0.000 OA
ATOM     36  O   UNL     1     108.422 125.805 147.493  0.00  0.00    +0.000 OA
ATOM     37  C   UNL     1     107.417 125.008 148.121  0.00  0.00    +0.000 C 
ATOM     38  C   UNL     1     106.625 124.876 148.312  0.00  0.00    +0.000 C 
ATOM     39  C   UNL     1     107.630 125.674 147.683  0.00  0.00    +0.000 C 
ATOM     40  C   UNL     1     106.046 125.410 148.065  0.00  0.00    +0.000 C 
ATOM     41  C   UNL     1     107.052 126.208 147.436  0.00  0.00    +0.000 C 
BRANCH  40  44
ATOM     42  O   UNL     1     104.787 124.803 147.770  0.00  0.00    +0.000 OA
ATOM     43  O   UNL     1     104.931 125.624 148.932  0.00  0.00    +0.000 OA
ATOM     44  C   UNL     1     105.255 125.279 148.255  0.00  0.00    +0.000 C 
ENDBRANCH  40  44
ENDBRANCH  32  41
ENDBRANCH   4  32
TORSDOF 7
ENDMDL
MODEL 9
REMARK VINA RESULT:      -9.9      3.146      6.796
REMARK  Name = 44258198
REMARK  7 active torsions:
REMARK  status: ('A' for Active; 'I' for Inactive)
REMARK    1  A    between atoms: O_3  and  C_21
REMARK    2  A    between atoms: O_3  and  C_29
REMARK    3  A    between atoms: O_7  and  C_26
REMARK    4  A    between atoms: O_7  and  C_30
REMARK    5  A    between atoms: O_14  and  C_31
REMARK    6  A    between atoms: C_25  and  C_28
REMARK    7  A    between atoms: C_36  and  C_41
REMARK                            x       y       z     vdW  Elec       q    Type
REMARK                         _______ _______ _______ _____ _____    ______ ____
ROOT
ATOM      1  O   UNL     1     113.156 128.693 138.233  0.00  0.00    +0.000 OA
ATOM      2  O   UNL     1     112.407 129.059 135.467  0.00  0.00    +0.000 OA
ATOM      3  O   UNL     1     112.192 130.101 136.442  0.00  0.00    +0.000 OA
ATOM      4  C   UNL     1     113.348 127.303 136.494  0.00  0.00    +0.000 A 
ATOM      5  C   UNL     1     113.395 127.611 137.295  0.00  0.00    +0.000 A 
ATOM      6  C   UNL     1     113.013 127.793 135.871  0.00  0.00    +0.000 A 
ATOM      7  C   UNL     1     113.108 128.403 137.462  0.00  0.00    +0.000 A 
ATOM      8  C   UNL     1     112.786 128.872 136.866  0.00  0.00    +0.000 A 
ATOM      9  C   UNL     1     112.730 128.582 136.058  0.00  0.00    +0.000 A 
ATOM     10  C   UNL     1     112.883 129.452 138.407  0.00  0.00    +0.000 A 
ATOM     11  C   UNL     1     112.513 129.632 137.038  0.00  0.00    +0.000 A 
ATOM     12  C   UNL     1     112.561 129.921 137.809  0.00  0.00    +0.000 A 
ENDROOT
BRANCH  10  16
ATOM     13  C   UNL     1     113.029 130.320 140.720  0.00  0.00    +0.000 A 
ATOM     14  C   UNL     1     113.717 130.128 140.307  0.00  0.00    +0.000 A 
ATOM     15  C   UNL     1     112.293 130.223 140.361  0.00  0.00    +0.000 A 
ATOM     16  C   UNL     1     112.932 129.741 139.178  0.00  0.00    +0.000 A 
ATOM     17  C   UNL     1     113.669 129.838 139.536  0.00  0.00    +0.000 A 
ATOM     18  C   UNL     1     112.244 129.933 139.590  0.00  0.00    +0.000 A 
BRANCH  14  19
ATOM     19  O   UNL     1     114.454 130.226 140.666  0.00  0.00    +0.000 OA
ATOM     20  C   UNL     1     115.094 130.497 140.223  0.00  0.00    +0.000 C 
ENDBRANCH  14  19
BRANCH  13  21
ATOM     21  O   UNL     1     113.077 130.610 141.491  0.00  0.00    +0.000 OA
BRANCH  21  30
ATOM     22  O   UNL     1     112.443 129.516 142.156  0.00  0.00    +0.000 OA
ATOM     23  O   UNL     1     111.259 131.104 143.640  0.00  0.00    +0.000 OA
ATOM     24  O   UNL     1     111.019 129.480 143.810  0.00  0.00    +0.000 OA
ATOM     25  O   UNL     1     112.288 131.669 142.481  0.00  0.00    +0.000 OA
ATOM     26  C   UNL     1     111.654 130.575 143.145  0.00  0.00    +0.000 C 
ATOM     27  C   UNL     1     111.534 129.763 143.230  0.00  0.00    +0.000 C 
ATOM     28  C   UNL     1     112.168 130.856 142.566  0.00  0.00    +0.000 C 
ATOM     29  C   UNL     1     111.929 129.233 142.735  0.00  0.00    +0.000 C 
ATOM     30  C   UNL     1     112.563 130.327 142.071  0.00  0.00    +0.000 C 
ATOM     31  C   UNL     1     111.808 128.422 142.821  0.00  0.00    +0.000 C 
ENDBRANCH  21  30
ENDBRANCH  13  21
ENDBRANCH  10  16
BRANCH   4  32
ATOM     32  O   UNL     1     113.622 126.544 136.323  0.00  0.00    +0.000 OA
BRANCH  32  41
ATOM     33  O   UNL     1     112.332 125.929 136.322  0.00  0.00    +0.000 OA
ATOM     34  O   UNL     1     113.324 123.846 137.217  0.00  0.00    +0.000 OA
ATOM     35  O   UNL     1     111.702 123.926 136.917  0.00  0.00    +0.000 OA
ATOM     36  O   UNL     1     114.283 125.154 136.920  0.00  0.00    +0.000 OA
ATOM     37  C   UNL     1     112.993 124.540 136.919  0.00  0.00    +0.000 C 
ATOM     38  C   UNL     1     112.183 124.580 136.769  0.00  0.00    +0.000 C 
ATOM     39  C   UNL     1     113.473 125.195 136.770  0.00  0.00    +0.000 C 
ATOM     40  C   UNL     1     111.852 125.275 136.471  0.00  0.00    +0.000 C 
ATOM     41  C   UNL     1     113.142 125.889 136.472  0.00  0.00    +0.000 C 
BRANCH  40  44
ATOM     42  O   UNL     1     110.750 125.123 135.573  0.00  0.00    +0.000 OA
ATOM     43  O   UNL     1     110.523 125.549 136.919  0.00  0.00    +0.000 OA
ATOM     44  C   UNL     1     111.042 125.315 136.321  0.00  0.00    +0.000 C 
ENDBRANCH  40  44
ENDBRANCH  32  41
ENDBRANCH   4  32
TORSDOF 7
ENDMDL
MODEL 10
REMARK VINA RESULT:      -9.9      1.860      7.107
REMARK  Name = 44258198
REMARK  7 active torsions:
REMARK  status: ('A' for Active; 'I' for Inactive)
REMARK    1  A    between atoms: O_3  and  C_21
REMARK    2  A    between atoms: O_3  and  C_29
REMARK    3  A    between atoms: O_7  and  C_26
REMARK    4  A    between atoms: O_7  and  C_30
REMARK    5  A    between atoms: O_14  and  C_31
REMARK    6  A    between atoms: C_25  and  C_28
REMARK    7  A    between atoms: C_36  and  C_41
REMARK                            x       y       z     vdW  Elec       q    Type
REMARK                         _______ _______ _______ _____ _____    ______ ____
ROOT
ATOM      1  O   UNL     1     111.884 128.367 138.264  0.00  0.00    +0.000 OA
ATOM      2  O   UNL     1     113.503 127.397 140.452  0.00  0.00    +0.000 OA
ATOM      3  O   UNL     1     113.354 128.811 140.204  0.00  0.00    +0.000 OA
ATOM      4  C   UNL     1     112.319 126.274 138.916  0.00  0.00    +0.000 A 
ATOM      5  C   UNL     1     111.999 126.933 138.467  0.00  0.00    +0.000 A 
ATOM      6  C   UNL     1     112.830 126.429 139.590  0.00  0.00    +0.000 A 
ATOM      7  C   UNL     1     112.194 127.738 138.699  0.00  0.00    +0.000 A 
ATOM      8  C   UNL     1     112.684 127.886 139.345  0.00  0.00    +0.000 A 
ATOM      9  C   UNL     1     113.013 127.239 139.806  0.00  0.00    +0.000 A 
ATOM     10  C   UNL     1     112.063 129.144 138.476  0.00  0.00    +0.000 A 
ATOM     11  C   UNL     1     112.864 128.663 139.558  0.00  0.00    +0.000 A 
ATOM     12  C   UNL     1     112.553 129.292 139.123  0.00  0.00    +0.000 A 
ENDROOT
BRANCH  10  16
ATOM     13  C   UNL     1     111.132 131.030 137.172  0.00  0.00    +0.000 A 
ATOM     14  C   UNL     1     111.944 130.883 137.163  0.00  0.00    +0.000 A 
ATOM     15  C   UNL     1     110.631 130.547 137.615  0.00  0.00    +0.000 A 
ATOM     16  C   UNL     1     111.753 129.772 138.041  0.00  0.00    +0.000 A 
ATOM     17  C   UNL     1     112.255 130.254 137.598  0.00  0.00    +0.000 A 
ATOM     18  C   UNL     1     110.941 129.918 138.050  0.00  0.00    +0.000 A 
BRANCH  14  19
ATOM     19  O   UNL     1     112.445 131.366 136.719  0.00  0.00    +0.000 OA
ATOM     20  C   UNL     1     113.258 131.352 136.858  0.00  0.00    +0.000 C 
ENDBRANCH  14  19
BRANCH  13  21
ATOM     21  O   UNL     1     110.821 131.658 136.737  0.00  0.00    +0.000 OA
BRANCH  21  30
ATOM     22  O   UNL     1     110.228 130.910 135.674  0.00  0.00    +0.000 OA
ATOM     23  O   UNL     1     108.243 132.386 135.743  0.00  0.00    +0.000 OA
ATOM     24  O   UNL     1     108.311 131.145 134.658  0.00  0.00    +0.000 OA
ATOM     25  O   UNL     1     109.498 132.643 136.782  0.00  0.00    +0.000 OA
ATOM     26  C   UNL     1     108.904 131.894 135.720  0.00  0.00    +0.000 C 
ATOM     27  C   UNL     1     108.939 131.274 135.178  0.00  0.00    +0.000 C 
ATOM     28  C   UNL     1     109.532 132.022 136.239  0.00  0.00    +0.000 C 
ATOM     29  C   UNL     1     109.600 130.781 135.155  0.00  0.00    +0.000 C 
ATOM     30  C   UNL     1     110.194 131.530 136.217  0.00  0.00    +0.000 C 
ATOM     31  C   UNL     1     109.634 130.161 134.612  0.00  0.00    +0.000 C 
ENDBRANCH  21  30
ENDBRANCH  13  21
ENDBRANCH  10  16
BRANCH   4  32
ATOM     32  O   UNL     1     112.138 125.498 138.701  0.00  0.00    +0.000 OA
BRANCH  32  41
ATOM     33  O   UNL     1     113.295 125.273 137.893  0.00  0.00    +0.000 OA
ATOM     34  O   UNL     1     111.936 123.927 136.323  0.00  0.00    +0.000 OA
ATOM     35  O   UNL     1     113.546 124.151 136.038  0.00  0.00    +0.000 OA
ATOM     36  O   UNL     1     111.232 124.601 137.654  0.00  0.00    +0.000 OA
ATOM     37  C   UNL     1     112.389 124.376 136.846  0.00  0.00    +0.000 C 
ATOM     38  C   UNL     1     113.194 124.488 136.704  0.00  0.00    +0.000 C 
ATOM     39  C   UNL     1     112.037 124.713 137.512  0.00  0.00    +0.000 C 
ATOM     40  C   UNL     1     113.647 124.936 137.227  0.00  0.00    +0.000 C 
ATOM     41  C   UNL     1     112.490 125.162 138.035  0.00  0.00    +0.000 C 
BRANCH  40  44
ATOM     42  O   UNL     1     115.007 124.557 137.447  0.00  0.00    +0.000 OA
ATOM     43  O   UNL     1     114.701 125.654 136.582  0.00  0.00    +0.000 OA
ATOM     44  C   UNL     1     114.451 125.049 137.086  0.00  0.00    +0.000 C 
ENDBRANCH  40  44
ENDBRANCH  32  41
ENDBRANCH   4  32
TORSDOF 7
ENDMDL
