MODEL 1
REMARK VINA RESULT:      -8.3      0.000      0.000
REMARK  Name = 44257205
REMARK  5 active torsions:
REMARK  status: ('A' for Active; 'I' for Inactive)
REMARK    1  A    between atoms: O_2  and  C_10
REMARK    2  A    between atoms: O_3  and  C_12
REMARK    3  A    between atoms: C_5  and  C_13
REMARK    4  A    between atoms: C_6  and  C_8
REMARK    5  A    between atoms: C_8  and  C_15
REMARK                            x       y       z     vdW  Elec       q    Type
REMARK                         _______ _______ _______ _____ _____    ______ ____
ROOT
ATOM      1  O   UNL     1     112.505 126.426 136.307  0.00  0.00    +0.000 OA
ATOM      2  C   UNL     1     111.752 126.618 135.941  0.00  0.00    +0.000 A 
ATOM      3  C   UNL     1     112.692 125.607 136.488  0.00  0.00    +0.000 C 
ATOM      4  C   UNL     1     111.578 127.406 135.770  0.00  0.00    +0.000 A 
ATOM      5  C   UNL     1     111.206 126.027 135.761  0.00  0.00    +0.000 A 
ATOM      6  C   UNL     1     112.124 124.991 136.300  0.00  0.00    +0.000 C 
ATOM      7  C   UNL     1     110.859 127.603 135.419  0.00  0.00    +0.000 A 
ATOM      8  C   UNL     1     111.375 125.203 135.934  0.00  0.00    +0.000 C 
ATOM      9  C   UNL     1     110.485 126.224 135.409  0.00  0.00    +0.000 A 
ATOM     10  C   UNL     1     110.312 127.012 135.238  0.00  0.00    +0.000 A 
ENDROOT
BRANCH   3  11
ATOM     11  C   UNL     1     113.413 125.412 136.839  0.00  0.00    +0.000 A 
ATOM     12  C   UNL     1     113.530 125.551 137.644  0.00  0.00    +0.000 A 
ATOM     13  C   UNL     1     114.016 125.079 136.386  0.00  0.00    +0.000 A 
ATOM     14  C   UNL     1     114.252 125.357 137.995  0.00  0.00    +0.000 A 
ATOM     15  C   UNL     1     114.737 124.885 136.736  0.00  0.00    +0.000 A 
ATOM     16  C   UNL     1     114.855 125.024 137.541  0.00  0.00    +0.000 A 
ENDBRANCH   3  11
BRANCH   7  17
ATOM     17  O   UNL     1     110.684 128.391 135.247  0.00  0.00    +0.000 OA
ATOM     18  C   UNL     1     109.901 128.629 135.148  0.00  0.00    +0.000 C 
ENDBRANCH   7  17
BRANCH   9  19
ATOM     19  O   UNL     1     109.939 125.632 135.228  0.00  0.00    +0.000 OA
ATOM     20  C   UNL     1     109.403 125.741 134.612  0.00  0.00    +0.000 C 
ENDBRANCH   9  19
BRANCH   4  21
ATOM     21  C   UNL     1     112.124 127.998 135.950  0.00  0.00    +0.000 C 
BRANCH  21  22
ATOM     22  C   UNL     1     112.616 128.299 135.361  0.00  0.00    +0.000 C 
ATOM     23  C   UNL     1     113.201 128.848 135.552  0.00  0.00    +0.000 C 
ATOM     24  C   UNL     1     113.693 129.149 134.962  0.00  0.00    +0.000 C 
ATOM     25  C   UNL     1     113.294 129.096 136.333  0.00  0.00    +0.000 C 
ENDBRANCH  21  22
ENDBRANCH   4  21
TORSDOF 5
ENDMDL
MODEL 2
REMARK VINA RESULT:      -8.1      1.216      3.997
REMARK  Name = 44257205
REMARK  5 active torsions:
REMARK  status: ('A' for Active; 'I' for Inactive)
REMARK    1  A    between atoms: O_2  and  C_10
REMARK    2  A    between atoms: O_3  and  C_12
REMARK    3  A    between atoms: C_5  and  C_13
REMARK    4  A    between atoms: C_6  and  C_8
REMARK    5  A    between atoms: C_8  and  C_15
REMARK                            x       y       z     vdW  Elec       q    Type
REMARK                         _______ _______ _______ _____ _____    ______ ____
ROOT
ATOM      1  O   UNL     1     112.331 126.979 136.255  0.00  0.00    +0.000 OA
ATOM      2  C   UNL     1     112.612 126.180 136.400  0.00  0.00    +0.000 A 
ATOM      3  C   UNL     1     112.891 127.631 136.250  0.00  0.00    +0.000 C 
ATOM      4  C   UNL     1     112.070 125.558 136.403  0.00  0.00    +0.000 A 
ATOM      5  C   UNL     1     113.412 126.031 136.534  0.00  0.00    +0.000 A 
ATOM      6  C   UNL     1     113.724 127.475 136.390  0.00  0.00    +0.000 C 
ATOM      7  C   UNL     1     112.328 124.787 136.541  0.00  0.00    +0.000 A 
ATOM      8  C   UNL     1     113.986 126.669 136.533  0.00  0.00    +0.000 C 
ATOM      9  C   UNL     1     113.671 125.258 136.672  0.00  0.00    +0.000 A 
ATOM     10  C   UNL     1     113.128 124.637 136.675  0.00  0.00    +0.000 A 
ENDROOT
BRANCH   3  11
ATOM     11  C   UNL     1     112.630 128.401 136.113  0.00  0.00    +0.000 A 
ATOM     12  C   UNL     1     112.372 128.869 136.742  0.00  0.00    +0.000 A 
ATOM     13  C   UNL     1     112.627 128.705 135.345  0.00  0.00    +0.000 A 
ATOM     14  C   UNL     1     112.112 129.640 136.603  0.00  0.00    +0.000 A 
ATOM     15  C   UNL     1     112.366 129.474 135.207  0.00  0.00    +0.000 A 
ATOM     16  C   UNL     1     112.108 129.943 135.836  0.00  0.00    +0.000 A 
ENDBRANCH   3  11
BRANCH   7  17
ATOM     17  O   UNL     1     111.786 124.164 136.544  0.00  0.00    +0.000 OA
ATOM     18  C   UNL     1     111.966 123.462 136.937  0.00  0.00    +0.000 C 
ENDBRANCH   7  17
BRANCH   9  19
ATOM     19  O   UNL     1     114.471 125.109 136.806  0.00  0.00    +0.000 OA
ATOM     20  C   UNL     1     114.697 124.571 137.389  0.00  0.00    +0.000 C 
ENDBRANCH   9  19
BRANCH   4  21
ATOM     21  C   UNL     1     111.270 125.707 136.269  0.00  0.00    +0.000 C 
BRANCH  21  22
ATOM     22  C   UNL     1     110.949 125.593 135.518  0.00  0.00    +0.000 C 
ATOM     23  C   UNL     1     110.169 125.811 135.365  0.00  0.00    +0.000 C 
ATOM     24  C   UNL     1     109.849 125.697 134.613  0.00  0.00    +0.000 C 
ATOM     25  C   UNL     1     109.709 126.144 135.963  0.00  0.00    +0.000 C 
ENDBRANCH  21  22
ENDBRANCH   4  21
TORSDOF 5
ENDMDL
MODEL 3
REMARK VINA RESULT:      -8.1      0.802      3.271
REMARK  Name = 44257205
REMARK  5 active torsions:
REMARK  status: ('A' for Active; 'I' for Inactive)
REMARK    1  A    between atoms: O_2  and  C_10
REMARK    2  A    between atoms: O_3  and  C_12
REMARK    3  A    between atoms: C_5  and  C_13
REMARK    4  A    between atoms: C_6  and  C_8
REMARK    5  A    between atoms: C_8  and  C_15
REMARK                            x       y       z     vdW  Elec       q    Type
REMARK                         _______ _______ _______ _____ _____    ______ ____
ROOT
ATOM      1  O   UNL     1     112.832 127.185 136.309  0.00  0.00    +0.000 OA
ATOM      2  C   UNL     1     112.279 126.540 136.185  0.00  0.00    +0.000 A 
ATOM      3  C   UNL     1     112.637 127.972 136.024  0.00  0.00    +0.000 C 
ATOM      4  C   UNL     1     112.471 125.786 136.460  0.00  0.00    +0.000 A 
ATOM      5  C   UNL     1     111.562 126.666 135.796  0.00  0.00    +0.000 A 
ATOM      6  C   UNL     1     111.891 128.103 135.619  0.00  0.00    +0.000 C 
ATOM      7  C   UNL     1     111.948 125.159 136.347  0.00  0.00    +0.000 A 
ATOM      8  C   UNL     1     111.350 127.445 135.504  0.00  0.00    +0.000 C 
ATOM      9  C   UNL     1     111.038 126.038 135.682  0.00  0.00    +0.000 A 
ATOM     10  C   UNL     1     111.231 125.285 135.958  0.00  0.00    +0.000 A 
ENDROOT
BRANCH   3  11
ATOM     11  C   UNL     1     113.163 128.598 136.139  0.00  0.00    +0.000 A 
ATOM     12  C   UNL     1     113.139 129.033 136.839  0.00  0.00    +0.000 A 
ATOM     13  C   UNL     1     113.712 128.788 135.553  0.00  0.00    +0.000 A 
ATOM     14  C   UNL     1     113.666 129.659 136.953  0.00  0.00    +0.000 A 
ATOM     15  C   UNL     1     114.237 129.412 135.667  0.00  0.00    +0.000 A 
ATOM     16  C   UNL     1     114.215 129.849 136.368  0.00  0.00    +0.000 A 
ENDBRANCH   3  11
BRANCH   7  17
ATOM     17  O   UNL     1     112.140 124.406 136.622  0.00  0.00    +0.000 OA
ATOM     18  C   UNL     1     111.545 123.853 136.764  0.00  0.00    +0.000 C 
ENDBRANCH   7  17
BRANCH   9  19
ATOM     19  O   UNL     1     110.321 126.164 135.294  0.00  0.00    +0.000 OA
ATOM     20  C   UNL     1     110.005 125.575 134.812  0.00  0.00    +0.000 C 
ENDBRANCH   9  19
BRANCH   4  21
ATOM     21  C   UNL     1     113.187 125.660 136.849  0.00  0.00    +0.000 C 
BRANCH  21  22
ATOM     22  C   UNL     1     113.836 125.365 136.434  0.00  0.00    +0.000 C 
ATOM     23  C   UNL     1     114.553 125.241 136.822  0.00  0.00    +0.000 C 
ATOM     24  C   UNL     1     115.202 124.945 136.406  0.00  0.00    +0.000 C 
ATOM     25  C   UNL     1     114.622 125.412 137.626  0.00  0.00    +0.000 C 
ENDBRANCH  21  22
ENDBRANCH   4  21
TORSDOF 5
ENDMDL
MODEL 4
REMARK VINA RESULT:      -7.8      2.034      4.153
REMARK  Name = 44257205
REMARK  5 active torsions:
REMARK  status: ('A' for Active; 'I' for Inactive)
REMARK    1  A    between atoms: O_2  and  C_10
REMARK    2  A    between atoms: O_3  and  C_12
REMARK    3  A    between atoms: C_5  and  C_13
REMARK    4  A    between atoms: C_6  and  C_8
REMARK    5  A    between atoms: C_8  and  C_15
REMARK                            x       y       z     vdW  Elec       q    Type
REMARK                         _______ _______ _______ _____ _____    ______ ____
ROOT
ATOM      1  O   UNL     1     111.786 126.263 137.302  0.00  0.00    +0.000 OA
ATOM      2  C   UNL     1     111.965 126.367 138.136  0.00  0.00    +0.000 A 
ATOM      3  C   UNL     1     110.967 126.273 137.040  0.00  0.00    +0.000 C 
ATOM      4  C   UNL     1     112.752 126.357 138.382  0.00  0.00    +0.000 A 
ATOM      5  C   UNL     1     111.362 126.477 138.688  0.00  0.00    +0.000 A 
ATOM      6  C   UNL     1     110.339 126.387 137.615  0.00  0.00    +0.000 C 
ATOM      7  C   UNL     1     112.937 126.456 139.179  0.00  0.00    +0.000 A 
ATOM      8  C   UNL     1     110.538 126.490 138.445  0.00  0.00    +0.000 C 
ATOM      9  C   UNL     1     111.546 126.576 139.487  0.00  0.00    +0.000 A 
ATOM     10  C   UNL     1     112.334 126.566 139.731  0.00  0.00    +0.000 A 
ENDROOT
BRANCH   3  11
ATOM     11  C   UNL     1     110.785 126.174 136.241  0.00  0.00    +0.000 A 
ATOM     12  C   UNL     1     110.789 126.824 135.733  0.00  0.00    +0.000 A 
ATOM     13  C   UNL     1     110.600 125.424 135.951  0.00  0.00    +0.000 A 
ATOM     14  C   UNL     1     110.607 126.723 134.934  0.00  0.00    +0.000 A 
ATOM     15  C   UNL     1     110.418 125.324 135.153  0.00  0.00    +0.000 A 
ATOM     16  C   UNL     1     110.421 125.974 134.644  0.00  0.00    +0.000 A 
ENDBRANCH   3  11
BRANCH   7  17
ATOM     17  O   UNL     1     113.724 126.446 139.425  0.00  0.00    +0.000 OA
ATOM     18  C   UNL     1     113.952 126.865 140.098  0.00  0.00    +0.000 C 
ENDBRANCH   7  17
BRANCH   9  19
ATOM     19  O   UNL     1     110.943 126.685 140.039  0.00  0.00    +0.000 OA
ATOM     20  C   UNL     1     111.105 126.617 140.844  0.00  0.00    +0.000 C 
ENDBRANCH   9  19
BRANCH   4  21
ATOM     21  C   UNL     1     113.355 126.248 137.829  0.00  0.00    +0.000 C 
BRANCH  21  22
ATOM     22  C   UNL     1     113.730 125.515 137.767  0.00  0.00    +0.000 C 
ATOM     23  C   UNL     1     114.279 125.383 137.166  0.00  0.00    +0.000 C 
ATOM     24  C   UNL     1     114.653 124.650 137.104  0.00  0.00    +0.000 C 
ATOM     25  C   UNL     1     114.454 125.982 136.628  0.00  0.00    +0.000 C 
ENDBRANCH  21  22
ENDBRANCH   4  21
TORSDOF 5
ENDMDL
MODEL 5
REMARK VINA RESULT:      -7.8      2.220      3.533
REMARK  Name = 44257205
REMARK  5 active torsions:
REMARK  status: ('A' for Active; 'I' for Inactive)
REMARK    1  A    between atoms: O_2  and  C_10
REMARK    2  A    between atoms: O_3  and  C_12
REMARK    3  A    between atoms: C_5  and  C_13
REMARK    4  A    between atoms: C_6  and  C_8
REMARK    5  A    between atoms: C_8  and  C_15
REMARK                            x       y       z     vdW  Elec       q    Type
REMARK                         _______ _______ _______ _____ _____    ______ ____
ROOT
ATOM      1  O   UNL     1     113.311 127.102 137.875  0.00  0.00    +0.000 OA
ATOM      2  C   UNL     1     113.183 127.799 138.360  0.00  0.00    +0.000 A 
ATOM      3  C   UNL     1     113.506 126.354 138.251  0.00  0.00    +0.000 C 
ATOM      4  C   UNL     1     112.995 128.515 137.993  0.00  0.00    +0.000 A 
ATOM      5  C   UNL     1     113.244 127.761 139.182  0.00  0.00    +0.000 A 
ATOM      6  C   UNL     1     113.570 126.314 139.107  0.00  0.00    +0.000 C 
ATOM      7  C   UNL     1     112.870 129.191 138.448  0.00  0.00    +0.000 A 
ATOM      8  C   UNL     1     113.438 127.023 139.575  0.00  0.00    +0.000 C 
ATOM      9  C   UNL     1     113.118 128.438 139.637  0.00  0.00    +0.000 A 
ATOM     10  C   UNL     1     112.931 129.152 139.270  0.00  0.00    +0.000 A 
ENDROOT
BRANCH   3  11
ATOM     11  C   UNL     1     113.631 125.679 137.794  0.00  0.00    +0.000 A 
ATOM     12  C   UNL     1     112.988 125.247 137.511  0.00  0.00    +0.000 A 
ATOM     13  C   UNL     1     114.400 125.436 137.619  0.00  0.00    +0.000 A 
ATOM     14  C   UNL     1     113.114 124.572 137.053  0.00  0.00    +0.000 A 
ATOM     15  C   UNL     1     114.526 124.761 137.162  0.00  0.00    +0.000 A 
ATOM     16  C   UNL     1     113.883 124.328 136.878  0.00  0.00    +0.000 A 
ENDBRANCH   3  11
BRANCH   7  17
ATOM     17  O   UNL     1     112.683 129.906 138.082  0.00  0.00    +0.000 OA
ATOM     18  C   UNL     1     112.267 130.486 138.495  0.00  0.00    +0.000 C 
ENDBRANCH   7  17
BRANCH   9  19
ATOM     19  O   UNL     1     113.180 128.399 140.459  0.00  0.00    +0.000 OA
ATOM     20  C   UNL     1     113.428 129.060 140.885  0.00  0.00    +0.000 C 
ENDBRANCH   9  19
BRANCH   4  21
ATOM     21  C   UNL     1     112.934 128.553 137.172  0.00  0.00    +0.000 C 
BRANCH  21  22
ATOM     22  C   UNL     1     113.566 128.835 136.723  0.00  0.00    +0.000 C 
ATOM     23  C   UNL     1     113.521 128.835 135.899  0.00  0.00    +0.000 C 
ATOM     24  C   UNL     1     114.154 129.118 135.452  0.00  0.00    +0.000 C 
ATOM     25  C   UNL     1     112.843 128.553 135.524  0.00  0.00    +0.000 C 
ENDBRANCH  21  22
ENDBRANCH   4  21
TORSDOF 5
ENDMDL
MODEL 6
REMARK VINA RESULT:      -7.6      2.126      3.501
REMARK  Name = 44257205
REMARK  5 active torsions:
REMARK  status: ('A' for Active; 'I' for Inactive)
REMARK    1  A    between atoms: O_2  and  C_10
REMARK    2  A    between atoms: O_3  and  C_12
REMARK    3  A    between atoms: C_5  and  C_13
REMARK    4  A    between atoms: C_6  and  C_8
REMARK    5  A    between atoms: C_8  and  C_15
REMARK                            x       y       z     vdW  Elec       q    Type
REMARK                         _______ _______ _______ _____ _____    ______ ____
ROOT
ATOM      1  O   UNL     1     112.600 125.730 137.690  0.00  0.00    +0.000 OA
ATOM      2  C   UNL     1     112.008 125.959 138.268  0.00  0.00    +0.000 A 
ATOM      3  C   UNL     1     113.434 125.826 137.875  0.00  0.00    +0.000 C 
ATOM      4  C   UNL     1     111.209 125.865 138.085  0.00  0.00    +0.000 A 
ATOM      5  C   UNL     1     112.229 126.270 139.000  0.00  0.00    +0.000 A 
ATOM      6  C   UNL     1     113.664 126.150 138.637  0.00  0.00    +0.000 C 
ATOM      7  C   UNL     1     110.631 126.081 138.632  0.00  0.00    +0.000 A 
ATOM      8  C   UNL     1     113.056 126.374 139.203  0.00  0.00    +0.000 C 
ATOM      9  C   UNL     1     111.650 126.487 139.548  0.00  0.00    +0.000 A 
ATOM     10  C   UNL     1     110.852 126.392 139.363  0.00  0.00    +0.000 A 
ENDROOT
BRANCH   3  11
ATOM     11  C   UNL     1     114.009 125.609 137.326  0.00  0.00    +0.000 A 
ATOM     12  C   UNL     1     114.368 124.867 137.375  0.00  0.00    +0.000 A 
ATOM     13  C   UNL     1     114.227 126.133 136.727  0.00  0.00    +0.000 A 
ATOM     14  C   UNL     1     114.944 124.651 136.825  0.00  0.00    +0.000 A 
ATOM     15  C   UNL     1     114.802 125.917 136.178  0.00  0.00    +0.000 A 
ATOM     16  C   UNL     1     115.161 125.175 136.226  0.00  0.00    +0.000 A 
ENDBRANCH   3  11
BRANCH   7  17
ATOM     17  O   UNL     1     109.832 125.986 138.449  0.00  0.00    +0.000 OA
ATOM     18  C   UNL     1     109.260 126.080 139.035  0.00  0.00    +0.000 C 
ENDBRANCH   7  17
BRANCH   9  19
ATOM     19  O   UNL     1     111.871 126.798 140.279  0.00  0.00    +0.000 OA
ATOM     20  C   UNL     1     111.357 126.745 140.922  0.00  0.00    +0.000 C 
ENDBRANCH   9  19
BRANCH   4  21
ATOM     21  C   UNL     1     110.988 125.553 137.353  0.00  0.00    +0.000 C 
BRANCH  21  22
ATOM     22  C   UNL     1     110.714 126.054 136.757  0.00  0.00    +0.000 C 
ATOM     23  C   UNL     1     110.581 125.758 135.999  0.00  0.00    +0.000 C 
ATOM     24  C   UNL     1     110.307 126.259 135.403  0.00  0.00    +0.000 C 
ATOM     25  C   UNL     1     110.721 124.962 135.836  0.00  0.00    +0.000 C 
ENDBRANCH  21  22
ENDBRANCH   4  21
TORSDOF 5
ENDMDL
MODEL 7
REMARK VINA RESULT:      -7.6      2.235      3.780
REMARK  Name = 44257205
REMARK  5 active torsions:
REMARK  status: ('A' for Active; 'I' for Inactive)
REMARK    1  A    between atoms: O_2  and  C_10
REMARK    2  A    between atoms: O_3  and  C_12
REMARK    3  A    between atoms: C_5  and  C_13
REMARK    4  A    between atoms: C_6  and  C_8
REMARK    5  A    between atoms: C_8  and  C_15
REMARK                            x       y       z     vdW  Elec       q    Type
REMARK                         _______ _______ _______ _____ _____    ______ ____
ROOT
ATOM      1  O   UNL     1     113.316 127.035 137.883  0.00  0.00    +0.000 OA
ATOM      2  C   UNL     1     113.172 127.882 137.908  0.00  0.00    +0.000 A 
ATOM      3  C   UNL     1     113.477 126.655 137.129  0.00  0.00    +0.000 C 
ATOM      4  C   UNL     1     113.018 128.242 138.634  0.00  0.00    +0.000 A 
ATOM      5  C   UNL     1     113.185 128.334 137.218  0.00  0.00    +0.000 A 
ATOM      6  C   UNL     1     113.491 127.126 136.411  0.00  0.00    +0.000 C 
ATOM      7  C   UNL     1     112.878 129.053 138.671  0.00  0.00    +0.000 A 
ATOM      8  C   UNL     1     113.344 127.972 136.456  0.00  0.00    +0.000 C 
ATOM      9  C   UNL     1     113.045 129.147 137.255  0.00  0.00    +0.000 A 
ATOM     10  C   UNL     1     112.891 129.506 137.981  0.00  0.00    +0.000 A 
ENDROOT
BRANCH   3  11
ATOM     11  C   UNL     1     113.617 125.842 137.095  0.00  0.00    +0.000 A 
ATOM     12  C   UNL     1     112.987 125.319 137.001  0.00  0.00    +0.000 A 
ATOM     13  C   UNL     1     114.388 125.554 137.155  0.00  0.00    +0.000 A 
ATOM     14  C   UNL     1     113.128 124.506 136.967  0.00  0.00    +0.000 A 
ATOM     15  C   UNL     1     114.528 124.742 137.121  0.00  0.00    +0.000 A 
ATOM     16  C   UNL     1     113.898 124.217 137.027  0.00  0.00    +0.000 A 
ENDBRANCH   3  11
BRANCH   7  17
ATOM     17  O   UNL     1     112.724 129.414 139.397  0.00  0.00    +0.000 OA
ATOM     18  C   UNL     1     112.301 130.121 139.426  0.00  0.00    +0.000 C 
ENDBRANCH   7  17
BRANCH   9  19
ATOM     19  O   UNL     1     113.058 129.600 136.565  0.00  0.00    +0.000 OA
ATOM     20  C   UNL     1     113.247 130.401 136.602  0.00  0.00    +0.000 C 
ENDBRANCH   9  19
BRANCH   4  21
ATOM     21  C   UNL     1     113.005 127.789 139.324  0.00  0.00    +0.000 C 
BRANCH  21  22
ATOM     22  C   UNL     1     113.673 127.751 139.805  0.00  0.00    +0.000 C 
ATOM     23  C   UNL     1     113.675 127.264 140.471  0.00  0.00    +0.000 C 
ATOM     24  C   UNL     1     114.344 127.226 140.952  0.00  0.00    +0.000 C 
ATOM     25  C   UNL     1     113.009 126.815 140.655  0.00  0.00    +0.000 C 
ENDBRANCH  21  22
ENDBRANCH   4  21
TORSDOF 5
ENDMDL
MODEL 8
REMARK VINA RESULT:      -7.6      1.039      3.612
REMARK  Name = 44257205
REMARK  5 active torsions:
REMARK  status: ('A' for Active; 'I' for Inactive)
REMARK    1  A    between atoms: O_2  and  C_10
REMARK    2  A    between atoms: O_3  and  C_12
REMARK    3  A    between atoms: C_5  and  C_13
REMARK    4  A    between atoms: C_6  and  C_8
REMARK    5  A    between atoms: C_8  and  C_15
REMARK                            x       y       z     vdW  Elec       q    Type
REMARK                         _______ _______ _______ _____ _____    ______ ____
ROOT
ATOM      1  O   UNL     1     111.547 126.939 136.098  0.00  0.00    +0.000 OA
ATOM      2  C   UNL     1     112.026 126.258 136.311  0.00  0.00    +0.000 A 
ATOM      3  C   UNL     1     110.756 126.820 135.785  0.00  0.00    +0.000 C 
ATOM      4  C   UNL     1     112.785 126.378 136.611  0.00  0.00    +0.000 A 
ATOM      5  C   UNL     1     111.736 125.491 136.219  0.00  0.00    +0.000 A 
ATOM      6  C   UNL     1     110.454 126.021 135.689  0.00  0.00    +0.000 C 
ATOM      7  C   UNL     1     113.254 125.733 136.819  0.00  0.00    +0.000 A 
ATOM      8  C   UNL     1     110.947 125.352 135.908  0.00  0.00    +0.000 C 
ATOM      9  C   UNL     1     112.205 124.844 136.427  0.00  0.00    +0.000 A 
ATOM     10  C   UNL     1     112.963 124.966 136.727  0.00  0.00    +0.000 A 
ENDROOT
BRANCH   3  11
ATOM     11  C   UNL     1     110.289 127.468 135.577  0.00  0.00    +0.000 A 
ATOM     12  C   UNL     1     109.768 127.794 136.128  0.00  0.00    +0.000 A 
ATOM     13  C   UNL     1     110.343 127.790 134.820  0.00  0.00    +0.000 A 
ATOM     14  C   UNL     1     109.301 128.442 135.920  0.00  0.00    +0.000 A 
ATOM     15  C   UNL     1     109.877 128.437 134.612  0.00  0.00    +0.000 A 
ATOM     16  C   UNL     1     109.355 128.764 135.162  0.00  0.00    +0.000 A 
ENDBRANCH   3  11
BRANCH   7  17
ATOM     17  O   UNL     1     114.013 125.853 137.119  0.00  0.00    +0.000 OA
ATOM     18  C   UNL     1     114.398 125.246 137.523  0.00  0.00    +0.000 C 
ENDBRANCH   7  17
BRANCH   9  19
ATOM     19  O   UNL     1     111.915 124.078 136.335  0.00  0.00    +0.000 OA
ATOM     20  C   UNL     1     112.195 123.471 136.817  0.00  0.00    +0.000 C 
ENDBRANCH   9  19
BRANCH   4  21
ATOM     21  C   UNL     1     113.075 127.145 136.703  0.00  0.00    +0.000 C 
BRANCH  21  22
ATOM     22  C   UNL     1     113.566 127.473 136.127  0.00  0.00    +0.000 C 
ATOM     23  C   UNL     1     113.793 128.264 136.178  0.00  0.00    +0.000 C 
ATOM     24  C   UNL     1     114.284 128.591 135.601  0.00  0.00    +0.000 C 
ATOM     25  C   UNL     1     113.528 128.728 136.806  0.00  0.00    +0.000 C 
ENDBRANCH  21  22
ENDBRANCH   4  21
TORSDOF 5
ENDMDL
MODEL 9
REMARK VINA RESULT:      -7.4      1.222      3.077
REMARK  Name = 44257205
REMARK  5 active torsions:
REMARK  status: ('A' for Active; 'I' for Inactive)
REMARK    1  A    between atoms: O_2  and  C_10
REMARK    2  A    between atoms: O_3  and  C_12
REMARK    3  A    between atoms: C_5  and  C_13
REMARK    4  A    between atoms: C_6  and  C_8
REMARK    5  A    between atoms: C_8  and  C_15
REMARK                            x       y       z     vdW  Elec       q    Type
REMARK                         _______ _______ _______ _____ _____    ______ ____
ROOT
ATOM      1  O   UNL     1     112.291 127.973 135.829  0.00  0.00    +0.000 OA
ATOM      2  C   UNL     1     111.878 127.220 135.816  0.00  0.00    +0.000 A 
ATOM      3  C   UNL     1     113.078 128.018 136.171  0.00  0.00    +0.000 C 
ATOM      4  C   UNL     1     111.122 127.181 135.487  0.00  0.00    +0.000 A 
ATOM      5  C   UNL     1     112.227 126.540 136.127  0.00  0.00    +0.000 A 
ATOM      6  C   UNL     1     113.442 127.310 136.494  0.00  0.00    +0.000 C 
ATOM      7  C   UNL     1     110.715 126.464 135.468  0.00  0.00    +0.000 A 
ATOM      8  C   UNL     1     113.013 126.566 136.472  0.00  0.00    +0.000 C 
ATOM      9  C   UNL     1     111.820 125.821 136.108  0.00  0.00    +0.000 A 
ATOM     10  C   UNL     1     111.064 125.784 135.779  0.00  0.00    +0.000 A 
ENDROOT
BRANCH   3  11
ATOM     11  C   UNL     1     113.483 128.737 136.188  0.00  0.00    +0.000 A 
ATOM     12  C   UNL     1     113.940 128.969 135.542  0.00  0.00    +0.000 A 
ATOM     13  C   UNL     1     113.430 129.224 136.852  0.00  0.00    +0.000 A 
ATOM     14  C   UNL     1     114.344 129.688 135.560  0.00  0.00    +0.000 A 
ATOM     15  C   UNL     1     113.834 129.943 136.870  0.00  0.00    +0.000 A 
ATOM     16  C   UNL     1     114.291 130.176 136.224  0.00  0.00    +0.000 A 
ENDBRANCH   3  11
BRANCH   7  17
ATOM     17  O   UNL     1     109.960 126.426 135.139  0.00  0.00    +0.000 OA
ATOM     18  C   UNL     1     109.709 125.739 134.759  0.00  0.00    +0.000 C 
ENDBRANCH   7  17
BRANCH   9  19
ATOM     19  O   UNL     1     112.169 125.141 136.419  0.00  0.00    +0.000 OA
ATOM     20  C   UNL     1     111.696 124.517 136.676  0.00  0.00    +0.000 C 
ENDBRANCH   9  19
BRANCH   4  21
ATOM     21  C   UNL     1     110.773 127.861 135.176  0.00  0.00    +0.000 C 
BRANCH  21  22
ATOM     22  C   UNL     1     110.200 128.266 135.610  0.00  0.00    +0.000 C 
ATOM     23  C   UNL     1     109.896 128.980 135.328  0.00  0.00    +0.000 C 
ATOM     24  C   UNL     1     109.323 129.384 135.763  0.00  0.00    +0.000 C 
ATOM     25  C   UNL     1     110.165 129.288 134.612  0.00  0.00    +0.000 C 
ENDBRANCH  21  22
ENDBRANCH   4  21
TORSDOF 5
ENDMDL
MODEL 10
REMARK VINA RESULT:      -6.6      1.081      2.818
REMARK  Name = 44257205
REMARK  5 active torsions:
REMARK  status: ('A' for Active; 'I' for Inactive)
REMARK    1  A    between atoms: O_2  and  C_10
REMARK    2  A    between atoms: O_3  and  C_12
REMARK    3  A    between atoms: C_5  and  C_13
REMARK    4  A    between atoms: C_6  and  C_8
REMARK    5  A    between atoms: C_8  and  C_15
REMARK                            x       y       z     vdW  Elec       q    Type
REMARK                         _______ _______ _______ _____ _____    ______ ____
ROOT
ATOM      1  O   UNL     1     112.625 127.105 136.477  0.00  0.00    +0.000 OA
ATOM      2  C   UNL     1     112.252 127.855 136.287  0.00  0.00    +0.000 A 
ATOM      3  C   UNL     1     113.458 127.087 136.686  0.00  0.00    +0.000 C 
ATOM      4  C   UNL     1     111.451 127.866 136.087  0.00  0.00    +0.000 A 
ATOM      5  C   UNL     1     112.683 128.558 136.302  0.00  0.00    +0.000 A 
ATOM      6  C   UNL     1     113.907 127.819 136.702  0.00  0.00    +0.000 C 
ATOM      7  C   UNL     1     111.082 128.580 135.903  0.00  0.00    +0.000 A 
ATOM      8  C   UNL     1     113.516 128.560 136.509  0.00  0.00    +0.000 C 
ATOM      9  C   UNL     1     112.313 129.273 136.118  0.00  0.00    +0.000 A 
ATOM     10  C   UNL     1     111.513 129.283 135.918  0.00  0.00    +0.000 A 
ENDROOT
BRANCH   3  11
ATOM     11  C   UNL     1     113.825 126.371 136.870  0.00  0.00    +0.000 A 
ATOM     12  C   UNL     1     113.801 126.081 137.642  0.00  0.00    +0.000 A 
ATOM     13  C   UNL     1     114.217 125.945 136.281  0.00  0.00    +0.000 A 
ATOM     14  C   UNL     1     114.168 125.365 137.825  0.00  0.00    +0.000 A 
ATOM     15  C   UNL     1     114.584 125.230 136.465  0.00  0.00    +0.000 A 
ATOM     16  C   UNL     1     114.560 124.939 137.237  0.00  0.00    +0.000 A 
ENDBRANCH   3  11
BRANCH   7  17
ATOM     17  O   UNL     1     110.281 128.592 135.703  0.00  0.00    +0.000 OA
ATOM     18  C   UNL     1     109.874 129.308 135.670  0.00  0.00    +0.000 C 
ENDBRANCH   7  17
BRANCH   9  19
ATOM     19  O   UNL     1     112.744 129.976 136.133  0.00  0.00    +0.000 OA
ATOM     20  C   UNL     1     112.422 130.649 136.485  0.00  0.00    +0.000 C 
ENDBRANCH   9  19
BRANCH   4  21
ATOM     21  C   UNL     1     111.020 127.163 136.072  0.00  0.00    +0.000 C 
BRANCH  21  22
ATOM     22  C   UNL     1     110.821 126.816 135.350  0.00  0.00    +0.000 C 
ATOM     23  C   UNL     1     110.448 126.081 135.334  0.00  0.00    +0.000 C 
ATOM     24  C   UNL     1     110.249 125.735 134.612  0.00  0.00    +0.000 C 
ATOM     25  C   UNL     1     110.274 125.692 136.040  0.00  0.00    +0.000 C 
ENDBRANCH  21  22
ENDBRANCH   4  21
TORSDOF 5
ENDMDL
