MODEL 1
REMARK VINA RESULT:      -8.1      0.000      0.000
REMARK  Name = 44257395
REMARK  3 active torsions:
REMARK  status: ('A' for Active; 'I' for Inactive)
REMARK    1  A    between atoms: O_3  and  C_13
REMARK    2  A    between atoms: O_4  and  C_14
REMARK    3  A    between atoms: C_7  and  C_9
REMARK                            x       y       z     vdW  Elec       q    Type
REMARK                         _______ _______ _______ _____ _____    ______ ____
ROOT
ATOM      1  O   UNL     1     105.822 125.218 146.108  0.00  0.00    +0.000 OA
ATOM      2  O   UNL     1     104.783 124.282 148.150  0.00  0.00    +0.000 OA
ATOM      3  O   UNL     1     108.371 125.465 147.494  0.00  0.00    +0.000 OA
ATOM      4  C   UNL     1     104.678 124.691 146.785  0.00  0.00    +0.000 C 
ATOM      5  C   UNL     1     105.025 125.003 146.105  0.00  0.00    +0.000 C 
ATOM      6  C   UNL     1     105.129 124.594 147.470  0.00  0.00    +0.000 C 
ATOM      7  C   UNL     1     105.925 124.808 147.473  0.00  0.00    +0.000 A 
ATOM      8  C   UNL     1     106.272 125.120 146.793  0.00  0.00    +0.000 A 
ATOM      9  C   UNL     1     106.384 124.702 148.193  0.00  0.00    +0.000 A 
ATOM     10  C   UNL     1     107.101 125.348 146.784  0.00  0.00    +0.000 A 
ATOM     11  C   UNL     1     107.214 124.924 148.203  0.00  0.00    +0.000 A 
ATOM     12  C   UNL     1     107.574 125.249 147.494  0.00  0.00    +0.000 A 
ENDROOT
BRANCH   4  14
ATOM     13  O   UNL     1     101.492 123.833 146.770  0.00  0.00    +0.000 OA
ATOM     14  C   UNL     1     103.882 124.477 146.781  0.00  0.00    +0.000 A 
ATOM     15  C   UNL     1     103.635 123.813 146.357  0.00  0.00    +0.000 A 
ATOM     16  C   UNL     1     103.332 124.926 147.202  0.00  0.00    +0.000 A 
ATOM     17  C   UNL     1     102.839 123.599 146.354  0.00  0.00    +0.000 A 
ATOM     18  C   UNL     1     102.535 124.711 147.198  0.00  0.00    +0.000 A 
ATOM     19  C   UNL     1     102.289 124.048 146.774  0.00  0.00    +0.000 A 
BRANCH  15  20
ATOM     20  O   UNL     1     104.185 123.364 145.937  0.00  0.00    +0.000 OA
ATOM     21  C   UNL     1     103.932 122.739 145.463  0.00  0.00    +0.000 C 
ENDBRANCH  15  20
ENDBRANCH   4  14
BRANCH   9  22
ATOM     22  O   UNL     1     106.029 124.390 148.869  0.00  0.00    +0.000 OA
ATOM     23  C   UNL     1     106.465 124.314 149.565  0.00  0.00    +0.000 C 
ENDBRANCH   9  22
TORSDOF 3
ENDMDL
MODEL 2
REMARK VINA RESULT:      -7.8     11.542     12.854
REMARK  Name = 44257395
REMARK  3 active torsions:
REMARK  status: ('A' for Active; 'I' for Inactive)
REMARK    1  A    between atoms: O_3  and  C_13
REMARK    2  A    between atoms: O_4  and  C_14
REMARK    3  A    between atoms: C_7  and  C_9
REMARK                            x       y       z     vdW  Elec       q    Type
REMARK                         _______ _______ _______ _____ _____    ______ ____
ROOT
ATOM      1  O   UNL     1     112.885 126.392 136.355  0.00  0.00    +0.000 OA
ATOM      2  O   UNL     1     111.223 124.560 136.273  0.00  0.00    +0.000 OA
ATOM      3  O   UNL     1     114.907 124.541 137.338  0.00  0.00    +0.000 OA
ATOM      4  C   UNL     1     111.561 125.934 136.073  0.00  0.00    +0.000 C 
ATOM      5  C   UNL     1     112.115 126.544 136.100  0.00  0.00    +0.000 C 
ATOM      6  C   UNL     1     111.777 125.171 136.300  0.00  0.00    +0.000 C 
ATOM      7  C   UNL     1     112.546 125.018 136.555  0.00  0.00    +0.000 A 
ATOM      8  C   UNL     1     113.100 125.629 136.582  0.00  0.00    +0.000 A 
ATOM      9  C   UNL     1     112.759 124.219 136.789  0.00  0.00    +0.000 A 
ATOM     10  C   UNL     1     113.906 125.482 136.846  0.00  0.00    +0.000 A 
ATOM     11  C   UNL     1     113.559 124.054 137.055  0.00  0.00    +0.000 A 
ATOM     12  C   UNL     1     114.136 124.690 137.084  0.00  0.00    +0.000 A 
ENDROOT
BRANCH   4  14
ATOM     13  O   UNL     1     108.482 126.544 135.053  0.00  0.00    +0.000 OA
ATOM     14  C   UNL     1     110.792 126.086 135.818  0.00  0.00    +0.000 A 
ATOM     15  C   UNL     1     110.270 126.501 136.305  0.00  0.00    +0.000 A 
ATOM     16  C   UNL     1     110.544 125.825 135.076  0.00  0.00    +0.000 A 
ATOM     17  C   UNL     1     109.501 126.653 136.050  0.00  0.00    +0.000 A 
ATOM     18  C   UNL     1     109.773 125.977 134.821  0.00  0.00    +0.000 A 
ATOM     19  C   UNL     1     109.252 126.391 135.308  0.00  0.00    +0.000 A 
BRANCH  15  20
ATOM     20  O   UNL     1     110.518 126.762 137.047  0.00  0.00    +0.000 OA
ATOM     21  C   UNL     1     110.000 127.185 137.530  0.00  0.00    +0.000 C 
ENDBRANCH  15  20
ENDBRANCH   4  14
BRANCH   9  22
ATOM     22  O   UNL     1     112.198 123.615 136.758  0.00  0.00    +0.000 OA
ATOM     23  C   UNL     1     112.270 122.961 137.257  0.00  0.00    +0.000 C 
ENDBRANCH   9  22
TORSDOF 3
ENDMDL
MODEL 3
REMARK VINA RESULT:      -7.8      2.332      4.077
REMARK  Name = 44257395
REMARK  3 active torsions:
REMARK  status: ('A' for Active; 'I' for Inactive)
REMARK    1  A    between atoms: O_3  and  C_13
REMARK    2  A    between atoms: O_4  and  C_14
REMARK    3  A    between atoms: C_7  and  C_9
REMARK                            x       y       z     vdW  Elec       q    Type
REMARK                         _______ _______ _______ _____ _____    ______ ____
ROOT
ATOM      1  O   UNL     1     106.341 127.131 146.452  0.00  0.00    +0.000 OA
ATOM      2  O   UNL     1     106.666 124.682 146.292  0.00  0.00    +0.000 OA
ATOM      3  O   UNL     1     105.316 127.193 143.727  0.00  0.00    +0.000 OA
ATOM      4  C   UNL     1     106.755 125.896 147.041  0.00  0.00    +0.000 C 
ATOM      5  C   UNL     1     106.647 126.712 147.094  0.00  0.00    +0.000 C 
ATOM      6  C   UNL     1     106.558 125.499 146.345  0.00  0.00    +0.000 C 
ATOM      7  C   UNL     1     106.253 125.917 145.703  0.00  0.00    +0.000 A 
ATOM      8  C   UNL     1     106.145 126.733 145.757  0.00  0.00    +0.000 A 
ATOM      9  C   UNL     1     106.052 125.491 144.984  0.00  0.00    +0.000 A 
ATOM     10  C   UNL     1     105.828 127.180 145.094  0.00  0.00    +0.000 A 
ATOM     11  C   UNL     1     105.734 125.921 144.312  0.00  0.00    +0.000 A 
ATOM     12  C   UNL     1     105.621 126.771 144.367  0.00  0.00    +0.000 A 
ENDROOT
BRANCH   4  14
ATOM     13  O   UNL     1     107.975 124.223 149.611  0.00  0.00    +0.000 OA
ATOM     14  C   UNL     1     107.059 125.478 147.683  0.00  0.00    +0.000 A 
ATOM     15  C   UNL     1     106.579 125.310 148.333  0.00  0.00    +0.000 A 
ATOM     16  C   UNL     1     107.845 125.227 147.676  0.00  0.00    +0.000 A 
ATOM     17  C   UNL     1     106.884 124.892 148.975  0.00  0.00    +0.000 A 
ATOM     18  C   UNL     1     108.151 124.809 148.319  0.00  0.00    +0.000 A 
ATOM     19  C   UNL     1     107.670 124.641 148.968  0.00  0.00    +0.000 A 
BRANCH  15  20
ATOM     20  O   UNL     1     105.793 125.561 148.340  0.00  0.00    +0.000 OA
ATOM     21  C   UNL     1     105.321 125.423 149.002  0.00  0.00    +0.000 C 
ENDBRANCH  15  20
ENDBRANCH   4  14
BRANCH   9  22
ATOM     22  O   UNL     1     106.163 124.675 144.940  0.00  0.00    +0.000 OA
ATOM     23  C   UNL     1     105.703 124.223 144.425  0.00  0.00    +0.000 C 
ENDBRANCH   9  22
TORSDOF 3
ENDMDL
MODEL 4
REMARK VINA RESULT:      -7.7     10.508     12.475
REMARK  Name = 44257395
REMARK  3 active torsions:
REMARK  status: ('A' for Active; 'I' for Inactive)
REMARK    1  A    between atoms: O_3  and  C_13
REMARK    2  A    between atoms: O_4  and  C_14
REMARK    3  A    between atoms: C_7  and  C_9
REMARK                            x       y       z     vdW  Elec       q    Type
REMARK                         _______ _______ _______ _____ _____    ______ ____
ROOT
ATOM      1  O   UNL     1     111.919 126.160 138.841  0.00  0.00    +0.000 OA
ATOM      2  O   UNL     1     114.373 126.375 139.084  0.00  0.00    +0.000 OA
ATOM      3  O   UNL     1     111.542 127.181 141.543  0.00  0.00    +0.000 OA
ATOM      4  C   UNL     1     113.234 126.017 138.299  0.00  0.00    +0.000 C 
ATOM      5  C   UNL     1     112.416 125.945 138.218  0.00  0.00    +0.000 C 
ATOM      6  C   UNL     1     113.555 126.303 139.003  0.00  0.00    +0.000 C 
ATOM      7  C   UNL     1     113.059 126.518 139.626  0.00  0.00    +0.000 A 
ATOM      8  C   UNL     1     112.241 126.447 139.545  0.00  0.00    +0.000 A 
ATOM      9  C   UNL     1     113.406 126.815 140.354  0.00  0.00    +0.000 A 
ATOM     10  C   UNL     1     111.713 126.668 140.187  0.00  0.00    +0.000 A 
ATOM     11  C   UNL     1     112.894 127.041 141.006  0.00  0.00    +0.000 A 
ATOM     12  C   UNL     1     112.042 126.967 140.922  0.00  0.00    +0.000 A 
ENDROOT
BRANCH   4  14
ATOM     13  O   UNL     1     115.220 125.155 135.808  0.00  0.00    +0.000 OA
ATOM     14  C   UNL     1     113.730 125.802 137.677  0.00  0.00    +0.000 A 
ATOM     15  C   UNL     1     113.783 126.279 137.006  0.00  0.00    +0.000 A 
ATOM     16  C   UNL     1     114.174 125.108 137.724  0.00  0.00    +0.000 A 
ATOM     17  C   UNL     1     114.279 126.064 136.384  0.00  0.00    +0.000 A 
ATOM     18  C   UNL     1     114.671 124.892 137.101  0.00  0.00    +0.000 A 
ATOM     19  C   UNL     1     114.723 125.371 136.431  0.00  0.00    +0.000 A 
BRANCH  15  20
ATOM     20  O   UNL     1     113.338 126.973 136.959  0.00  0.00    +0.000 OA
ATOM     21  C   UNL     1     113.395 127.455 136.291  0.00  0.00    +0.000 C 
ENDBRANCH  15  20
ENDBRANCH   4  14
BRANCH   9  22
ATOM     22  O   UNL     1     114.225 126.883 140.426  0.00  0.00    +0.000 OA
ATOM     23  C   UNL     1     114.549 127.320 141.046  0.00  0.00    +0.000 C 
ENDBRANCH   9  22
TORSDOF 3
ENDMDL
MODEL 5
REMARK VINA RESULT:      -7.7      1.000      2.306
REMARK  Name = 44257395
REMARK  3 active torsions:
REMARK  status: ('A' for Active; 'I' for Inactive)
REMARK    1  A    between atoms: O_3  and  C_13
REMARK    2  A    between atoms: O_4  and  C_14
REMARK    3  A    between atoms: C_7  and  C_9
REMARK                            x       y       z     vdW  Elec       q    Type
REMARK                         _______ _______ _______ _____ _____    ______ ____
ROOT
ATOM      1  O   UNL     1     105.035 124.425 147.758  0.00  0.00    +0.000 OA
ATOM      2  O   UNL     1     104.029 124.647 145.508  0.00  0.00    +0.000 OA
ATOM      3  O   UNL     1     107.568 125.449 146.748  0.00  0.00    +0.000 OA
ATOM      4  C   UNL     1     103.912 124.284 146.885  0.00  0.00    +0.000 C 
ATOM      5  C   UNL     1     104.248 124.210 147.635  0.00  0.00    +0.000 C 
ATOM      6  C   UNL     1     104.364 124.573 146.258  0.00  0.00    +0.000 C 
ATOM      7  C   UNL     1     105.151 124.788 146.380  0.00  0.00    +0.000 A 
ATOM      8  C   UNL     1     105.486 124.713 147.130  0.00  0.00    +0.000 A 
ATOM      9  C   UNL     1     105.611 125.087 145.719  0.00  0.00    +0.000 A 
ATOM     10  C   UNL     1     106.305 124.934 147.270  0.00  0.00    +0.000 A 
ATOM     11  C   UNL     1     106.431 125.312 145.840  0.00  0.00    +0.000 A 
ATOM     12  C   UNL     1     106.780 125.235 146.621  0.00  0.00    +0.000 A 
ENDROOT
BRANCH   4  14
ATOM     13  O   UNL     1     100.764 123.425 146.394  0.00  0.00    +0.000 OA
ATOM     14  C   UNL     1     103.126 124.070 146.762  0.00  0.00    +0.000 A 
ATOM     15  C   UNL     1     102.519 124.508 147.110  0.00  0.00    +0.000 A 
ATOM     16  C   UNL     1     102.945 123.417 146.292  0.00  0.00    +0.000 A 
ATOM     17  C   UNL     1     101.732 124.294 146.987  0.00  0.00    +0.000 A 
ATOM     18  C   UNL     1     102.157 123.201 146.169  0.00  0.00    +0.000 A 
ATOM     19  C   UNL     1     101.551 123.640 146.517  0.00  0.00    +0.000 A 
BRANCH  15  20
ATOM     20  O   UNL     1     102.700 125.161 147.580  0.00  0.00    +0.000 OA
ATOM     21  C   UNL     1     102.099 125.563 147.977  0.00  0.00    +0.000 C 
ENDBRANCH  15  20
ENDBRANCH   4  14
BRANCH   9  22
ATOM     22  O   UNL     1     105.267 125.158 144.972  0.00  0.00    +0.000 OA
ATOM     23  C   UNL     1     105.736 125.335 144.318  0.00  0.00    +0.000 C 
ENDBRANCH   9  22
TORSDOF 3
ENDMDL
MODEL 6
REMARK VINA RESULT:      -7.6     11.279     12.561
REMARK  Name = 44257395
REMARK  3 active torsions:
REMARK  status: ('A' for Active; 'I' for Inactive)
REMARK    1  A    between atoms: O_3  and  C_13
REMARK    2  A    between atoms: O_4  and  C_14
REMARK    3  A    between atoms: C_7  and  C_9
REMARK                            x       y       z     vdW  Elec       q    Type
REMARK                         _______ _______ _______ _____ _____    ______ ____
ROOT
ATOM      1  O   UNL     1     110.832 125.190 135.274  0.00  0.00    +0.000 OA
ATOM      2  O   UNL     1     110.329 126.618 137.233  0.00  0.00    +0.000 OA
ATOM      3  O   UNL     1     112.324 123.354 136.972  0.00  0.00    +0.000 OA
ATOM      4  C   UNL     1     110.215 126.353 135.833  0.00  0.00    +0.000 C 
ATOM      5  C   UNL     1     110.383 125.877 135.181  0.00  0.00    +0.000 C 
ATOM      6  C   UNL     1     110.497 126.142 136.580  0.00  0.00    +0.000 C 
ATOM      7  C   UNL     1     110.945 125.457 136.674  0.00  0.00    +0.000 A 
ATOM      8  C   UNL     1     111.113 124.981 136.021  0.00  0.00    +0.000 A 
ATOM      9  C   UNL     1     111.233 125.249 137.457  0.00  0.00    +0.000 A 
ATOM     10  C   UNL     1     111.580 124.264 136.107  0.00  0.00    +0.000 A 
ATOM     11  C   UNL     1     111.701 124.536 137.561  0.00  0.00    +0.000 A 
ATOM     12  C   UNL     1     111.875 124.040 136.881  0.00  0.00    +0.000 A 
ENDROOT
BRANCH   4  14
ATOM     13  O   UNL     1     108.419 129.095 135.457  0.00  0.00    +0.000 OA
ATOM     14  C   UNL     1     109.767 127.038 135.739  0.00  0.00    +0.000 A 
ATOM     15  C   UNL     1     110.097 127.702 135.378  0.00  0.00    +0.000 A 
ATOM     16  C   UNL     1     108.987 127.060 136.006  0.00  0.00    +0.000 A 
ATOM     17  C   UNL     1     109.649 128.387 135.284  0.00  0.00    +0.000 A 
ATOM     18  C   UNL     1     108.537 127.746 135.912  0.00  0.00    +0.000 A 
ATOM     19  C   UNL     1     108.869 128.409 135.551  0.00  0.00    +0.000 A 
BRANCH  15  20
ATOM     20  O   UNL     1     110.878 127.680 135.110  0.00  0.00    +0.000 OA
ATOM     21  C   UNL     1     111.205 128.339 134.738  0.00  0.00    +0.000 C 
ENDBRANCH  15  20
ENDBRANCH   4  14
BRANCH   9  22
ATOM     22  O   UNL     1     111.060 125.731 138.104  0.00  0.00    +0.000 OA
ATOM     23  C   UNL     1     111.551 125.722 138.767  0.00  0.00    +0.000 C 
ENDBRANCH   9  22
TORSDOF 3
ENDMDL
MODEL 7
REMARK VINA RESULT:      -7.6     11.139     12.829
REMARK  Name = 44257395
REMARK  3 active torsions:
REMARK  status: ('A' for Active; 'I' for Inactive)
REMARK    1  A    between atoms: O_3  and  C_13
REMARK    2  A    between atoms: O_4  and  C_14
REMARK    3  A    between atoms: C_7  and  C_9
REMARK                            x       y       z     vdW  Elec       q    Type
REMARK                         _______ _______ _______ _____ _____    ______ ____
ROOT
ATOM      1  O   UNL     1     110.613 125.486 135.434  0.00  0.00    +0.000 OA
ATOM      2  O   UNL     1     111.664 126.292 137.526  0.00  0.00    +0.000 OA
ATOM      3  O   UNL     1     108.288 127.168 135.931  0.00  0.00    +0.000 OA
ATOM      4  C   UNL     1     111.707 125.474 136.354  0.00  0.00    +0.000 C 
ATOM      5  C   UNL     1     111.357 125.206 135.657  0.00  0.00    +0.000 C 
ATOM      6  C   UNL     1     111.313 126.023 136.829  0.00  0.00    +0.000 C 
ATOM      7  C   UNL     1     110.571 126.303 136.606  0.00  0.00    +0.000 A 
ATOM      8  C   UNL     1     110.220 126.034 135.909  0.00  0.00    +0.000 A 
ATOM      9  C   UNL     1     110.171 126.874 137.109  0.00  0.00    +0.000 A 
ATOM     10  C   UNL     1     109.446 126.319 135.667  0.00  0.00    +0.000 A 
ATOM     11  C   UNL     1     109.397 127.170 136.882  0.00  0.00    +0.000 A 
ATOM     12  C   UNL     1     109.032 126.890 136.156  0.00  0.00    +0.000 A 
ENDROOT
BRANCH   4  14
ATOM     13  O   UNL     1     114.681 124.354 137.244  0.00  0.00    +0.000 OA
ATOM     14  C   UNL     1     112.450 125.194 136.577  0.00  0.00    +0.000 A 
ATOM     15  C   UNL     1     112.536 124.419 136.846  0.00  0.00    +0.000 A 
ATOM     16  C   UNL     1     113.108 125.690 136.530  0.00  0.00    +0.000 A 
ATOM     17  C   UNL     1     113.279 124.139 137.068  0.00  0.00    +0.000 A 
ATOM     18  C   UNL     1     113.852 125.410 136.753  0.00  0.00    +0.000 A 
ATOM     19  C   UNL     1     113.937 124.634 137.022  0.00  0.00    +0.000 A 
BRANCH  15  20
ATOM     20  O   UNL     1     111.878 123.924 136.892  0.00  0.00    +0.000 OA
ATOM     21  C   UNL     1     111.963 123.147 137.157  0.00  0.00    +0.000 C 
ENDBRANCH  15  20
ENDBRANCH   4  14
BRANCH   9  22
ATOM     22  O   UNL     1     110.529 127.137 137.804  0.00  0.00    +0.000 OA
ATOM     23  C   UNL     1     110.167 127.724 138.257  0.00  0.00    +0.000 C 
ENDBRANCH   9  22
TORSDOF 3
ENDMDL
MODEL 8
REMARK VINA RESULT:      -7.5     12.569     13.917
REMARK  Name = 44257395
REMARK  3 active torsions:
REMARK  status: ('A' for Active; 'I' for Inactive)
REMARK    1  A    between atoms: O_3  and  C_13
REMARK    2  A    between atoms: O_4  and  C_14
REMARK    3  A    between atoms: C_7  and  C_9
REMARK                            x       y       z     vdW  Elec       q    Type
REMARK                         _______ _______ _______ _____ _____    ______ ____
ROOT
ATOM      1  O   UNL     1     111.645 126.410 136.117  0.00  0.00    +0.000 OA
ATOM      2  O   UNL     1     114.036 126.663 136.706  0.00  0.00    +0.000 OA
ATOM      3  O   UNL     1     111.838 123.528 136.487  0.00  0.00    +0.000 OA
ATOM      4  C   UNL     1     112.789 127.244 136.320  0.00  0.00    +0.000 C 
ATOM      5  C   UNL     1     111.992 127.159 136.123  0.00  0.00    +0.000 C 
ATOM      6  C   UNL     1     113.239 126.579 136.510  0.00  0.00    +0.000 C 
ATOM      7  C   UNL     1     112.893 125.830 136.504  0.00  0.00    +0.000 A 
ATOM      8  C   UNL     1     112.096 125.746 136.307  0.00  0.00    +0.000 A 
ATOM      9  C   UNL     1     113.372 125.146 136.704  0.00  0.00    +0.000 A 
ATOM     10  C   UNL     1     111.724 124.971 136.297  0.00  0.00    +0.000 A 
ATOM     11  C   UNL     1     113.017 124.363 136.699  0.00  0.00    +0.000 A 
ATOM     12  C   UNL     1     112.188 124.276 136.494  0.00  0.00    +0.000 A 
ENDROOT
BRANCH   4  14
ATOM     13  O   UNL     1     114.174 130.239 136.344  0.00  0.00    +0.000 OA
ATOM     14  C   UNL     1     113.135 127.992 136.326  0.00  0.00    +0.000 A 
ATOM     15  C   UNL     1     112.952 128.527 136.927  0.00  0.00    +0.000 A 
ATOM     16  C   UNL     1     113.664 128.206 135.731  0.00  0.00    +0.000 A 
ATOM     17  C   UNL     1     113.298 129.275 136.933  0.00  0.00    +0.000 A 
ATOM     18  C   UNL     1     114.011 128.956 135.736  0.00  0.00    +0.000 A 
ATOM     19  C   UNL     1     113.828 129.489 136.338  0.00  0.00    +0.000 A 
BRANCH  15  20
ATOM     20  O   UNL     1     112.422 128.312 137.522  0.00  0.00    +0.000 OA
ATOM     21  C   UNL     1     112.231 128.850 138.118  0.00  0.00    +0.000 C 
ENDBRANCH  15  20
ENDBRANCH   4  14
BRANCH   9  22
ATOM     22  O   UNL     1     114.168 125.240 136.899  0.00  0.00    +0.000 OA
ATOM     23  C   UNL     1     114.586 124.614 137.238  0.00  0.00    +0.000 C 
ENDBRANCH   9  22
TORSDOF 3
ENDMDL
MODEL 9
REMARK VINA RESULT:      -7.5      7.576      8.581
REMARK  Name = 44257395
REMARK  3 active torsions:
REMARK  status: ('A' for Active; 'I' for Inactive)
REMARK    1  A    between atoms: O_3  and  C_13
REMARK    2  A    between atoms: O_4  and  C_14
REMARK    3  A    between atoms: C_7  and  C_9
REMARK                            x       y       z     vdW  Elec       q    Type
REMARK                         _______ _______ _______ _____ _____    ______ ____
ROOT
ATOM      1  O   UNL     1     103.113 129.561 140.690  0.00  0.00    +0.000 OA
ATOM      2  O   UNL     1     103.099 130.724 142.875  0.00  0.00    +0.000 OA
ATOM      3  O   UNL     1     104.893 127.522 141.763  0.00  0.00    +0.000 OA
ATOM      4  C   UNL     1     102.669 130.641 141.515  0.00  0.00    +0.000 C 
ATOM      5  C   UNL     1     102.673 130.254 140.787  0.00  0.00    +0.000 C 
ATOM      6  C   UNL     1     103.104 130.336 142.147  0.00  0.00    +0.000 C 
ATOM      7  C   UNL     1     103.542 129.645 142.051  0.00  0.00    +0.000 A 
ATOM      8  C   UNL     1     103.547 129.258 141.322  0.00  0.00    +0.000 A 
ATOM      9  C   UNL     1     103.991 129.338 142.716  0.00  0.00    +0.000 A 
ATOM     10  C   UNL     1     104.001 128.536 141.209  0.00  0.00    +0.000 A 
ATOM     11  C   UNL     1     104.450 128.618 142.622  0.00  0.00    +0.000 A 
ATOM     12  C   UNL     1     104.455 128.214 141.864  0.00  0.00    +0.000 A 
ENDROOT
BRANCH   4  14
ATOM     13  O   UNL     1     100.911 133.408 141.901  0.00  0.00    +0.000 OA
ATOM     14  C   UNL     1     102.230 131.332 141.612  0.00  0.00    +0.000 A 
ATOM     15  C   UNL     1     102.510 132.046 141.306  0.00  0.00    +0.000 A 
ATOM     16  C   UNL     1     101.510 131.311 142.014  0.00  0.00    +0.000 A 
ATOM     17  C   UNL     1     102.071 132.737 141.402  0.00  0.00    +0.000 A 
ATOM     18  C   UNL     1     101.070 132.003 142.110  0.00  0.00    +0.000 A 
ATOM     19  C   UNL     1     101.351 132.716 141.805  0.00  0.00    +0.000 A 
BRANCH  15  20
ATOM     20  O   UNL     1     103.230 132.067 140.904  0.00  0.00    +0.000 OA
ATOM     21  C   UNL     1     103.506 132.777 140.588  0.00  0.00    +0.000 C 
ENDBRANCH  15  20
ENDBRANCH   4  14
BRANCH   9  22
ATOM     22  O   UNL     1     103.981 129.732 143.441  0.00  0.00    +0.000 OA
ATOM     23  C   UNL     1     104.537 129.544 144.020  0.00  0.00    +0.000 C 
ENDBRANCH   9  22
TORSDOF 3
ENDMDL
MODEL 10
REMARK VINA RESULT:      -7.5     12.050     13.798
REMARK  Name = 44257395
REMARK  3 active torsions:
REMARK  status: ('A' for Active; 'I' for Inactive)
REMARK    1  A    between atoms: O_3  and  C_13
REMARK    2  A    between atoms: O_4  and  C_14
REMARK    3  A    between atoms: C_7  and  C_9
REMARK                            x       y       z     vdW  Elec       q    Type
REMARK                         _______ _______ _______ _____ _____    ______ ____
ROOT
ATOM      1  O   UNL     1     112.566 128.058 136.203  0.00  0.00    +0.000 OA
ATOM      2  O   UNL     1     112.112 125.628 136.071  0.00  0.00    +0.000 OA
ATOM      3  O   UNL     1     110.078 128.619 134.796  0.00  0.00    +0.000 OA
ATOM      4  C   UNL     1     112.950 126.709 136.483  0.00  0.00    +0.000 C 
ATOM      5  C   UNL     1     113.102 127.519 136.526  0.00  0.00    +0.000 C 
ATOM      6  C   UNL     1     112.263 126.438 136.115  0.00  0.00    +0.000 C 
ATOM      7  C   UNL     1     111.728 126.975 135.792  0.00  0.00    +0.000 A 
ATOM      8  C   UNL     1     111.879 127.785 135.836  0.00  0.00    +0.000 A 
ATOM      9  C   UNL     1     111.016 126.679 135.412  0.00  0.00    +0.000 A 
ATOM     10  C   UNL     1     111.329 128.355 135.502  0.00  0.00    +0.000 A 
ATOM     11  C   UNL     1     110.454 127.235 135.073  0.00  0.00    +0.000 A 
ATOM     12  C   UNL     1     110.612 128.078 135.119  0.00  0.00    +0.000 A 
ENDROOT
BRANCH   4  14
ATOM     13  O   UNL     1     115.093 124.558 137.776  0.00  0.00    +0.000 OA
ATOM     14  C   UNL     1     113.485 126.172 136.806  0.00  0.00    +0.000 A 
ATOM     15  C   UNL     1     113.538 126.083 137.625  0.00  0.00    +0.000 A 
ATOM     16  C   UNL     1     113.969 125.723 136.311  0.00  0.00    +0.000 A 
ATOM     17  C   UNL     1     114.074 125.546 137.948  0.00  0.00    +0.000 A 
ATOM     18  C   UNL     1     114.505 125.185 136.634  0.00  0.00    +0.000 A 
ATOM     19  C   UNL     1     114.557 125.097 137.452  0.00  0.00    +0.000 A 
BRANCH  15  20
ATOM     20  O   UNL     1     113.055 126.532 138.120  0.00  0.00    +0.000 OA
ATOM     21  C   UNL     1     113.117 126.454 138.939  0.00  0.00    +0.000 C 
ENDBRANCH  15  20
ENDBRANCH   4  14
BRANCH   9  22
ATOM     22  O   UNL     1     110.873 125.868 135.373  0.00  0.00    +0.000 OA
ATOM     23  C   UNL     1     110.169 125.589 135.045  0.00  0.00    +0.000 C 
ENDBRANCH   9  22
TORSDOF 3
ENDMDL
