MODEL 1
REMARK VINA RESULT:      -8.6      0.000      0.000
REMARK  Name = 70696494
REMARK  2 active torsions:
REMARK  status: ('A' for Active; 'I' for Inactive)
REMARK    1  A    between atoms: O_4  and  C_17
REMARK    2  A    between atoms: C_7  and  C_9
REMARK                            x       y       z     vdW  Elec       q    Type
REMARK                         _______ _______ _______ _____ _____    ______ ____
ROOT
ATOM      1  O   UNL     1     104.428 123.602 137.955  0.00  0.00    +0.000 OA
ATOM      2  O   UNL     1     101.965 123.439 138.142  0.00  0.00    +0.000 OA
ATOM      3  O   UNL     1     101.853 123.102 136.744  0.00  0.00    +0.000 OA
ATOM      4  C   UNL     1     104.060 123.741 138.681  0.00  0.00    +0.000 C 
ATOM      5  C   UNL     1     103.239 123.686 138.743  0.00  0.00    +0.000 C 
ATOM      6  C   UNL     1     103.156 123.355 137.355  0.00  0.00    +0.000 A 
ATOM      7  C   UNL     1     102.786 123.493 138.080  0.00  0.00    +0.000 C 
ATOM      8  C   UNL     1     103.976 123.409 137.293  0.00  0.00    +0.000 A 
ATOM      9  C   UNL     1     102.673 123.154 136.672  0.00  0.00    +0.000 A 
ATOM     10  C   UNL     1     104.372 123.267 136.543  0.00  0.00    +0.000 A 
ATOM     11  C   UNL     1     103.907 123.066 135.850  0.00  0.00    +0.000 A 
ATOM     12  C   UNL     1     103.051 123.009 135.915  0.00  0.00    +0.000 A 
ENDROOT
BRANCH   4  15
ATOM     13  O   UNL     1     105.390 125.696 140.285  0.00  0.00    +0.000 OA
ATOM     14  O   UNL     1     105.442 122.944 141.052  0.00  0.00    +0.000 OA
ATOM     15  C   UNL     1     104.511 123.933 139.343  0.00  0.00    +0.000 A 
ATOM     16  C   UNL     1     104.751 123.342 139.866  0.00  0.00    +0.000 A 
ATOM     17  C   UNL     1     104.724 124.718 139.482  0.00  0.00    +0.000 A 
ATOM     18  C   UNL     1     105.177 124.912 140.145  0.00  0.00    +0.000 A 
ATOM     19  C   UNL     1     105.203 123.535 140.528  0.00  0.00    +0.000 A 
ATOM     20  C   UNL     1     105.415 124.320 140.668  0.00  0.00    +0.000 A 
ENDBRANCH   4  15
BRANCH  11  21
ATOM     21  O   UNL     1     104.278 122.928 135.126  0.00  0.00    +0.000 OA
ATOM     22  C   UNL     1     104.426 123.556 134.612  0.00  0.00    +0.000 C 
ENDBRANCH  11  21
TORSDOF 2
ENDMDL
MODEL 2
REMARK VINA RESULT:      -8.5      7.805      9.810
REMARK  Name = 70696494
REMARK  2 active torsions:
REMARK  status: ('A' for Active; 'I' for Inactive)
REMARK    1  A    between atoms: O_4  and  C_17
REMARK    2  A    between atoms: C_7  and  C_9
REMARK                            x       y       z     vdW  Elec       q    Type
REMARK                         _______ _______ _______ _____ _____    ______ ____
ROOT
ATOM      1  O   UNL     1     105.364 124.359 147.254  0.00  0.00    +0.000 OA
ATOM      2  O   UNL     1     103.738 125.366 148.825  0.00  0.00    +0.000 OA
ATOM      3  O   UNL     1     102.637 124.976 147.980  0.00  0.00    +0.000 OA
ATOM      4  C   UNL     1     105.630 124.726 147.943  0.00  0.00    +0.000 C 
ATOM      5  C   UNL     1     105.088 125.061 148.467  0.00  0.00    +0.000 C 
ATOM      6  C   UNL     1     104.015 124.663 147.612  0.00  0.00    +0.000 A 
ATOM      7  C   UNL     1     104.280 125.030 148.301  0.00  0.00    +0.000 C 
ATOM      8  C   UNL     1     104.557 124.327 147.088  0.00  0.00    +0.000 A 
ATOM      9  C   UNL     1     103.170 124.638 147.451  0.00  0.00    +0.000 A 
ATOM     10  C   UNL     1     104.292 123.942 146.367  0.00  0.00    +0.000 A 
ATOM     11  C   UNL     1     103.453 123.907 146.189  0.00  0.00    +0.000 A 
ATOM     12  C   UNL     1     102.888 124.257 146.735  0.00  0.00    +0.000 A 
ENDROOT
BRANCH   4  15
ATOM     13  O   UNL     1     107.843 124.026 149.612  0.00  0.00    +0.000 OA
ATOM     14  O   UNL     1     108.263 125.612 147.272  0.00  0.00    +0.000 OA
ATOM     15  C   UNL     1     106.437 124.757 148.109  0.00  0.00    +0.000 A 
ATOM     16  C   UNL     1     106.947 125.169 147.608  0.00  0.00    +0.000 A 
ATOM     17  C   UNL     1     106.736 124.376 148.777  0.00  0.00    +0.000 A 
ATOM     18  C   UNL     1     107.544 124.407 148.944  0.00  0.00    +0.000 A 
ATOM     19  C   UNL     1     107.754 125.200 147.774  0.00  0.00    +0.000 A 
ATOM     20  C   UNL     1     108.052 124.819 148.442  0.00  0.00    +0.000 A 
ENDBRANCH   4  15
BRANCH  11  21
ATOM     21  O   UNL     1     103.190 123.539 145.498  0.00  0.00    +0.000 OA
ATOM     22  C   UNL     1     102.988 122.739 145.508  0.00  0.00    +0.000 C 
ENDBRANCH  11  21
TORSDOF 2
ENDMDL
MODEL 3
REMARK VINA RESULT:      -8.2      8.209      9.962
REMARK  Name = 70696494
REMARK  2 active torsions:
REMARK  status: ('A' for Active; 'I' for Inactive)
REMARK    1  A    between atoms: O_4  and  C_17
REMARK    2  A    between atoms: C_7  and  C_9
REMARK                            x       y       z     vdW  Elec       q    Type
REMARK                         _______ _______ _______ _____ _____    ______ ____
ROOT
ATOM      1  O   UNL     1     105.059 124.469 147.544  0.00  0.00    +0.000 OA
ATOM      2  O   UNL     1     106.314 125.241 145.555  0.00  0.00    +0.000 OA
ATOM      3  O   UNL     1     107.502 125.442 146.348  0.00  0.00    +0.000 OA
ATOM      4  C   UNL     1     104.686 124.502 146.808  0.00  0.00    +0.000 C 
ATOM      5  C   UNL     1     105.105 124.760 146.145  0.00  0.00    +0.000 C 
ATOM      6  C   UNL     1     106.268 124.950 146.953  0.00  0.00    +0.000 A 
ATOM      7  C   UNL     1     105.896 124.984 146.218  0.00  0.00    +0.000 C 
ATOM      8  C   UNL     1     105.849 124.693 147.616  0.00  0.00    +0.000 A 
ATOM      9  C   UNL     1     107.093 125.186 147.016  0.00  0.00    +0.000 A 
ATOM     10  C   UNL     1     106.226 124.653 148.388  0.00  0.00    +0.000 A 
ATOM     11  C   UNL     1     107.050 124.885 148.470  0.00  0.00    +0.000 A 
ATOM     12  C   UNL     1     107.486 125.153 147.779  0.00  0.00    +0.000 A 
ENDROOT
BRANCH   4  15
ATOM     13  O   UNL     1     102.700 122.740 145.751  0.00  0.00    +0.000 OA
ATOM     14  O   UNL     1     101.928 124.922 147.428  0.00  0.00    +0.000 OA
ATOM     15  C   UNL     1     103.896 124.279 146.736  0.00  0.00    +0.000 A 
ATOM     16  C   UNL     1     103.307 124.712 147.118  0.00  0.00    +0.000 A 
ATOM     17  C   UNL     1     103.694 123.622 146.280  0.00  0.00    +0.000 A 
ATOM     18  C   UNL     1     102.902 123.397 146.207  0.00  0.00    +0.000 A 
ATOM     19  C   UNL     1     102.517 124.489 147.045  0.00  0.00    +0.000 A 
ATOM     20  C   UNL     1     102.315 123.831 146.590  0.00  0.00    +0.000 A 
ENDBRANCH   4  15
BRANCH  11  21
ATOM     21  O   UNL     1     107.419 124.850 149.206  0.00  0.00    +0.000 OA
ATOM     22  C   UNL     1     107.465 124.133 149.612  0.00  0.00    +0.000 C 
ENDBRANCH  11  21
TORSDOF 2
ENDMDL
MODEL 4
REMARK VINA RESULT:      -7.9      8.537      9.916
REMARK  Name = 70696494
REMARK  2 active torsions:
REMARK  status: ('A' for Active; 'I' for Inactive)
REMARK    1  A    between atoms: O_4  and  C_17
REMARK    2  A    between atoms: C_7  and  C_9
REMARK                            x       y       z     vdW  Elec       q    Type
REMARK                         _______ _______ _______ _____ _____    ______ ____
ROOT
ATOM      1  O   UNL     1     104.873 125.029 147.908  0.00  0.00    +0.000 OA
ATOM      2  O   UNL     1     104.454 123.689 145.869  0.00  0.00    +0.000 OA
ATOM      3  O   UNL     1     103.033 123.908 145.983  0.00  0.00    +0.000 OA
ATOM      4  C   UNL     1     105.506 124.690 147.500  0.00  0.00    +0.000 C 
ATOM      5  C   UNL     1     105.366 124.243 146.821  0.00  0.00    +0.000 C 
ATOM      6  C   UNL     1     103.963 124.475 146.957  0.00  0.00    +0.000 A 
ATOM      7  C   UNL     1     104.594 124.136 146.549  0.00  0.00    +0.000 C 
ATOM      8  C   UNL     1     104.102 124.922 147.636  0.00  0.00    +0.000 A 
ATOM      9  C   UNL     1     103.163 124.356 146.663  0.00  0.00    +0.000 A 
ATOM     10  C   UNL     1     103.452 125.280 148.070  0.00  0.00    +0.000 A 
ATOM     11  C   UNL     1     102.647 125.172 147.792  0.00  0.00    +0.000 A 
ATOM     12  C   UNL     1     102.501 124.707 147.083  0.00  0.00    +0.000 A 
ENDROOT
BRANCH   4  15
ATOM     13  O   UNL     1     107.543 124.167 149.435  0.00  0.00    +0.000 OA
ATOM     14  O   UNL     1     108.098 125.855 147.196  0.00  0.00    +0.000 OA
ATOM     15  C   UNL     1     106.277 124.797 147.772  0.00  0.00    +0.000 A 
ATOM     16  C   UNL     1     106.802 125.272 147.348  0.00  0.00    +0.000 A 
ATOM     17  C   UNL     1     106.524 124.429 148.467  0.00  0.00    +0.000 A 
ATOM     18  C   UNL     1     107.296 124.536 148.739  0.00  0.00    +0.000 A 
ATOM     19  C   UNL     1     107.573 125.379 147.619  0.00  0.00    +0.000 A 
ATOM     20  C   UNL     1     107.820 125.011 148.315  0.00  0.00    +0.000 A 
ENDBRANCH   4  15
BRANCH  11  21
ATOM     21  O   UNL     1     102.017 125.513 148.201  0.00  0.00    +0.000 OA
ATOM     22  C   UNL     1     101.625 125.083 148.787  0.00  0.00    +0.000 C 
ENDBRANCH  11  21
TORSDOF 2
ENDMDL
MODEL 5
REMARK VINA RESULT:      -7.9      8.214      8.974
REMARK  Name = 70696494
REMARK  2 active torsions:
REMARK  status: ('A' for Active; 'I' for Inactive)
REMARK    1  A    between atoms: O_4  and  C_17
REMARK    2  A    between atoms: C_7  and  C_9
REMARK                            x       y       z     vdW  Elec       q    Type
REMARK                         _______ _______ _______ _____ _____    ______ ____
ROOT
ATOM      1  O   UNL     1     112.404 126.536 136.230  0.00  0.00    +0.000 OA
ATOM      2  O   UNL     1     110.854 124.657 135.790  0.00  0.00    +0.000 OA
ATOM      3  O   UNL     1     110.012 125.504 134.982  0.00  0.00    +0.000 OA
ATOM      4  C   UNL     1     112.555 125.793 136.555  0.00  0.00    +0.000 C 
ATOM      5  C   UNL     1     112.038 125.167 136.408  0.00  0.00    +0.000 C 
ATOM      6  C   UNL     1     111.221 126.027 135.613  0.00  0.00    +0.000 A 
ATOM      7  C   UNL     1     111.371 125.283 135.937  0.00  0.00    +0.000 C 
ATOM      8  C   UNL     1     111.737 126.653 135.759  0.00  0.00    +0.000 A 
ATOM      9  C   UNL     1     110.522 126.136 135.123  0.00  0.00    +0.000 A 
ATOM     10  C   UNL     1     111.591 127.433 135.427  0.00  0.00    +0.000 A 
ATOM     11  C   UNL     1     110.898 127.560 134.935  0.00  0.00    +0.000 A 
ATOM     12  C   UNL     1     110.360 126.907 134.782  0.00  0.00    +0.000 A 
ENDROOT
BRANCH   4  15
ATOM     13  O   UNL     1     113.928 126.157 139.035  0.00  0.00    +0.000 OA
ATOM     14  O   UNL     1     115.183 124.726 136.904  0.00  0.00    +0.000 OA
ATOM     15  C   UNL     1     113.221 125.676 137.026  0.00  0.00    +0.000 A 
ATOM     16  C   UNL     1     113.869 125.259 136.729  0.00  0.00    +0.000 A 
ATOM     17  C   UNL     1     113.241 125.975 137.795  0.00  0.00    +0.000 A 
ATOM     18  C   UNL     1     113.908 125.858 138.266  0.00  0.00    +0.000 A 
ATOM     19  C   UNL     1     114.535 125.142 137.200  0.00  0.00    +0.000 A 
ATOM     20  C   UNL     1     114.555 125.442 137.969  0.00  0.00    +0.000 A 
ENDBRANCH   4  15
BRANCH  11  21
ATOM     21  O   UNL     1     110.750 128.305 134.612  0.00  0.00    +0.000 OA
ATOM     22  C   UNL     1     110.340 128.871 135.051  0.00  0.00    +0.000 C 
ENDBRANCH  11  21
TORSDOF 2
ENDMDL
MODEL 6
REMARK VINA RESULT:      -7.8      7.036      7.980
REMARK  Name = 70696494
REMARK  2 active torsions:
REMARK  status: ('A' for Active; 'I' for Inactive)
REMARK    1  A    between atoms: O_4  and  C_17
REMARK    2  A    between atoms: C_7  and  C_9
REMARK                            x       y       z     vdW  Elec       q    Type
REMARK                         _______ _______ _______ _____ _____    ______ ____
ROOT
ATOM      1  O   UNL     1     110.946 125.934 136.770  0.00  0.00    +0.000 OA
ATOM      2  O   UNL     1     109.743 125.639 134.627  0.00  0.00    +0.000 OA
ATOM      3  O   UNL     1     108.875 126.751 134.929  0.00  0.00    +0.000 OA
ATOM      4  C   UNL     1     111.170 125.333 136.251  0.00  0.00    +0.000 C 
ATOM      5  C   UNL     1     110.769 125.234 135.537  0.00  0.00    +0.000 C 
ATOM      6  C   UNL     1     109.922 126.339 135.860  0.00  0.00    +0.000 A 
ATOM      7  C   UNL     1     110.144 125.738 135.341  0.00  0.00    +0.000 C 
ATOM      8  C   UNL     1     110.323 126.437 136.574  0.00  0.00    +0.000 A 
ATOM      9  C   UNL     1     109.270 126.857 135.644  0.00  0.00    +0.000 A 
ATOM     10  C   UNL     1     110.100 127.061 137.123  0.00  0.00    +0.000 A 
ATOM     11  C   UNL     1     109.451 127.588 136.925  0.00  0.00    +0.000 A 
ATOM     12  C   UNL     1     109.033 127.485 136.180  0.00  0.00    +0.000 A 
ENDROOT
BRANCH   4  15
ATOM     13  O   UNL     1     112.107 122.851 137.315  0.00  0.00    +0.000 OA
ATOM     14  O   UNL     1     113.974 124.793 136.360  0.00  0.00    +0.000 OA
ATOM     15  C   UNL     1     111.793 124.830 136.446  0.00  0.00    +0.000 A 
ATOM     16  C   UNL     1     112.572 125.063 136.306  0.00  0.00    +0.000 A 
ATOM     17  C   UNL     1     111.638 124.092 136.783  0.00  0.00    +0.000 A 
ATOM     18  C   UNL     1     112.262 123.588 136.978  0.00  0.00    +0.000 A 
ATOM     19  C   UNL     1     113.195 124.560 136.501  0.00  0.00    +0.000 A 
ATOM     20  C   UNL     1     113.040 123.823 136.837  0.00  0.00    +0.000 A 
ENDBRANCH   4  15
BRANCH  11  21
ATOM     21  O   UNL     1     109.231 128.188 137.445  0.00  0.00    +0.000 OA
ATOM     22  C   UNL     1     109.611 128.920 137.416  0.00  0.00    +0.000 C 
ENDBRANCH  11  21
TORSDOF 2
ENDMDL
MODEL 7
REMARK VINA RESULT:      -7.7      9.660     10.827
REMARK  Name = 70696494
REMARK  2 active torsions:
REMARK  status: ('A' for Active; 'I' for Inactive)
REMARK    1  A    between atoms: O_4  and  C_17
REMARK    2  A    between atoms: C_7  and  C_9
REMARK                            x       y       z     vdW  Elec       q    Type
REMARK                         _______ _______ _______ _____ _____    ______ ____
ROOT
ATOM      1  O   UNL     1     113.834 127.274 136.193  0.00  0.00    +0.000 OA
ATOM      2  O   UNL     1     112.571 128.465 137.957  0.00  0.00    +0.000 OA
ATOM      3  O   UNL     1     112.844 129.737 137.334  0.00  0.00    +0.000 OA
ATOM      4  C   UNL     1     113.481 126.848 136.806  0.00  0.00    +0.000 C 
ATOM      5  C   UNL     1     113.060 127.246 137.394  0.00  0.00    +0.000 C 
ATOM      6  C   UNL     1     113.345 128.492 136.756  0.00  0.00    +0.000 A 
ATOM      7  C   UNL     1     112.992 128.068 137.369  0.00  0.00    +0.000 C 
ATOM      8  C   UNL     1     113.766 128.095 136.168  0.00  0.00    +0.000 A 
ATOM      9  C   UNL     1     113.267 129.349 136.742  0.00  0.00    +0.000 A 
ATOM     10  C   UNL     1     114.138 128.527 135.524  0.00  0.00    +0.000 A 
ATOM     11  C   UNL     1     114.070 129.382 135.493  0.00  0.00    +0.000 A 
ATOM     12  C   UNL     1     113.632 129.796 136.106  0.00  0.00    +0.000 A 
ENDROOT
BRANCH   4  15
ATOM     13  O   UNL     1     112.391 124.258 136.286  0.00  0.00    +0.000 OA
ATOM     14  O   UNL     1     114.978 124.508 137.475  0.00  0.00    +0.000 OA
ATOM     15  C   UNL     1     113.549 126.027 136.831  0.00  0.00    +0.000 A 
ATOM     16  C   UNL     1     114.229 125.678 137.141  0.00  0.00    +0.000 A 
ATOM     17  C   UNL     1     112.936 125.554 136.546  0.00  0.00    +0.000 A 
ATOM     18  C   UNL     1     113.004 124.731 136.571  0.00  0.00    +0.000 A 
ATOM     19  C   UNL     1     114.297 124.857 137.166  0.00  0.00    +0.000 A 
ATOM     20  C   UNL     1     113.684 124.384 136.881  0.00  0.00    +0.000 A 
ENDBRANCH   4  15
BRANCH  11  21
ATOM     21  O   UNL     1     114.424 129.805 134.879  0.00  0.00    +0.000 OA
ATOM     22  C   UNL     1     115.129 130.212 135.011  0.00  0.00    +0.000 C 
ENDBRANCH  11  21
TORSDOF 2
ENDMDL
MODEL 8
REMARK VINA RESULT:      -7.7      7.842      8.910
REMARK  Name = 70696494
REMARK  2 active torsions:
REMARK  status: ('A' for Active; 'I' for Inactive)
REMARK    1  A    between atoms: O_4  and  C_17
REMARK    2  A    between atoms: C_7  and  C_9
REMARK                            x       y       z     vdW  Elec       q    Type
REMARK                         _______ _______ _______ _____ _____    ______ ____
ROOT
ATOM      1  O   UNL     1     112.022 125.809 136.330  0.00  0.00    +0.000 OA
ATOM      2  O   UNL     1     111.912 123.487 137.179  0.00  0.00    +0.000 OA
ATOM      3  O   UNL     1     113.351 123.409 137.234  0.00  0.00    +0.000 OA
ATOM      4  C   UNL     1     111.290 125.448 136.449  0.00  0.00    +0.000 C 
ATOM      5  C   UNL     1     111.253 124.674 136.732  0.00  0.00    +0.000 C 
ATOM      6  C   UNL     1     112.680 124.623 136.777  0.00  0.00    +0.000 A 
ATOM      7  C   UNL     1     111.948 124.261 136.896  0.00  0.00    +0.000 C 
ATOM      8  C   UNL     1     112.717 125.397 136.494  0.00  0.00    +0.000 A 
ATOM      9  C   UNL     1     113.398 124.181 136.951  0.00  0.00    +0.000 A 
ATOM     10  C   UNL     1     113.474 125.784 136.365  0.00  0.00    +0.000 A 
ATOM     11  C   UNL     1     114.201 125.359 136.534  0.00  0.00    +0.000 A 
ATOM     12  C   UNL     1     114.163 124.552 136.829  0.00  0.00    +0.000 A 
ENDROOT
BRANCH   4  15
ATOM     13  O   UNL     1     109.235 126.205 134.612  0.00  0.00    +0.000 OA
ATOM     14  O   UNL     1     109.172 127.168 137.302  0.00  0.00    +0.000 OA
ATOM     15  C   UNL     1     110.595 125.861 136.285  0.00  0.00    +0.000 A 
ATOM     16  C   UNL     1     110.231 126.308 136.875  0.00  0.00    +0.000 A 
ATOM     17  C   UNL     1     110.263 125.826 135.531  0.00  0.00    +0.000 A 
ATOM     18  C   UNL     1     109.567 126.239 135.367  0.00  0.00    +0.000 A 
ATOM     19  C   UNL     1     109.536 126.721 136.712  0.00  0.00    +0.000 A 
ATOM     20  C   UNL     1     109.204 126.686 135.957  0.00  0.00    +0.000 A 
ENDBRANCH   4  15
BRANCH  11  21
ATOM     21  O   UNL     1     114.932 125.723 136.414  0.00  0.00    +0.000 OA
ATOM     22  C   UNL     1     115.385 125.529 135.752  0.00  0.00    +0.000 C 
ENDBRANCH  11  21
TORSDOF 2
ENDMDL
MODEL 9
REMARK VINA RESULT:      -7.6      8.398      9.597
REMARK  Name = 70696494
REMARK  2 active torsions:
REMARK  status: ('A' for Active; 'I' for Inactive)
REMARK    1  A    between atoms: O_4  and  C_17
REMARK    2  A    between atoms: C_7  and  C_9
REMARK                            x       y       z     vdW  Elec       q    Type
REMARK                         _______ _______ _______ _____ _____    ______ ____
ROOT
ATOM      1  O   UNL     1     112.641 126.135 138.297  0.00  0.00    +0.000 OA
ATOM      2  O   UNL     1     114.759 125.046 137.626  0.00  0.00    +0.000 OA
ATOM      3  O   UNL     1     114.074 124.266 136.625  0.00  0.00    +0.000 OA
ATOM      4  C   UNL     1     113.345 126.334 138.678  0.00  0.00    +0.000 C 
ATOM      5  C   UNL     1     114.051 125.971 138.454  0.00  0.00    +0.000 C 
ATOM      6  C   UNL     1     113.348 125.211 137.469  0.00  0.00    +0.000 A 
ATOM      7  C   UNL     1     114.053 125.409 137.850  0.00  0.00    +0.000 C 
ATOM      8  C   UNL     1     112.642 125.574 137.693  0.00  0.00    +0.000 A 
ATOM      9  C   UNL     1     113.364 124.623 136.841  0.00  0.00    +0.000 A 
ATOM     10  C   UNL     1     111.902 125.375 137.304  0.00  0.00    +0.000 A 
ATOM     11  C   UNL     1     111.897 124.791 136.674  0.00  0.00    +0.000 A 
ATOM     12  C   UNL     1     112.633 124.412 136.441  0.00  0.00    +0.000 A 
ENDROOT
BRANCH   4  15
ATOM     13  O   UNL     1     113.293 126.974 141.463  0.00  0.00    +0.000 OA
ATOM     14  O   UNL     1     113.388 129.066 139.518  0.00  0.00    +0.000 OA
ATOM     15  C   UNL     1     113.343 126.896 139.281  0.00  0.00    +0.000 A 
ATOM     16  C   UNL     1     113.367 127.700 139.098  0.00  0.00    +0.000 A 
ATOM     17  C   UNL     1     113.319 126.654 140.069  0.00  0.00    +0.000 A 
ATOM     18  C   UNL     1     113.317 127.216 140.674  0.00  0.00    +0.000 A 
ATOM     19  C   UNL     1     113.365 128.262 139.701  0.00  0.00    +0.000 A 
ATOM     20  C   UNL     1     113.340 128.020 140.490  0.00  0.00    +0.000 A 
ENDBRANCH   4  15
BRANCH  11  21
ATOM     21  O   UNL     1     111.191 124.594 136.296  0.00  0.00    +0.000 OA
ATOM     22  C   UNL     1     110.882 125.092 135.715  0.00  0.00    +0.000 C 
ENDBRANCH  11  21
TORSDOF 2
ENDMDL
MODEL 10
REMARK VINA RESULT:      -7.6      7.757      9.544
REMARK  Name = 70696494
REMARK  2 active torsions:
REMARK  status: ('A' for Active; 'I' for Inactive)
REMARK    1  A    between atoms: O_4  and  C_17
REMARK    2  A    between atoms: C_7  and  C_9
REMARK                            x       y       z     vdW  Elec       q    Type
REMARK                         _______ _______ _______ _____ _____    ______ ____
ROOT
ATOM      1  O   UNL     1     102.648 131.964 141.113  0.00  0.00    +0.000 OA
ATOM      2  O   UNL     1     100.710 132.173 142.639  0.00  0.00    +0.000 OA
ATOM      3  O   UNL     1     100.804 133.612 142.606  0.00  0.00    +0.000 OA
ATOM      4  C   UNL     1     102.268 131.287 141.392  0.00  0.00    +0.000 C 
ATOM      5  C   UNL     1     101.622 131.356 141.900  0.00  0.00    +0.000 C 
ATOM      6  C   UNL     1     101.736 132.780 141.851  0.00  0.00    +0.000 A 
ATOM      7  C   UNL     1     101.356 132.104 142.130  0.00  0.00    +0.000 C 
ATOM      8  C   UNL     1     102.382 132.710 141.342  0.00  0.00    +0.000 A 
ATOM      9  C   UNL     1     101.450 133.552 142.098  0.00  0.00    +0.000 A 
ATOM     10  C   UNL     1     102.787 133.408 141.045  0.00  0.00    +0.000 A 
ATOM     11  C   UNL     1     102.515 134.188 141.280  0.00  0.00    +0.000 A 
ATOM     12  C   UNL     1     101.841 134.261 141.810  0.00  0.00    +0.000 A 
ENDROOT
BRANCH   4  15
ATOM     13  O   UNL     1     102.245 129.115 139.534  0.00  0.00    +0.000 OA
ATOM     14  O   UNL     1     103.884 128.979 141.872  0.00  0.00    +0.000 OA
ATOM     15  C   UNL     1     102.533 130.541 141.162  0.00  0.00    +0.000 A 
ATOM     16  C   UNL     1     103.076 130.133 141.632  0.00  0.00    +0.000 A 
ATOM     17  C   UNL     1     102.256 130.201 140.463  0.00  0.00    +0.000 A 
ATOM     18  C   UNL     1     102.522 129.454 140.234  0.00  0.00    +0.000 A 
ATOM     19  C   UNL     1     103.341 129.387 141.402  0.00  0.00    +0.000 A 
ATOM     20  C   UNL     1     103.064 129.047 140.703  0.00  0.00    +0.000 A 
ENDBRANCH   4  15
BRANCH  11  21
ATOM     21  O   UNL     1     102.897 134.864 141.000  0.00  0.00    +0.000 OA
ATOM     22  C   UNL     1     102.638 135.226 140.305  0.00  0.00    +0.000 C 
ENDBRANCH  11  21
TORSDOF 2
ENDMDL
