MODEL 1
REMARK VINA RESULT:      -8.5      0.000      0.000
REMARK  Name = 44257507
REMARK  4 active torsions:
REMARK  status: ('A' for Active; 'I' for Inactive)
REMARK    1  A    between atoms: O_2  and  C_11
REMARK    2  A    between atoms: C_5  and  C_8
REMARK    3  A    between atoms: C_13  and  C_18
REMARK    4  A    between atoms: C_18  and  C_21
REMARK                            x       y       z     vdW  Elec       q    Type
REMARK                         _______ _______ _______ _____ _____    ______ ____
ROOT
ATOM      1  O   UNL     1     111.996 124.200 136.431  0.00  0.00    +0.000 OA
ATOM      2  C   UNL     1     111.106 126.393 135.703  0.00  0.00    +0.000 A 
ATOM      3  C   UNL     1     111.801 126.356 136.146  0.00  0.00    +0.000 A 
ATOM      4  C   UNL     1     110.709 125.698 135.502  0.00  0.00    +0.000 A 
ATOM      5  C   UNL     1     112.098 125.625 136.389  0.00  0.00    +0.000 A 
ATOM      6  C   UNL     1     111.699 124.931 136.188  0.00  0.00    +0.000 A 
ATOM      7  C   UNL     1     111.005 124.968 135.744  0.00  0.00    +0.000 A 
ENDROOT
BRANCH   2  10
ATOM      8  O   UNL     1     110.890 128.271 134.612  0.00  0.00    +0.000 OA
ATOM      9  O   UNL     1     108.926 130.409 134.840  0.00  0.00    +0.000 OA
ATOM     10  C   UNL     1     110.810 127.123 135.460  0.00  0.00    +0.000 C 
ATOM     11  C   UNL     1     110.138 127.437 135.821  0.00  0.00    +0.000 C 
ATOM     12  C   UNL     1     111.187 127.540 134.855  0.00  0.00    +0.000 C 
ATOM     13  C   UNL     1     109.842 128.167 135.579  0.00  0.00    +0.000 A 
ATOM     14  C   UNL     1     110.218 128.585 134.974  0.00  0.00    +0.000 A 
ATOM     15  C   UNL     1     109.141 128.483 135.963  0.00  0.00    +0.000 A 
ATOM     16  C   UNL     1     109.919 129.347 134.712  0.00  0.00    +0.000 A 
ATOM     17  C   UNL     1     108.828 129.244 135.715  0.00  0.00    +0.000 A 
ATOM     18  C   UNL     1     109.220 129.678 135.085  0.00  0.00    +0.000 A 
ENDBRANCH   2  10
BRANCH   3  19
ATOM     19  O   UNL     1     112.199 127.050 136.348  0.00  0.00    +0.000 OA
ATOM     20  C   UNL     1     112.209 127.308 137.131  0.00  0.00    +0.000 C 
ENDBRANCH   3  19
BRANCH   5  21
ATOM     21  C   UNL     1     112.792 125.589 136.833  0.00  0.00    +0.000 C 
BRANCH  21  22
ATOM     22  C   UNL     1     113.487 125.310 136.489  0.00  0.00    +0.000 C 
ATOM     23  C   UNL     1     114.167 125.219 136.947  0.00  0.00    +0.000 C 
ATOM     24  C   UNL     1     114.864 124.940 136.602  0.00  0.00    +0.000 C 
ATOM     25  C   UNL     1     114.152 125.406 137.750  0.00  0.00    +0.000 C 
ENDBRANCH  21  22
ENDBRANCH   5  21
TORSDOF 4
ENDMDL
MODEL 2
REMARK VINA RESULT:      -8.4      9.444     12.088
REMARK  Name = 44257507
REMARK  4 active torsions:
REMARK  status: ('A' for Active; 'I' for Inactive)
REMARK    1  A    between atoms: O_2  and  C_11
REMARK    2  A    between atoms: C_5  and  C_8
REMARK    3  A    between atoms: C_13  and  C_18
REMARK    4  A    between atoms: C_18  and  C_21
REMARK                            x       y       z     vdW  Elec       q    Type
REMARK                         _______ _______ _______ _____ _____    ______ ____
ROOT
ATOM      1  O   UNL     1     100.803 133.416 141.926  0.00  0.00    +0.000 OA
ATOM      2  C   UNL     1     102.143 131.354 141.637  0.00  0.00    +0.000 A 
ATOM      3  C   UNL     1     102.480 132.090 141.479  0.00  0.00    +0.000 A 
ATOM      4  C   UNL     1     101.360 131.305 141.892  0.00  0.00    +0.000 A 
ATOM      5  C   UNL     1     102.033 132.778 141.575  0.00  0.00    +0.000 A 
ATOM      6  C   UNL     1     101.250 132.728 141.830  0.00  0.00    +0.000 A 
ATOM      7  C   UNL     1     100.914 131.992 141.988  0.00  0.00    +0.000 A 
ENDROOT
BRANCH   2  10
ATOM      8  O   UNL     1     103.019 129.574 140.726  0.00  0.00    +0.000 OA
ATOM      9  O   UNL     1     104.875 127.592 141.779  0.00  0.00    +0.000 OA
ATOM     10  C   UNL     1     102.590 130.668 141.541  0.00  0.00    +0.000 C 
ATOM     11  C   UNL     1     103.055 130.387 142.162  0.00  0.00    +0.000 C 
ATOM     12  C   UNL     1     102.572 130.261 140.822  0.00  0.00    +0.000 C 
ATOM     13  C   UNL     1     103.501 129.700 142.066  0.00  0.00    +0.000 A 
ATOM     14  C   UNL     1     103.483 129.293 141.347  0.00  0.00    +0.000 A 
ATOM     15  C   UNL     1     103.981 129.418 142.721  0.00  0.00    +0.000 A 
ATOM     16  C   UNL     1     103.944 128.577 141.235  0.00  0.00    +0.000 A 
ATOM     17  C   UNL     1     104.448 128.703 142.626  0.00  0.00    +0.000 A 
ATOM     18  C   UNL     1     104.430 128.280 141.878  0.00  0.00    +0.000 A 
ENDBRANCH   2  10
BRANCH   3  19
ATOM     19  O   UNL     1     103.263 132.141 141.225  0.00  0.00    +0.000 OA
ATOM     20  C   UNL     1     103.432 132.351 140.445  0.00  0.00    +0.000 C 
ENDBRANCH   3  19
BRANCH   5  21
ATOM     21  C   UNL     1     102.370 133.515 141.417  0.00  0.00    +0.000 C 
BRANCH  21  22
ATOM     22  C   UNL     1     102.516 134.042 142.034  0.00  0.00    +0.000 C 
ATOM     23  C   UNL     1     102.779 134.806 141.870  0.00  0.00    +0.000 C 
ATOM     24  C   UNL     1     102.926 135.334 142.487  0.00  0.00    +0.000 C 
ATOM     25  C   UNL     1     102.896 135.043 141.088  0.00  0.00    +0.000 C 
ENDBRANCH  21  22
ENDBRANCH   5  21
TORSDOF 4
ENDMDL
MODEL 3
REMARK VINA RESULT:      -8.3      2.049      4.568
REMARK  Name = 44257507
REMARK  4 active torsions:
REMARK  status: ('A' for Active; 'I' for Inactive)
REMARK    1  A    between atoms: O_2  and  C_11
REMARK    2  A    between atoms: C_5  and  C_8
REMARK    3  A    between atoms: C_13  and  C_18
REMARK    4  A    between atoms: C_18  and  C_21
REMARK                            x       y       z     vdW  Elec       q    Type
REMARK                         _______ _______ _______ _____ _____    ______ ____
ROOT
ATOM      1  O   UNL     1     111.299 124.176 135.741  0.00  0.00    +0.000 OA
ATOM      2  C   UNL     1     112.542 125.342 137.536  0.00  0.00    +0.000 A 
ATOM      3  C   UNL     1     112.154 125.778 136.953  0.00  0.00    +0.000 A 
ATOM      4  C   UNL     1     112.515 124.518 137.521  0.00  0.00    +0.000 A 
ATOM      5  C   UNL     1     111.740 125.389 136.354  0.00  0.00    +0.000 A 
ATOM      6  C   UNL     1     111.714 124.565 136.340  0.00  0.00    +0.000 A 
ATOM      7  C   UNL     1     112.101 124.129 136.923  0.00  0.00    +0.000 A 
ENDROOT
BRANCH   2  10
ATOM      8  O   UNL     1     114.193 126.172 138.698  0.00  0.00    +0.000 OA
ATOM      9  O   UNL     1     114.226 127.653 141.205  0.00  0.00    +0.000 OA
ATOM     10  C   UNL     1     112.956 125.731 138.134  0.00  0.00    +0.000 C 
ATOM     11  C   UNL     1     112.548 126.068 138.767  0.00  0.00    +0.000 C 
ATOM     12  C   UNL     1     113.780 125.783 138.099  0.00  0.00    +0.000 C 
ATOM     13  C   UNL     1     112.962 126.457 139.365  0.00  0.00    +0.000 A 
ATOM     14  C   UNL     1     113.786 126.509 139.330  0.00  0.00    +0.000 A 
ATOM     15  C   UNL     1     112.525 126.804 140.019  0.00  0.00    +0.000 A 
ATOM     16  C   UNL     1     114.228 126.912 139.947  0.00  0.00    +0.000 A 
ATOM     17  C   UNL     1     112.951 127.210 140.644  0.00  0.00    +0.000 A 
ATOM     18  C   UNL     1     113.809 127.264 140.608  0.00  0.00    +0.000 A 
ENDBRANCH   2  10
BRANCH   3  19
ATOM     19  O   UNL     1     112.181 126.602 136.967  0.00  0.00    +0.000 OA
ATOM     20  C   UNL     1     112.608 127.012 136.392  0.00  0.00    +0.000 C 
ENDBRANCH   3  19
BRANCH   5  21
ATOM     21  C   UNL     1     111.352 125.825 135.770  0.00  0.00    +0.000 C 
BRANCH  21  22
ATOM     22  C   UNL     1     110.538 125.742 135.667  0.00  0.00    +0.000 C 
ATOM     23  C   UNL     1     110.150 126.183 135.088  0.00  0.00    +0.000 C 
ATOM     24  C   UNL     1     109.335 126.101 134.984  0.00  0.00    +0.000 C 
ATOM     25  C   UNL     1     110.575 126.706 134.612  0.00  0.00    +0.000 C 
ENDBRANCH  21  22
ENDBRANCH   5  21
TORSDOF 4
ENDMDL
MODEL 4
REMARK VINA RESULT:      -8.2      1.933      4.289
REMARK  Name = 44257507
REMARK  4 active torsions:
REMARK  status: ('A' for Active; 'I' for Inactive)
REMARK    1  A    between atoms: O_2  and  C_11
REMARK    2  A    between atoms: C_5  and  C_8
REMARK    3  A    between atoms: C_13  and  C_18
REMARK    4  A    between atoms: C_18  and  C_21
REMARK                            x       y       z     vdW  Elec       q    Type
REMARK                         _______ _______ _______ _____ _____    ______ ____
ROOT
ATOM      1  O   UNL     1     112.110 129.454 134.645  0.00  0.00    +0.000 OA
ATOM      2  C   UNL     1     111.839 127.335 135.896  0.00  0.00    +0.000 A 
ATOM      3  C   UNL     1     112.495 127.815 136.035  0.00  0.00    +0.000 A 
ATOM      4  C   UNL     1     111.273 127.562 135.339  0.00  0.00    +0.000 A 
ATOM      5  C   UNL     1     112.586 128.522 135.618  0.00  0.00    +0.000 A 
ATOM      6  C   UNL     1     112.019 128.747 135.062  0.00  0.00    +0.000 A 
ATOM      7  C   UNL     1     111.363 128.267 134.923  0.00  0.00    +0.000 A 
ENDROOT
BRANCH   2  10
ATOM      8  O   UNL     1     111.210 125.908 137.423  0.00  0.00    +0.000 OA
ATOM      9  O   UNL     1     111.743 123.061 137.728  0.00  0.00    +0.000 OA
ATOM     10  C   UNL     1     111.748 126.630 136.312  0.00  0.00    +0.000 C 
ATOM     11  C   UNL     1     112.105 125.938 136.037  0.00  0.00    +0.000 C 
ATOM     12  C   UNL     1     111.300 126.614 137.006  0.00  0.00    +0.000 C 
ATOM     13  C   UNL     1     112.015 125.233 136.454  0.00  0.00    +0.000 A 
ATOM     14  C   UNL     1     111.567 125.217 137.148  0.00  0.00    +0.000 A 
ATOM     15  C   UNL     1     112.392 124.520 136.157  0.00  0.00    +0.000 A 
ATOM     16  C   UNL     1     111.466 124.488 137.591  0.00  0.00    +0.000 A 
ATOM     17  C   UNL     1     112.302 123.782 136.587  0.00  0.00    +0.000 A 
ATOM     18  C   UNL     1     111.835 123.766 137.309  0.00  0.00    +0.000 A 
ENDBRANCH   2  10
BRANCH   3  19
ATOM     19  O   UNL     1     113.061 127.589 136.590  0.00  0.00    +0.000 OA
ATOM     20  C   UNL     1     113.116 127.990 137.310  0.00  0.00    +0.000 C 
ENDBRANCH   3  19
BRANCH   5  21
ATOM     21  C   UNL     1     113.242 129.002 135.757  0.00  0.00    +0.000 C 
BRANCH  21  22
ATOM     22  C   UNL     1     113.831 129.070 135.184  0.00  0.00    +0.000 C 
ATOM     23  C   UNL     1     114.443 129.615 135.284  0.00  0.00    +0.000 C 
ATOM     24  C   UNL     1     115.033 129.683 134.711  0.00  0.00    +0.000 C 
ATOM     25  C   UNL     1     114.465 130.091 135.957  0.00  0.00    +0.000 C 
ENDBRANCH  21  22
ENDBRANCH   5  21
TORSDOF 4
ENDMDL
MODEL 5
REMARK VINA RESULT:      -8.1      2.064      3.579
REMARK  Name = 44257507
REMARK  4 active torsions:
REMARK  status: ('A' for Active; 'I' for Inactive)
REMARK    1  A    between atoms: O_2  and  C_11
REMARK    2  A    between atoms: C_5  and  C_8
REMARK    3  A    between atoms: C_13  and  C_18
REMARK    4  A    between atoms: C_18  and  C_21
REMARK                            x       y       z     vdW  Elec       q    Type
REMARK                         _______ _______ _______ _____ _____    ______ ____
ROOT
ATOM      1  O   UNL     1     114.934 126.103 139.124  0.00  0.00    +0.000 OA
ATOM      2  C   UNL     1     112.979 125.741 137.649  0.00  0.00    +0.000 A 
ATOM      3  C   UNL     1     112.884 126.128 138.372  0.00  0.00    +0.000 A 
ATOM      4  C   UNL     1     113.725 125.475 137.419  0.00  0.00    +0.000 A 
ATOM      5  C   UNL     1     113.536 126.249 138.864  0.00  0.00    +0.000 A 
ATOM      6  C   UNL     1     114.282 125.983 138.632  0.00  0.00    +0.000 A 
ATOM      7  C   UNL     1     114.376 125.595 137.910  0.00  0.00    +0.000 A 
ENDROOT
BRANCH   2  10
ATOM      8  O   UNL     1     111.244 124.798 136.718  0.00  0.00    +0.000 OA
ATOM      9  O   UNL     1     109.456 125.718 134.612  0.00  0.00    +0.000 OA
ATOM     10  C   UNL     1     112.327 125.620 137.158  0.00  0.00    +0.000 C 
ATOM     11  C   UNL     1     112.106 126.201 136.615  0.00  0.00    +0.000 C 
ATOM     12  C   UNL     1     111.896 124.918 137.210  0.00  0.00    +0.000 C 
ATOM     13  C   UNL     1     111.455 126.080 136.124  0.00  0.00    +0.000 A 
ATOM     14  C   UNL     1     111.023 125.378 136.176  0.00  0.00    +0.000 A 
ATOM     15  C   UNL     1     111.235 126.693 135.563  0.00  0.00    +0.000 A 
ATOM     16  C   UNL     1     110.342 125.240 135.669  0.00  0.00    +0.000 A 
ATOM     17  C   UNL     1     110.557 126.573 135.049  0.00  0.00    +0.000 A 
ATOM     18  C   UNL     1     110.108 125.841 135.102  0.00  0.00    +0.000 A 
ENDBRANCH   2  10
BRANCH   3  19
ATOM     19  O   UNL     1     112.139 126.395 138.603  0.00  0.00    +0.000 OA
ATOM     20  C   UNL     1     111.745 126.029 139.229  0.00  0.00    +0.000 C 
ENDBRANCH   3  19
BRANCH   5  21
ATOM     21  C   UNL     1     113.442 126.636 139.586  0.00  0.00    +0.000 C 
BRANCH  21  22
ATOM     22  C   UNL     1     113.775 127.381 139.701  0.00  0.00    +0.000 C 
ATOM     23  C   UNL     1     113.764 127.727 140.450  0.00  0.00    +0.000 C 
ATOM     24  C   UNL     1     114.098 128.474 140.565  0.00  0.00    +0.000 C 
ATOM     25  C   UNL     1     113.420 127.328 141.084  0.00  0.00    +0.000 C 
ENDBRANCH  21  22
ENDBRANCH   5  21
TORSDOF 4
ENDMDL
MODEL 6
REMARK VINA RESULT:      -8.0      2.721      4.120
REMARK  Name = 44257507
REMARK  4 active torsions:
REMARK  status: ('A' for Active; 'I' for Inactive)
REMARK    1  A    between atoms: O_2  and  C_11
REMARK    2  A    between atoms: C_5  and  C_8
REMARK    3  A    between atoms: C_13  and  C_18
REMARK    4  A    between atoms: C_18  and  C_21
REMARK                            x       y       z     vdW  Elec       q    Type
REMARK                         _______ _______ _______ _____ _____    ______ ____
ROOT
ATOM      1  O   UNL     1     111.559 126.063 137.117  0.00  0.00    +0.000 OA
ATOM      2  C   UNL     1     112.914 128.056 136.547  0.00  0.00    +0.000 A 
ATOM      3  C   UNL     1     112.186 127.933 136.179  0.00  0.00    +0.000 A 
ATOM      4  C   UNL     1     113.190 127.514 137.105  0.00  0.00    +0.000 A 
ATOM      5  C   UNL     1     111.734 127.268 136.369  0.00  0.00    +0.000 A 
ATOM      6  C   UNL     1     112.011 126.728 136.927  0.00  0.00    +0.000 A 
ATOM      7  C   UNL     1     112.739 126.851 137.295  0.00  0.00    +0.000 A 
ENDROOT
BRANCH   2  10
ATOM      8  O   UNL     1     113.768 130.062 136.634  0.00  0.00    +0.000 OA
ATOM      9  O   UNL     1     115.704 131.402 134.920  0.00  0.00    +0.000 OA
ATOM     10  C   UNL     1     113.365 128.719 136.357  0.00  0.00    +0.000 C 
ATOM     11  C   UNL     1     113.864 128.705 135.700  0.00  0.00    +0.000 C 
ATOM     12  C   UNL     1     113.316 129.398 136.824  0.00  0.00    +0.000 C 
ATOM     13  C   UNL     1     114.315 129.368 135.511  0.00  0.00    +0.000 A 
ATOM     14  C   UNL     1     114.267 130.048 135.978  0.00  0.00    +0.000 A 
ATOM     15  C   UNL     1     114.832 129.341 134.824  0.00  0.00    +0.000 A 
ATOM     16  C   UNL     1     114.732 130.746 135.790  0.00  0.00    +0.000 A 
ATOM     17  C   UNL     1     115.304 130.029 134.621  0.00  0.00    +0.000 A 
ATOM     18  C   UNL     1     115.254 130.737 135.108  0.00  0.00    +0.000 A 
ENDBRANCH   2  10
BRANCH   3  19
ATOM     19  O   UNL     1     111.909 128.473 135.621  0.00  0.00    +0.000 OA
ATOM     20  C   UNL     1     111.283 128.977 135.809  0.00  0.00    +0.000 C 
ENDBRANCH   3  19
BRANCH   5  21
ATOM     21  C   UNL     1     111.006 127.145 136.000  0.00  0.00    +0.000 C 
BRANCH  21  22
ATOM     22  C   UNL     1     110.917 126.532 135.456  0.00  0.00    +0.000 C 
ATOM     23  C   UNL     1     110.170 126.351 135.158  0.00  0.00    +0.000 C 
ATOM     24  C   UNL     1     110.081 125.737 134.613  0.00  0.00    +0.000 C 
ATOM     25  C   UNL     1     109.511 126.782 135.403  0.00  0.00    +0.000 C 
ENDBRANCH  21  22
ENDBRANCH   5  21
TORSDOF 4
ENDMDL
MODEL 7
REMARK VINA RESULT:      -8.0      2.144      3.000
REMARK  Name = 44257507
REMARK  4 active torsions:
REMARK  status: ('A' for Active; 'I' for Inactive)
REMARK    1  A    between atoms: O_2  and  C_11
REMARK    2  A    between atoms: C_5  and  C_8
REMARK    3  A    between atoms: C_13  and  C_18
REMARK    4  A    between atoms: C_18  and  C_21
REMARK                            x       y       z     vdW  Elec       q    Type
REMARK                         _______ _______ _______ _____ _____    ______ ____
ROOT
ATOM      1  O   UNL     1     110.456 125.380 135.328  0.00  0.00    +0.000 OA
ATOM      2  C   UNL     1     111.723 127.472 135.715  0.00  0.00    +0.000 A 
ATOM      3  C   UNL     1     111.814 126.833 136.229  0.00  0.00    +0.000 A 
ATOM      4  C   UNL     1     111.210 127.413 135.071  0.00  0.00    +0.000 A 
ATOM      5  C   UNL     1     111.391 126.136 136.100  0.00  0.00    +0.000 A 
ATOM      6  C   UNL     1     110.879 126.078 135.457  0.00  0.00    +0.000 A 
ATOM      7  C   UNL     1     110.788 126.716 134.942  0.00  0.00    +0.000 A 
ENDROOT
BRANCH   2  10
ATOM      8  O   UNL     1     112.223 129.484 136.397  0.00  0.00    +0.000 OA
ATOM      9  O   UNL     1     114.637 131.079 136.071  0.00  0.00    +0.000 OA
ATOM     10  C   UNL     1     112.145 128.168 135.844  0.00  0.00    +0.000 C 
ATOM     11  C   UNL     1     112.912 128.247 135.550  0.00  0.00    +0.000 C 
ATOM     12  C   UNL     1     111.800 128.787 136.268  0.00  0.00    +0.000 C 
ATOM     13  C   UNL     1     113.334 128.944 135.679  0.00  0.00    +0.000 A 
ATOM     14  C   UNL     1     112.989 129.563 136.103  0.00  0.00    +0.000 A 
ATOM     15  C   UNL     1     114.132 129.013 135.367  0.00  0.00    +0.000 A 
ATOM     16  C   UNL     1     113.419 130.294 136.244  0.00  0.00    +0.000 A 
ATOM     17  C   UNL     1     114.577 129.737 135.499  0.00  0.00    +0.000 A 
ATOM     18  C   UNL     1     114.217 130.381 135.940  0.00  0.00    +0.000 A 
ENDBRANCH   2  10
BRANCH   3  19
ATOM     19  O   UNL     1     112.326 126.891 136.873  0.00  0.00    +0.000 OA
ATOM     20  C   UNL     1     112.023 126.955 137.638  0.00  0.00    +0.000 C 
ENDBRANCH   3  19
BRANCH   5  21
ATOM     21  C   UNL     1     111.482 125.497 136.615  0.00  0.00    +0.000 C 
BRANCH  21  22
ATOM     22  C   UNL     1     111.883 124.822 136.367  0.00  0.00    +0.000 C 
ATOM     23  C   UNL     1     111.935 124.166 136.865  0.00  0.00    +0.000 C 
ATOM     24  C   UNL     1     112.336 123.489 136.616  0.00  0.00    +0.000 C 
ATOM     25  C   UNL     1     111.585 124.187 137.612  0.00  0.00    +0.000 C 
ENDBRANCH  21  22
ENDBRANCH   5  21
TORSDOF 4
ENDMDL
MODEL 8
REMARK VINA RESULT:      -8.0      9.031     11.101
REMARK  Name = 44257507
REMARK  4 active torsions:
REMARK  status: ('A' for Active; 'I' for Inactive)
REMARK    1  A    between atoms: O_2  and  C_11
REMARK    2  A    between atoms: C_5  and  C_8
REMARK    3  A    between atoms: C_13  and  C_18
REMARK    4  A    between atoms: C_18  and  C_21
REMARK                            x       y       z     vdW  Elec       q    Type
REMARK                         _______ _______ _______ _____ _____    ______ ____
ROOT
ATOM      1  O   UNL     1     103.501 128.413 140.618  0.00  0.00    +0.000 OA
ATOM      2  C   UNL     1     102.491 130.588 141.233  0.00  0.00    +0.000 A 
ATOM      3  C   UNL     1     103.057 130.243 141.724  0.00  0.00    +0.000 A 
ATOM      4  C   UNL     1     102.262 130.208 140.538  0.00  0.00    +0.000 A 
ATOM      5  C   UNL     1     103.394 129.517 141.519  0.00  0.00    +0.000 A 
ATOM      6  C   UNL     1     103.164 129.138 140.823  0.00  0.00    +0.000 A 
ATOM      7  C   UNL     1     102.598 129.484 140.333  0.00  0.00    +0.000 A 
ENDROOT
BRANCH   2  10
ATOM      8  O   UNL     1     101.096 132.059 142.044  0.00  0.00    +0.000 OA
ATOM      9  O   UNL     1     101.175 134.969 142.073  0.00  0.00    +0.000 OA
ATOM     10  C   UNL     1     102.154 131.312 141.438  0.00  0.00    +0.000 C 
ATOM     11  C   UNL     1     102.538 132.016 141.243  0.00  0.00    +0.000 C 
ATOM     12  C   UNL     1     101.433 131.333 141.839  0.00  0.00    +0.000 C 
ATOM     13  C   UNL     1     102.202 132.740 141.448  0.00  0.00    +0.000 A 
ATOM     14  C   UNL     1     101.480 132.762 141.849  0.00  0.00    +0.000 A 
ATOM     15  C   UNL     1     102.611 133.467 141.238  0.00  0.00    +0.000 A 
ATOM     16  C   UNL     1     101.119 133.510 142.068  0.00  0.00    +0.000 A 
ATOM     17  C   UNL     1     102.266 134.224 141.449  0.00  0.00    +0.000 A 
ATOM     18  C   UNL     1     101.514 134.246 141.867  0.00  0.00    +0.000 A 
ENDBRANCH   2  10
BRANCH   3  19
ATOM     19  O   UNL     1     103.287 130.622 142.420  0.00  0.00    +0.000 OA
ATOM     20  C   UNL     1     103.072 130.307 143.152  0.00  0.00    +0.000 C 
ENDBRANCH   3  19
BRANCH   5  21
ATOM     21  C   UNL     1     103.960 129.172 142.010  0.00  0.00    +0.000 C 
BRANCH  21  22
ATOM     22  C   UNL     1     104.748 129.138 141.769  0.00  0.00    +0.000 C 
ATOM     23  C   UNL     1     105.298 128.717 142.218  0.00  0.00    +0.000 C 
ATOM     24  C   UNL     1     106.087 128.682 141.977  0.00  0.00    +0.000 C 
ATOM     25  C   UNL     1     105.060 128.330 142.907  0.00  0.00    +0.000 C 
ENDBRANCH  21  22
ENDBRANCH   5  21
TORSDOF 4
ENDMDL
MODEL 9
REMARK VINA RESULT:      -8.0      1.365      4.744
REMARK  Name = 44257507
REMARK  4 active torsions:
REMARK  status: ('A' for Active; 'I' for Inactive)
REMARK    1  A    between atoms: O_2  and  C_11
REMARK    2  A    between atoms: C_5  and  C_8
REMARK    3  A    between atoms: C_13  and  C_18
REMARK    4  A    between atoms: C_18  and  C_21
REMARK                            x       y       z     vdW  Elec       q    Type
REMARK                         _______ _______ _______ _____ _____    ______ ____
ROOT
ATOM      1  O   UNL     1     108.076 128.614 135.690  0.00  0.00    +0.000 OA
ATOM      2  C   UNL     1     109.669 126.730 135.894  0.00  0.00    +0.000 A 
ATOM      3  C   UNL     1     109.929 127.462 135.616  0.00  0.00    +0.000 A 
ATOM      4  C   UNL     1     108.878 126.627 136.104  0.00  0.00    +0.000 A 
ATOM      5  C   UNL     1     109.397 128.091 135.548  0.00  0.00    +0.000 A 
ATOM      6  C   UNL     1     108.607 127.986 135.758  0.00  0.00    +0.000 A 
ATOM      7  C   UNL     1     108.347 127.254 136.037  0.00  0.00    +0.000 A 
ENDROOT
BRANCH   2  10
ATOM      8  O   UNL     1     110.846 124.962 135.393  0.00  0.00    +0.000 OA
ATOM      9  O   UNL     1     112.778 123.436 136.949  0.00  0.00    +0.000 OA
ATOM     10  C   UNL     1     110.199 126.103 135.962  0.00  0.00    +0.000 C 
ATOM     11  C   UNL     1     110.616 125.988 136.665  0.00  0.00    +0.000 C 
ATOM     12  C   UNL     1     110.315 125.589 135.325  0.00  0.00    +0.000 C 
ATOM     13  C   UNL     1     111.146 125.361 136.733  0.00  0.00    +0.000 A 
ATOM     14  C   UNL     1     111.262 124.847 136.096  0.00  0.00    +0.000 A 
ATOM     15  C   UNL     1     111.574 125.251 137.471  0.00  0.00    +0.000 A 
ATOM     16  C   UNL     1     111.812 124.189 136.154  0.00  0.00    +0.000 A 
ATOM     17  C   UNL     1     112.128 124.600 137.547  0.00  0.00    +0.000 A 
ATOM     18  C   UNL     1     112.248 124.065 136.884  0.00  0.00    +0.000 A 
ENDBRANCH   2  10
BRANCH   3  19
ATOM     19  O   UNL     1     110.719 127.567 135.405  0.00  0.00    +0.000 OA
ATOM     20  C   UNL     1     110.926 127.664 134.612  0.00  0.00    +0.000 C 
ENDBRANCH   3  19
BRANCH   5  21
ATOM     21  C   UNL     1     109.657 128.822 135.269  0.00  0.00    +0.000 C 
BRANCH  21  22
ATOM     22  C   UNL     1     109.701 129.466 135.782  0.00  0.00    +0.000 C 
ATOM     23  C   UNL     1     109.862 130.219 135.486  0.00  0.00    +0.000 C 
ATOM     24  C   UNL     1     109.906 130.864 135.999  0.00  0.00    +0.000 C 
ATOM     25  C   UNL     1     109.978 130.328 134.676  0.00  0.00    +0.000 C 
ENDBRANCH  21  22
ENDBRANCH   5  21
TORSDOF 4
ENDMDL
MODEL 10
REMARK VINA RESULT:      -7.9     13.353     14.300
REMARK  Name = 44257507
REMARK  4 active torsions:
REMARK  status: ('A' for Active; 'I' for Inactive)
REMARK    1  A    between atoms: O_2  and  C_11
REMARK    2  A    between atoms: C_5  and  C_8
REMARK    3  A    between atoms: C_13  and  C_18
REMARK    4  A    between atoms: C_18  and  C_21
REMARK                            x       y       z     vdW  Elec       q    Type
REMARK                         _______ _______ _______ _____ _____    ______ ____
ROOT
ATOM      1  O   UNL     1     101.817 122.741 146.612  0.00  0.00    +0.000 OA
ATOM      2  C   UNL     1     103.883 124.103 146.697  0.00  0.00    +0.000 A 
ATOM      3  C   UNL     1     103.295 124.209 147.266  0.00  0.00    +0.000 A 
ATOM      4  C   UNL     1     103.782 123.542 146.100  0.00  0.00    +0.000 A 
ATOM      5  C   UNL     1     102.606 123.755 147.237  0.00  0.00    +0.000 A 
ATOM      6  C   UNL     1     102.506 123.195 146.640  0.00  0.00    +0.000 A 
ATOM      7  C   UNL     1     103.094 123.089 146.071  0.00  0.00    +0.000 A 
ENDROOT
BRANCH   2  10
ATOM      8  O   UNL     1     105.340 125.670 146.264  0.00  0.00    +0.000 OA
ATOM      9  O   UNL     1     107.984 126.193 147.365  0.00  0.00    +0.000 OA
ATOM     10  C   UNL     1     104.571 124.556 146.725  0.00  0.00    +0.000 C 
ATOM     11  C   UNL     1     105.180 124.351 147.243  0.00  0.00    +0.000 C 
ATOM     12  C   UNL     1     104.651 125.216 146.235  0.00  0.00    +0.000 C 
ATOM     13  C   UNL     1     105.868 124.805 147.271  0.00  0.00    +0.000 A 
ATOM     14  C   UNL     1     105.948 125.465 146.781  0.00  0.00    +0.000 A 
ATOM     15  C   UNL     1     106.495 124.581 147.815  0.00  0.00    +0.000 A 
ATOM     16  C   UNL     1     106.660 125.946 146.802  0.00  0.00    +0.000 A 
ATOM     17  C   UNL     1     107.214 125.049 147.849  0.00  0.00    +0.000 A 
ATOM     18  C   UNL     1     107.297 125.737 147.339  0.00  0.00    +0.000 A 
ENDBRANCH   2  10
BRANCH   3  19
ATOM     19  O   UNL     1     103.395 124.769 147.863  0.00  0.00    +0.000 OA
ATOM     20  C   UNL     1     102.950 125.464 147.857  0.00  0.00    +0.000 C 
ENDBRANCH   3  19
BRANCH   5  21
ATOM     21  C   UNL     1     102.019 123.862 147.806  0.00  0.00    +0.000 C 
BRANCH  21  22
ATOM     22  C   UNL     1     101.893 123.285 148.382  0.00  0.00    +0.000 C 
ATOM     23  C   UNL     1     101.261 123.357 148.907  0.00  0.00    +0.000 C 
ATOM     24  C   UNL     1     101.136 122.780 149.485  0.00  0.00    +0.000 C 
ATOM     25  C   UNL     1     100.754 124.006 148.856  0.00  0.00    +0.000 C 
ENDBRANCH  21  22
ENDBRANCH   5  21
TORSDOF 4
ENDMDL
