MODEL 1
REMARK VINA RESULT:      -7.9      0.000      0.000
REMARK  Name = 44259766
REMARK  6 active torsions:
REMARK  status: ('A' for Active; 'I' for Inactive)
REMARK    1  A    between atoms: O_2  and  C_11
REMARK    2  A    between atoms: O_3  and  C_16
REMARK    3  A    between atoms: O_5  and  C_20
REMARK    4  A    between atoms: O_5  and  C_23
REMARK    5  A    between atoms: C_10  and  C_13
REMARK    6  A    between atoms: C_23  and  C_25
REMARK                            x       y       z     vdW  Elec       q    Type
REMARK                         _______ _______ _______ _____ _____    ______ ____
ROOT
ATOM      1  O   UNL     1     110.651 129.472 136.045  0.00  0.00    +0.000 OA
ATOM      2  O   UNL     1     107.765 129.503 135.901  0.00  0.00    +0.000 OA
ATOM      3  O   UNL     1     108.481 128.297 136.235  0.00  0.00    +0.000 OA
ATOM      4  O   UNL     1     109.274 131.946 135.363  0.00  0.00    +0.000 OA
ATOM      5  C   UNL     1     109.223 129.488 135.973  0.00  0.00    +0.000 A 
ATOM      6  C   UNL     1     109.947 129.880 135.910  0.00  0.00    +0.000 A 
ATOM      7  C   UNL     1     110.632 128.671 136.244  0.00  0.00    +0.000 A 
ATOM      8  C   UNL     1     109.907 128.279 136.307  0.00  0.00    +0.000 A 
ATOM      9  C   UNL     1     109.204 128.688 136.172  0.00  0.00    +0.000 A 
ATOM     10  C   UNL     1     108.483 129.903 135.835  0.00  0.00    +0.000 A 
ATOM     11  C   UNL     1     109.981 130.714 135.704  0.00  0.00    +0.000 A 
ATOM     12  C   UNL     1     108.497 130.737 135.628  0.00  0.00    +0.000 A 
ATOM     13  C   UNL     1     109.251 131.145 135.562  0.00  0.00    +0.000 A 
ENDROOT
BRANCH   7  14
ATOM     14  C   UNL     1     111.335 128.262 136.379  0.00  0.00    +0.000 A 
ATOM     15  C   UNL     1     111.630 128.190 137.146  0.00  0.00    +0.000 A 
ATOM     16  C   UNL     1     111.743 127.925 135.747  0.00  0.00    +0.000 A 
ATOM     17  C   UNL     1     112.742 127.444 136.649  0.00  0.00    +0.000 A 
ATOM     18  C   UNL     1     112.333 127.782 137.281  0.00  0.00    +0.000 A 
ATOM     19  C   UNL     1     112.447 127.516 135.882  0.00  0.00    +0.000 A 
BRANCH  17  20
ATOM     20  O   UNL     1     113.446 127.035 136.785  0.00  0.00    +0.000 OA
BRANCH  20  21
ATOM     21  C   UNL     1     113.437 126.212 136.854  0.00  0.00    +0.000 C 
BRANCH  21  22
ATOM     22  C   UNL     1     114.131 125.807 137.040  0.00  0.00    +0.000 C 
ATOM     23  C   UNL     1     114.125 124.985 137.099  0.00  0.00    +0.000 C 
ATOM     24  C   UNL     1     114.820 124.579 137.285  0.00  0.00    +0.000 C 
ATOM     25  C   UNL     1     113.426 124.566 136.973  0.00  0.00    +0.000 C 
ENDBRANCH  21  22
ENDBRANCH  20  21
ENDBRANCH  17  20
ENDBRANCH   7  14
BRANCH   8  26
ATOM     26  O   UNL     1     109.888 127.479 136.506  0.00  0.00    +0.000 OA
ATOM     27  C   UNL     1     109.218 127.028 136.336  0.00  0.00    +0.000 C 
ENDBRANCH   8  26
BRANCH  12  28
ATOM     28  O   UNL     1     107.792 131.143 135.493  0.00  0.00    +0.000 OA
ATOM     29  C   UNL     1     107.506 131.672 136.059  0.00  0.00    +0.000 C 
ENDBRANCH  12  28
TORSDOF 6
ENDMDL
MODEL 2
REMARK VINA RESULT:      -7.8      4.758      5.938
REMARK  Name = 44259766
REMARK  6 active torsions:
REMARK  status: ('A' for Active; 'I' for Inactive)
REMARK    1  A    between atoms: O_2  and  C_11
REMARK    2  A    between atoms: O_3  and  C_16
REMARK    3  A    between atoms: O_5  and  C_20
REMARK    4  A    between atoms: O_5  and  C_23
REMARK    5  A    between atoms: C_10  and  C_13
REMARK    6  A    between atoms: C_23  and  C_25
REMARK                            x       y       z     vdW  Elec       q    Type
REMARK                         _______ _______ _______ _____ _____    ______ ____
ROOT
ATOM      1  O   UNL     1     112.650 128.777 141.545  0.00  0.00    +0.000 OA
ATOM      2  O   UNL     1     113.231 131.565 142.036  0.00  0.00    +0.000 OA
ATOM      3  O   UNL     1     113.818 130.868 140.918  0.00  0.00    +0.000 OA
ATOM      4  O   UNL     1     111.428 130.120 143.822  0.00  0.00    +0.000 OA
ATOM      5  C   UNL     1     112.937 130.156 141.789  0.00  0.00    +0.000 A 
ATOM      6  C   UNL     1     112.547 129.459 141.998  0.00  0.00    +0.000 A 
ATOM      7  C   UNL     1     113.142 128.792 140.883  0.00  0.00    +0.000 A 
ATOM      8  C   UNL     1     113.532 129.489 140.674  0.00  0.00    +0.000 A 
ATOM      9  C   UNL     1     113.429 130.171 141.127  0.00  0.00    +0.000 A 
ATOM     10  C   UNL     1     112.838 130.873 142.253  0.00  0.00    +0.000 A 
ATOM     11  C   UNL     1     112.032 129.431 142.686  0.00  0.00    +0.000 A 
ATOM     12  C   UNL     1     112.327 130.864 142.943  0.00  0.00    +0.000 A 
ATOM     13  C   UNL     1     111.921 130.137 143.161  0.00  0.00    +0.000 A 
ENDROOT
BRANCH   7  14
ATOM     14  C   UNL     1     113.245 128.110 140.430  0.00  0.00    +0.000 A 
ATOM     15  C   UNL     1     113.887 127.611 140.574  0.00  0.00    +0.000 A 
ATOM     16  C   UNL     1     112.707 127.927 139.833  0.00  0.00    +0.000 A 
ATOM     17  C   UNL     1     113.451 126.747 139.524  0.00  0.00    +0.000 A 
ATOM     18  C   UNL     1     113.989 126.930 140.122  0.00  0.00    +0.000 A 
ATOM     19  C   UNL     1     112.810 127.245 139.380  0.00  0.00    +0.000 A 
BRANCH  17  20
ATOM     20  O   UNL     1     113.555 126.065 139.071  0.00  0.00    +0.000 OA
BRANCH  20  21
ATOM     21  C   UNL     1     113.864 126.120 138.308  0.00  0.00    +0.000 C 
BRANCH  21  22
ATOM     22  C   UNL     1     114.193 125.455 137.948  0.00  0.00    +0.000 C 
ATOM     23  C   UNL     1     114.332 125.453 137.134  0.00  0.00    +0.000 C 
ATOM     24  C   UNL     1     114.662 124.788 136.773  0.00  0.00    +0.000 C 
ATOM     25  C   UNL     1     114.142 126.116 136.681  0.00  0.00    +0.000 C 
ENDBRANCH  21  22
ENDBRANCH  20  21
ENDBRANCH  17  20
ENDBRANCH   7  14
BRANCH   8  26
ATOM     26  O   UNL     1     114.024 129.504 140.012  0.00  0.00    +0.000 OA
ATOM     27  C   UNL     1     114.175 130.217 139.627  0.00  0.00    +0.000 C 
ENDBRANCH   8  26
BRANCH  12  28
ATOM     28  O   UNL     1     112.225 131.547 143.394  0.00  0.00    +0.000 OA
ATOM     29  C   UNL     1     111.529 131.985 143.329  0.00  0.00    +0.000 C 
ENDBRANCH  12  28
TORSDOF 6
ENDMDL
MODEL 3
REMARK VINA RESULT:      -7.7      8.007     11.233
REMARK  Name = 44259766
REMARK  6 active torsions:
REMARK  status: ('A' for Active; 'I' for Inactive)
REMARK    1  A    between atoms: O_2  and  C_11
REMARK    2  A    between atoms: O_3  and  C_16
REMARK    3  A    between atoms: O_5  and  C_20
REMARK    4  A    between atoms: O_5  and  C_23
REMARK    5  A    between atoms: C_10  and  C_13
REMARK    6  A    between atoms: C_23  and  C_25
REMARK                            x       y       z     vdW  Elec       q    Type
REMARK                         _______ _______ _______ _____ _____    ______ ____
ROOT
ATOM      1  O   UNL     1     103.536 130.046 142.280  0.00  0.00    +0.000 OA
ATOM      2  O   UNL     1     104.280 127.642 140.859  0.00  0.00    +0.000 OA
ATOM      3  O   UNL     1     103.365 128.595 140.281  0.00  0.00    +0.000 OA
ATOM      4  O   UNL     1     105.389 128.166 143.510  0.00  0.00    +0.000 OA
ATOM      5  C   UNL     1     103.905 128.857 141.578  0.00  0.00    +0.000 A 
ATOM      6  C   UNL     1     103.962 129.341 142.245  0.00  0.00    +0.000 A 
ATOM      7  C   UNL     1     103.053 130.269 141.649  0.00  0.00    +0.000 A 
ATOM      8  C   UNL     1     102.996 129.784 140.982  0.00  0.00    +0.000 A 
ATOM      9  C   UNL     1     103.422 129.079 140.947  0.00  0.00    +0.000 A 
ATOM     10  C   UNL     1     104.344 128.119 141.530  0.00  0.00    +0.000 A 
ATOM     11  C   UNL     1     104.461 129.120 142.909  0.00  0.00    +0.000 A 
ATOM     12  C   UNL     1     104.848 127.882 142.183  0.00  0.00    +0.000 A 
ATOM     13  C   UNL     1     104.907 128.386 142.878  0.00  0.00    +0.000 A 
ENDROOT
BRANCH   7  14
ATOM     14  C   UNL     1     102.627 130.974 141.684  0.00  0.00    +0.000 A 
ATOM     15  C   UNL     1     102.947 131.666 141.368  0.00  0.00    +0.000 A 
ATOM     16  C   UNL     1     101.880 130.988 142.034  0.00  0.00    +0.000 A 
ATOM     17  C   UNL     1     101.775 132.385 141.754  0.00  0.00    +0.000 A 
ATOM     18  C   UNL     1     102.522 132.371 141.403  0.00  0.00    +0.000 A 
ATOM     19  C   UNL     1     101.455 131.694 142.069  0.00  0.00    +0.000 A 
BRANCH  17  20
ATOM     20  O   UNL     1     101.349 133.091 141.789  0.00  0.00    +0.000 OA
BRANCH  20  21
ATOM     21  C   UNL     1     101.498 133.633 142.394  0.00  0.00    +0.000 C 
BRANCH  21  22
ATOM     22  C   UNL     1     101.023 134.302 142.474  0.00  0.00    +0.000 C 
ATOM     23  C   UNL     1     101.187 134.856 143.063  0.00  0.00    +0.000 C 
ATOM     24  C   UNL     1     100.711 135.526 143.143  0.00  0.00    +0.000 C 
ATOM     25  C   UNL     1     101.825 134.740 143.572  0.00  0.00    +0.000 C 
ENDBRANCH  21  22
ENDBRANCH  20  21
ENDBRANCH  17  20
ENDBRANCH   7  14
BRANCH   8  26
ATOM     26  O   UNL     1     102.513 130.007 140.352  0.00  0.00    +0.000 OA
ATOM     27  C   UNL     1     102.263 129.442 139.805  0.00  0.00    +0.000 C 
ENDBRANCH   8  26
BRANCH  12  28
ATOM     28  O   UNL     1     105.273 127.176 142.146  0.00  0.00    +0.000 OA
ATOM     29  C   UNL     1     106.084 127.190 141.994  0.00  0.00    +0.000 C 
ENDBRANCH  12  28
TORSDOF 6
ENDMDL
MODEL 4
REMARK VINA RESULT:      -7.7      7.758      9.691
REMARK  Name = 44259766
REMARK  6 active torsions:
REMARK  status: ('A' for Active; 'I' for Inactive)
REMARK    1  A    between atoms: O_2  and  C_11
REMARK    2  A    between atoms: O_3  and  C_16
REMARK    3  A    between atoms: O_5  and  C_20
REMARK    4  A    between atoms: O_5  and  C_23
REMARK    5  A    between atoms: C_10  and  C_13
REMARK    6  A    between atoms: C_23  and  C_25
REMARK                            x       y       z     vdW  Elec       q    Type
REMARK                         _______ _______ _______ _____ _____    ______ ____
ROOT
ATOM      1  O   UNL     1     105.603 124.734 142.933  0.00  0.00    +0.000 OA
ATOM      2  O   UNL     1     106.940 126.434 144.849  0.00  0.00    +0.000 OA
ATOM      3  O   UNL     1     107.138 126.610 143.431  0.00  0.00    +0.000 OA
ATOM      4  O   UNL     1     105.154 124.319 145.780  0.00  0.00    +0.000 OA
ATOM      5  C   UNL     1     106.264 125.575 143.881  0.00  0.00    +0.000 A 
ATOM      6  C   UNL     1     105.751 124.948 143.715  0.00  0.00    +0.000 A 
ATOM      7  C   UNL     1     105.966 125.145 142.316  0.00  0.00    +0.000 A 
ATOM      8  C   UNL     1     106.478 125.771 142.482  0.00  0.00    +0.000 A 
ATOM      9  C   UNL     1     106.626 125.985 143.265  0.00  0.00    +0.000 A 
ATOM     10  C   UNL     1     106.427 125.807 144.693  0.00  0.00    +0.000 A 
ATOM     11  C   UNL     1     105.367 124.513 144.349  0.00  0.00    +0.000 A 
ATOM     12  C   UNL     1     106.052 125.383 145.339  0.00  0.00    +0.000 A 
ATOM     13  C   UNL     1     105.518 124.731 145.165  0.00  0.00    +0.000 A 
ENDROOT
BRANCH   7  14
ATOM     14  C   UNL     1     105.817 124.931 141.534  0.00  0.00    +0.000 A 
ATOM     15  C   UNL     1     106.178 124.262 141.212  0.00  0.00    +0.000 A 
ATOM     16  C   UNL     1     105.306 125.385 141.072  0.00  0.00    +0.000 A 
ATOM     17  C   UNL     1     105.519 124.503 139.968  0.00  0.00    +0.000 A 
ATOM     18  C   UNL     1     106.030 124.048 140.430  0.00  0.00    +0.000 A 
ATOM     19  C   UNL     1     105.158 125.171 140.289  0.00  0.00    +0.000 A 
BRANCH  17  20
ATOM     20  O   UNL     1     105.371 124.288 139.185  0.00  0.00    +0.000 OA
BRANCH  20  21
ATOM     21  C   UNL     1     104.618 124.029 138.964  0.00  0.00    +0.000 C 
BRANCH  21  22
ATOM     22  C   UNL     1     104.488 123.742 138.202  0.00  0.00    +0.000 C 
ATOM     23  C   UNL     1     103.722 123.565 137.954  0.00  0.00    +0.000 C 
ATOM     24  C   UNL     1     103.592 123.278 137.190  0.00  0.00    +0.000 C 
ATOM     25  C   UNL     1     103.086 123.674 138.467  0.00  0.00    +0.000 C 
ENDBRANCH  21  22
ENDBRANCH  20  21
ENDBRANCH  17  20
ENDBRANCH   7  14
BRANCH   8  26
ATOM     26  O   UNL     1     106.841 126.181 141.866  0.00  0.00    +0.000 OA
ATOM     27  C   UNL     1     107.467 126.694 142.025  0.00  0.00    +0.000 C 
ENDBRANCH   8  26
BRANCH  12  28
ATOM     28  O   UNL     1     106.202 125.600 146.120  0.00  0.00    +0.000 OA
ATOM     29  C   UNL     1     106.749 125.174 146.568  0.00  0.00    +0.000 C 
ENDBRANCH  12  28
TORSDOF 6
ENDMDL
MODEL 5
REMARK VINA RESULT:      -7.6      1.073      1.958
REMARK  Name = 44259766
REMARK  6 active torsions:
REMARK  status: ('A' for Active; 'I' for Inactive)
REMARK    1  A    between atoms: O_2  and  C_11
REMARK    2  A    between atoms: O_3  and  C_16
REMARK    3  A    between atoms: O_5  and  C_20
REMARK    4  A    between atoms: O_5  and  C_23
REMARK    5  A    between atoms: C_10  and  C_13
REMARK    6  A    between atoms: C_23  and  C_25
REMARK                            x       y       z     vdW  Elec       q    Type
REMARK                         _______ _______ _______ _____ _____    ______ ____
ROOT
ATOM      1  O   UNL     1     110.571 129.239 136.366  0.00  0.00    +0.000 OA
ATOM      2  O   UNL     1     109.659 131.975 136.548  0.00  0.00    +0.000 OA
ATOM      3  O   UNL     1     111.053 131.642 136.713  0.00  0.00    +0.000 OA
ATOM      4  O   UNL     1     107.742 129.835 136.022  0.00  0.00    +0.000 OA
ATOM      5  C   UNL     1     110.119 130.592 136.456  0.00  0.00    +0.000 A 
ATOM      6  C   UNL     1     109.959 129.790 136.340  0.00  0.00    +0.000 A 
ATOM      7  C   UNL     1     111.345 129.488 136.507  0.00  0.00    +0.000 A 
ATOM      8  C   UNL     1     111.506 130.290 136.623  0.00  0.00    +0.000 A 
ATOM      9  C   UNL     1     110.892 130.841 136.597  0.00  0.00    +0.000 A 
ATOM     10  C   UNL     1     109.489 131.176 136.431  0.00  0.00    +0.000 A 
ATOM     11  C   UNL     1     109.157 129.517 136.192  0.00  0.00    +0.000 A 
ATOM     12  C   UNL     1     108.681 130.922 136.284  0.00  0.00    +0.000 A 
ATOM     13  C   UNL     1     108.514 130.087 136.164  0.00  0.00    +0.000 A 
ENDROOT
BRANCH   7  14
ATOM     14  C   UNL     1     111.958 128.937 136.533  0.00  0.00    +0.000 A 
ATOM     15  C   UNL     1     112.173 128.591 137.251  0.00  0.00    +0.000 A 
ATOM     16  C   UNL     1     112.357 128.731 135.841  0.00  0.00    +0.000 A 
ATOM     17  C   UNL     1     113.185 127.835 136.584  0.00  0.00    +0.000 A 
ATOM     18  C   UNL     1     112.786 128.041 137.277  0.00  0.00    +0.000 A 
ATOM     19  C   UNL     1     112.970 128.180 135.867  0.00  0.00    +0.000 A 
BRANCH  17  20
ATOM     20  O   UNL     1     113.798 127.283 136.611  0.00  0.00    +0.000 OA
BRANCH  20  21
ATOM     21  C   UNL     1     113.626 126.478 136.676  0.00  0.00    +0.000 C 
BRANCH  21  22
ATOM     22  C   UNL     1     114.203 125.954 136.944  0.00  0.00    +0.000 C 
ATOM     23  C   UNL     1     114.088 125.140 136.868  0.00  0.00    +0.000 C 
ATOM     24  C   UNL     1     114.666 124.615 137.136  0.00  0.00    +0.000 C 
ATOM     25  C   UNL     1     113.396 124.851 136.525  0.00  0.00    +0.000 C 
ENDBRANCH  21  22
ENDBRANCH  20  21
ENDBRANCH  17  20
ENDBRANCH   7  14
BRANCH   8  26
ATOM     26  O   UNL     1     112.279 130.539 136.764  0.00  0.00    +0.000 OA
ATOM     27  C   UNL     1     112.419 131.281 137.096  0.00  0.00    +0.000 C 
ENDBRANCH   8  26
BRANCH  12  28
ATOM     28  O   UNL     1     108.070 131.475 136.259  0.00  0.00    +0.000 OA
ATOM     29  C   UNL     1     107.780 131.737 135.532  0.00  0.00    +0.000 C 
ENDBRANCH  12  28
TORSDOF 6
ENDMDL
MODEL 6
REMARK VINA RESULT:      -7.6      8.758     10.870
REMARK  Name = 44259766
REMARK  6 active torsions:
REMARK  status: ('A' for Active; 'I' for Inactive)
REMARK    1  A    between atoms: O_2  and  C_11
REMARK    2  A    between atoms: O_3  and  C_16
REMARK    3  A    between atoms: O_5  and  C_20
REMARK    4  A    between atoms: O_5  and  C_23
REMARK    5  A    between atoms: C_10  and  C_13
REMARK    6  A    between atoms: C_23  and  C_25
REMARK                            x       y       z     vdW  Elec       q    Type
REMARK                         _______ _______ _______ _____ _____    ______ ____
ROOT
ATOM      1  O   UNL     1     105.364 126.513 144.174  0.00  0.00    +0.000 OA
ATOM      2  O   UNL     1     107.299 126.310 146.310  0.00  0.00    +0.000 OA
ATOM      3  O   UNL     1     107.298 127.437 145.411  0.00  0.00    +0.000 OA
ATOM      4  O   UNL     1     105.304 124.206 145.950  0.00  0.00    +0.000 OA
ATOM      5  C   UNL     1     106.320 126.412 145.231  0.00  0.00    +0.000 A 
ATOM      6  C   UNL     1     105.675 126.103 144.818  0.00  0.00    +0.000 A 
ATOM      7  C   UNL     1     105.696 127.231 143.941  0.00  0.00    +0.000 A 
ATOM      8  C   UNL     1     106.342 127.540 144.354  0.00  0.00    +0.000 A 
ATOM      9  C   UNL     1     106.653 127.129 144.999  0.00  0.00    +0.000 A 
ATOM     10  C   UNL     1     106.654 125.994 145.904  0.00  0.00    +0.000 A 
ATOM     11  C   UNL     1     105.319 125.356 145.050  0.00  0.00    +0.000 A 
ATOM     12  C   UNL     1     106.311 125.246 146.150  0.00  0.00    +0.000 A 
ATOM     13  C   UNL     1     105.639 124.924 145.720  0.00  0.00    +0.000 A 
ENDROOT
BRANCH   7  14
ATOM     14  C   UNL     1     105.385 127.641 143.297  0.00  0.00    +0.000 A 
ATOM     15  C   UNL     1     104.911 128.306 143.420  0.00  0.00    +0.000 A 
ATOM     16  C   UNL     1     105.548 127.387 142.529  0.00  0.00    +0.000 A 
ATOM     17  C   UNL     1     104.763 128.461 142.008  0.00  0.00    +0.000 A 
ATOM     18  C   UNL     1     104.600 128.715 142.776  0.00  0.00    +0.000 A 
ATOM     19  C   UNL     1     105.236 127.798 141.885  0.00  0.00    +0.000 A 
BRANCH  17  20
ATOM     20  O   UNL     1     104.451 128.872 141.363  0.00  0.00    +0.000 OA
BRANCH  20  21
ATOM     21  C   UNL     1     103.643 129.043 141.335  0.00  0.00    +0.000 C 
BRANCH  21  22
ATOM     22  C   UNL     1     103.236 128.990 140.620  0.00  0.00    +0.000 C 
ATOM     23  C   UNL     1     102.606 129.500 140.465  0.00  0.00    +0.000 C 
ATOM     24  C   UNL     1     102.198 129.446 139.750  0.00  0.00    +0.000 C 
ATOM     25  C   UNL     1     102.384 130.063 141.025  0.00  0.00    +0.000 C 
ENDBRANCH  21  22
ENDBRANCH  20  21
ENDBRANCH  17  20
ENDBRANCH   7  14
BRANCH   8  26
ATOM     26  O   UNL     1     106.675 128.258 144.122  0.00  0.00    +0.000 OA
ATOM     27  C   UNL     1     107.395 128.501 144.442  0.00  0.00    +0.000 C 
ENDBRANCH   8  26
BRANCH  12  28
ATOM     28  O   UNL     1     106.625 124.838 146.795  0.00  0.00    +0.000 OA
ATOM     29  C   UNL     1     106.256 124.884 147.532  0.00  0.00    +0.000 C 
ENDBRANCH  12  28
TORSDOF 6
ENDMDL
MODEL 7
REMARK VINA RESULT:      -7.4      1.571      5.745
REMARK  Name = 44259766
REMARK  6 active torsions:
REMARK  status: ('A' for Active; 'I' for Inactive)
REMARK    1  A    between atoms: O_2  and  C_11
REMARK    2  A    between atoms: O_3  and  C_16
REMARK    3  A    between atoms: O_5  and  C_20
REMARK    4  A    between atoms: O_5  and  C_23
REMARK    5  A    between atoms: C_10  and  C_13
REMARK    6  A    between atoms: C_23  and  C_25
REMARK                            x       y       z     vdW  Elec       q    Type
REMARK                         _______ _______ _______ _____ _____    ______ ____
ROOT
ATOM      1  O   UNL     1     111.632 127.268 136.323  0.00  0.00    +0.000 OA
ATOM      2  O   UNL     1     112.029 124.409 136.465  0.00  0.00    +0.000 OA
ATOM      3  O   UNL     1     110.945 124.973 135.700  0.00  0.00    +0.000 OA
ATOM      4  O   UNL     1     113.844 126.201 137.888  0.00  0.00    +0.000 OA
ATOM      5  C   UNL     1     111.829 125.854 136.394  0.00  0.00    +0.000 A 
ATOM      6  C   UNL     1     112.059 126.620 136.602  0.00  0.00    +0.000 A 
ATOM      7  C   UNL     1     110.976 127.152 135.836  0.00  0.00    +0.000 A 
ATOM      8  C   UNL     1     110.746 126.386 135.628  0.00  0.00    +0.000 A 
ATOM      9  C   UNL     1     111.174 125.738 135.907  0.00  0.00    +0.000 A 
ATOM     10  C   UNL     1     112.266 125.170 136.678  0.00  0.00    +0.000 A 
ATOM     11  C   UNL     1     112.740 126.753 137.108  0.00  0.00    +0.000 A 
ATOM     12  C   UNL     1     112.950 125.285 137.185  0.00  0.00    +0.000 A 
ATOM     13  C   UNL     1     113.188 126.082 137.402  0.00  0.00    +0.000 A 
ENDROOT
BRANCH   7  14
ATOM     14  C   UNL     1     110.549 127.800 135.557  0.00  0.00    +0.000 A 
ATOM     15  C   UNL     1     110.810 128.211 134.891  0.00  0.00    +0.000 A 
ATOM     16  C   UNL     1     109.861 128.038 135.945  0.00  0.00    +0.000 A 
ATOM     17  C   UNL     1     109.695 129.097 135.000  0.00  0.00    +0.000 A 
ATOM     18  C   UNL     1     110.384 128.859 134.612  0.00  0.00    +0.000 A 
ATOM     19  C   UNL     1     109.434 128.687 135.665  0.00  0.00    +0.000 A 
BRANCH  17  20
ATOM     20  O   UNL     1     109.269 129.746 134.720  0.00  0.00    +0.000 OA
BRANCH  20  21
ATOM     21  C   UNL     1     109.378 130.490 135.062  0.00  0.00    +0.000 C 
BRANCH  21  22
ATOM     22  C   UNL     1     109.025 131.154 134.725  0.00  0.00    +0.000 C 
ATOM     23  C   UNL     1     109.058 131.881 135.114  0.00  0.00    +0.000 C 
ATOM     24  C   UNL     1     108.704 132.546 134.778  0.00  0.00    +0.000 C 
ATOM     25  C   UNL     1     109.446 131.943 135.840  0.00  0.00    +0.000 C 
ENDBRANCH  21  22
ENDBRANCH  20  21
ENDBRANCH  17  20
ENDBRANCH   7  14
BRANCH   8  26
ATOM     26  O   UNL     1     110.091 126.270 135.142  0.00  0.00    +0.000 OA
ATOM     27  C   UNL     1     110.050 125.604 134.658  0.00  0.00    +0.000 C 
ENDBRANCH   8  26
BRANCH  12  28
ATOM     28  O   UNL     1     113.374 124.634 137.463  0.00  0.00    +0.000 OA
ATOM     29  C   UNL     1     114.140 124.493 137.188  0.00  0.00    +0.000 C 
ENDBRANCH  12  28
TORSDOF 6
ENDMDL
MODEL 8
REMARK VINA RESULT:      -7.4      1.298      2.202
REMARK  Name = 44259766
REMARK  6 active torsions:
REMARK  status: ('A' for Active; 'I' for Inactive)
REMARK    1  A    between atoms: O_2  and  C_11
REMARK    2  A    between atoms: O_3  and  C_16
REMARK    3  A    between atoms: O_5  and  C_20
REMARK    4  A    between atoms: O_5  and  C_23
REMARK    5  A    between atoms: C_10  and  C_13
REMARK    6  A    between atoms: C_23  and  C_25
REMARK                            x       y       z     vdW  Elec       q    Type
REMARK                         _______ _______ _______ _____ _____    ______ ____
ROOT
ATOM      1  O   UNL     1     109.403 128.509 135.875  0.00  0.00    +0.000 OA
ATOM      2  O   UNL     1     110.313 131.250 135.796  0.00  0.00    +0.000 OA
ATOM      3  O   UNL     1     111.250 130.153 135.794  0.00  0.00    +0.000 OA
ATOM      4  O   UNL     1     107.451 130.670 135.881  0.00  0.00    +0.000 OA
ATOM      5  C   UNL     1     109.852 129.865 135.836  0.00  0.00    +0.000 A 
ATOM      6  C   UNL     1     109.235 129.316 135.863  0.00  0.00    +0.000 A 
ATOM      7  C   UNL     1     110.185 128.248 135.860  0.00  0.00    +0.000 A 
ATOM      8  C   UNL     1     110.802 128.797 135.833  0.00  0.00    +0.000 A 
ATOM      9  C   UNL     1     110.634 129.605 135.821  0.00  0.00    +0.000 A 
ATOM     10  C   UNL     1     109.690 130.709 135.823  0.00  0.00    +0.000 A 
ATOM     11  C   UNL     1     108.415 129.574 135.878  0.00  0.00    +0.000 A 
ATOM     12  C   UNL     1     108.877 130.985 135.838  0.00  0.00    +0.000 A 
ATOM     13  C   UNL     1     108.235 130.414 135.866  0.00  0.00    +0.000 A 
ENDROOT
BRANCH   7  14
ATOM     14  C   UNL     1     110.353 127.441 135.872  0.00  0.00    +0.000 A 
ATOM     15  C   UNL     1     110.507 127.040 135.167  0.00  0.00    +0.000 A 
ATOM     16  C   UNL     1     110.366 127.033 136.589  0.00  0.00    +0.000 A 
ATOM     17  C   UNL     1     110.687 125.826 135.896  0.00  0.00    +0.000 A 
ATOM     18  C   UNL     1     110.674 126.233 135.179  0.00  0.00    +0.000 A 
ATOM     19  C   UNL     1     110.533 126.225 136.601  0.00  0.00    +0.000 A 
BRANCH  17  20
ATOM     20  O   UNL     1     110.855 125.018 135.908  0.00  0.00    +0.000 OA
BRANCH  20  21
ATOM     21  C   UNL     1     111.551 124.746 136.260  0.00  0.00    +0.000 C 
BRANCH  21  22
ATOM     22  C   UNL     1     111.581 123.987 136.581  0.00  0.00    +0.000 C 
ATOM     23  C   UNL     1     112.304 123.667 136.816  0.00  0.00    +0.000 C 
ATOM     24  C   UNL     1     112.335 122.907 137.137  0.00  0.00    +0.000 C 
ATOM     25  C   UNL     1     112.997 124.106 136.730  0.00  0.00    +0.000 C 
ENDBRANCH  21  22
ENDBRANCH  20  21
ENDBRANCH  17  20
ENDBRANCH   7  14
BRANCH   8  26
ATOM     26  O   UNL     1     111.584 128.538 135.818  0.00  0.00    +0.000 OA
ATOM     27  C   UNL     1     112.197 129.064 135.988  0.00  0.00    +0.000 C 
ENDBRANCH   8  26
BRANCH  12  28
ATOM     28  O   UNL     1     108.713 131.794 135.826  0.00  0.00    +0.000 OA
ATOM     29  C   UNL     1     108.510 132.163 135.117  0.00  0.00    +0.000 C 
ENDBRANCH  12  28
TORSDOF 6
ENDMDL
MODEL 9
REMARK VINA RESULT:      -7.3      1.827      5.486
REMARK  Name = 44259766
REMARK  6 active torsions:
REMARK  status: ('A' for Active; 'I' for Inactive)
REMARK    1  A    between atoms: O_2  and  C_11
REMARK    2  A    between atoms: O_3  and  C_16
REMARK    3  A    between atoms: O_5  and  C_20
REMARK    4  A    between atoms: O_5  and  C_23
REMARK    5  A    between atoms: C_10  and  C_13
REMARK    6  A    between atoms: C_23  and  C_25
REMARK                            x       y       z     vdW  Elec       q    Type
REMARK                         _______ _______ _______ _____ _____    ______ ____
ROOT
ATOM      1  O   UNL     1     112.327 127.234 136.696  0.00  0.00    +0.000 OA
ATOM      2  O   UNL     1     110.860 124.885 135.871  0.00  0.00    +0.000 OA
ATOM      3  O   UNL     1     110.269 126.198 135.791  0.00  0.00    +0.000 OA
ATOM      4  O   UNL     1     113.586 124.615 136.885  0.00  0.00    +0.000 OA
ATOM      5  C   UNL     1     111.602 126.072 136.288  0.00  0.00    +0.000 A 
ATOM      6  C   UNL     1     112.289 126.417 136.590  0.00  0.00    +0.000 A 
ATOM      7  C   UNL     1     111.679 127.707 136.501  0.00  0.00    +0.000 A 
ATOM      8  C   UNL     1     110.993 127.361 136.199  0.00  0.00    +0.000 A 
ATOM      9  C   UNL     1     110.955 126.544 136.093  0.00  0.00    +0.000 A 
ATOM     10  C   UNL     1     111.550 125.221 136.173  0.00  0.00    +0.000 A 
ATOM     11  C   UNL     1     112.970 125.936 136.797  0.00  0.00    +0.000 A 
ATOM     12  C   UNL     1     112.221 124.725 136.375  0.00  0.00    +0.000 A 
ATOM     13  C   UNL     1     112.936 125.085 136.689  0.00  0.00    +0.000 A 
ENDROOT
BRANCH   7  14
ATOM     14  C   UNL     1     111.717 128.523 136.606  0.00  0.00    +0.000 A 
ATOM     15  C   UNL     1     111.981 129.008 135.993  0.00  0.00    +0.000 A 
ATOM     16  C   UNL     1     111.491 128.857 137.326  0.00  0.00    +0.000 A 
ATOM     17  C   UNL     1     111.793 130.158 136.819  0.00  0.00    +0.000 A 
ATOM     18  C   UNL     1     112.020 129.825 136.099  0.00  0.00    +0.000 A 
ATOM     19  C   UNL     1     111.530 129.674 137.432  0.00  0.00    +0.000 A 
BRANCH  17  20
ATOM     20  O   UNL     1     111.832 130.975 136.924  0.00  0.00    +0.000 OA
BRANCH  20  21
ATOM     21  C   UNL     1     111.153 131.436 136.826  0.00  0.00    +0.000 C 
BRANCH  21  22
ATOM     22  C   UNL     1     111.194 132.254 136.919  0.00  0.00    +0.000 C 
ATOM     23  C   UNL     1     110.527 132.719 136.777  0.00  0.00    +0.000 C 
ATOM     24  C   UNL     1     110.567 133.538 136.870  0.00  0.00    +0.000 C 
ATOM     25  C   UNL     1     109.820 132.365 136.542  0.00  0.00    +0.000 C 
ENDBRANCH  21  22
ENDBRANCH  20  21
ENDBRANCH  17  20
ENDBRANCH   7  14
BRANCH   8  26
ATOM     26  O   UNL     1     110.345 127.833 136.003  0.00  0.00    +0.000 OA
ATOM     27  C   UNL     1     109.706 127.508 135.596  0.00  0.00    +0.000 C 
ENDBRANCH   8  26
BRANCH  12  28
ATOM     28  O   UNL     1     112.180 123.908 136.268  0.00  0.00    +0.000 OA
ATOM     29  C   UNL     1     112.060 123.412 136.916  0.00  0.00    +0.000 C 
ENDBRANCH  12  28
TORSDOF 6
ENDMDL
MODEL 10
REMARK VINA RESULT:      -7.3      4.569      5.561
REMARK  Name = 44259766
REMARK  6 active torsions:
REMARK  status: ('A' for Active; 'I' for Inactive)
REMARK    1  A    between atoms: O_2  and  C_11
REMARK    2  A    between atoms: O_3  and  C_16
REMARK    3  A    between atoms: O_5  and  C_20
REMARK    4  A    between atoms: O_5  and  C_23
REMARK    5  A    between atoms: C_10  and  C_13
REMARK    6  A    between atoms: C_23  and  C_25
REMARK                            x       y       z     vdW  Elec       q    Type
REMARK                         _______ _______ _______ _____ _____    ______ ____
ROOT
ATOM      1  O   UNL     1     112.944 128.869 140.872  0.00  0.00    +0.000 OA
ATOM      2  O   UNL     1     111.331 129.199 143.246  0.00  0.00    +0.000 OA
ATOM      3  O   UNL     1     111.326 127.960 142.509  0.00  0.00    +0.000 OA
ATOM      4  O   UNL     1     113.006 131.401 142.309  0.00  0.00    +0.000 OA
ATOM      5  C   UNL     1     112.147 129.033 142.046  0.00  0.00    +0.000 A 
ATOM      6  C   UNL     1     112.687 129.337 141.500  0.00  0.00    +0.000 A 
ATOM      7  C   UNL     1     112.663 128.098 140.789  0.00  0.00    +0.000 A 
ATOM      8  C   UNL     1     112.123 127.794 141.335  0.00  0.00    +0.000 A 
ATOM      9  C   UNL     1     111.866 128.263 141.964  0.00  0.00    +0.000 A 
ATOM     10  C   UNL     1     111.871 129.511 142.706  0.00  0.00    +0.000 A 
ATOM     11  C   UNL     1     112.987 130.138 141.576  0.00  0.00    +0.000 A 
ATOM     12  C   UNL     1     112.160 130.315 142.797  0.00  0.00    +0.000 A 
ATOM     13  C   UNL     1     112.723 130.630 142.228  0.00  0.00    +0.000 A 
ENDROOT
BRANCH   7  14
ATOM     14  C   UNL     1     112.921 127.630 140.161  0.00  0.00    +0.000 A 
ATOM     15  C   UNL     1     113.522 127.077 140.276  0.00  0.00    +0.000 A 
ATOM     16  C   UNL     1     112.576 127.714 139.415  0.00  0.00    +0.000 A 
ATOM     17  C   UNL     1     113.436 126.694 138.903  0.00  0.00    +0.000 A 
ATOM     18  C   UNL     1     113.780 126.609 139.648  0.00  0.00    +0.000 A 
ATOM     19  C   UNL     1     112.834 127.246 138.787  0.00  0.00    +0.000 A 
BRANCH  17  20
ATOM     20  O   UNL     1     113.694 126.225 138.275  0.00  0.00    +0.000 OA
BRANCH  20  21
ATOM     21  C   UNL     1     113.206 125.629 137.977  0.00  0.00    +0.000 C 
BRANCH  21  22
ATOM     22  C   UNL     1     113.488 125.117 137.396  0.00  0.00    +0.000 C 
ATOM     23  C   UNL     1     112.982 124.561 137.055  0.00  0.00    +0.000 C 
ATOM     24  C   UNL     1     113.265 124.049 136.473  0.00  0.00    +0.000 C 
ATOM     25  C   UNL     1     112.195 124.517 137.295  0.00  0.00    +0.000 C 
ENDBRANCH  21  22
ENDBRANCH  20  21
ENDBRANCH  17  20
ENDBRANCH   7  14
BRANCH   8  26
ATOM     26  O   UNL     1     111.842 127.024 141.252  0.00  0.00    +0.000 OA
ATOM     27  C   UNL     1     111.070 126.840 141.479  0.00  0.00    +0.000 C 
ENDBRANCH   8  26
BRANCH  12  28
ATOM     28  O   UNL     1     111.901 130.780 143.427  0.00  0.00    +0.000 OA
ATOM     29  C   UNL     1     111.333 131.365 143.300  0.00  0.00    +0.000 C 
ENDBRANCH  12  28
TORSDOF 6
ENDMDL
