MODEL 1
REMARK VINA RESULT:      -8.8      0.000      0.000
REMARK  Name = 44259550
REMARK  7 active torsions:
REMARK  status: ('A' for Active; 'I' for Inactive)
REMARK    1  A    between atoms: O_2  and  C_17
REMARK    2  A    between atoms: O_2  and  C_19
REMARK    3  A    between atoms: O_6  and  C_18
REMARK    4  A    between atoms: O_6  and  C_24
REMARK    5  A    between atoms: O_11  and  C_32
REMARK    6  A    between atoms: C_15  and  C_18
REMARK    7  A    between atoms: C_20  and  C_25
REMARK                            x       y       z     vdW  Elec       q    Type
REMARK                         _______ _______ _______ _____ _____    ______ ____
ROOT
ATOM      1  O   UNL     1     113.809 127.277 136.313  0.00  0.00    +0.000 OA
ATOM      2  O   UNL     1     112.039 128.282 137.723  0.00  0.00    +0.000 OA
ATOM      3  O   UNL     1     112.148 129.536 137.016  0.00  0.00    +0.000 OA
ATOM      4  C   UNL     1     112.860 127.165 137.376  0.00  0.00    +0.000 A 
ATOM      5  C   UNL     1     113.450 126.830 136.906  0.00  0.00    +0.000 A 
ATOM      6  C   UNL     1     112.629 127.947 137.253  0.00  0.00    +0.000 A 
ATOM      7  C   UNL     1     112.988 128.395 136.660  0.00  0.00    +0.000 A 
ATOM      8  C   UNL     1     113.577 128.060 136.190  0.00  0.00    +0.000 A 
ATOM      9  C   UNL     1     112.739 129.209 136.542  0.00  0.00    +0.000 A 
ATOM     10  C   UNL     1     113.960 128.516 135.569  0.00  0.00    +0.000 A 
ATOM     11  C   UNL     1     113.109 129.680 135.926  0.00  0.00    +0.000 A 
ATOM     12  C   UNL     1     113.723 129.331 135.436  0.00  0.00    +0.000 A 
ENDROOT
BRANCH   5  14
ATOM     13  O   UNL     1     114.372 123.700 137.402  0.00  0.00    +0.000 OA
ATOM     14  C   UNL     1     113.680 126.048 137.029  0.00  0.00    +0.000 A 
ATOM     15  C   UNL     1     113.440 125.458 136.504  0.00  0.00    +0.000 A 
ATOM     16  C   UNL     1     114.151 125.854 137.679  0.00  0.00    +0.000 A 
ATOM     17  C   UNL     1     113.671 124.676 136.628  0.00  0.00    +0.000 A 
ATOM     18  C   UNL     1     114.381 125.072 137.803  0.00  0.00    +0.000 A 
ATOM     19  C   UNL     1     114.141 124.483 137.277  0.00  0.00    +0.000 A 
ENDBRANCH   5  14
BRANCH  12  20
ATOM     20  O   UNL     1     114.084 129.776 134.842  0.00  0.00    +0.000 OA
ATOM     21  C   UNL     1     114.738 130.247 135.019  0.00  0.00    +0.000 C 
ENDBRANCH  12  20
BRANCH   4  22
ATOM     22  O   UNL     1     112.501 126.717 137.969  0.00  0.00    +0.000 OA
BRANCH  22  31
ATOM     23  O   UNL     1     111.270 126.563 137.260  0.00  0.00    +0.000 OA
ATOM     24  O   UNL     1     109.224 126.323 137.984  0.00  0.00    +0.000 OA
ATOM     25  O   UNL     1     110.048 126.435 139.409  0.00  0.00    +0.000 OA
ATOM     26  O   UNL     1     111.686 126.633 139.401  0.00  0.00    +0.000 OA
ATOM     27  C   UNL     1     110.044 126.422 137.980  0.00  0.00    +0.000 C 
ATOM     28  C   UNL     1     110.455 126.478 138.693  0.00  0.00    +0.000 C 
ATOM     29  C   UNL     1     110.451 126.464 137.263  0.00  0.00    +0.000 C 
ATOM     30  C   UNL     1     111.275 126.577 138.689  0.00  0.00    +0.000 C 
ATOM     31  C   UNL     1     111.682 126.619 137.972  0.00  0.00    +0.000 C 
BRANCH  29  32
ATOM     32  C   UNL     1     110.039 126.408 136.551  0.00  0.00    +0.000 C 
BRANCH  32  33
ATOM     33  O   UNL     1     110.339 125.951 135.935  0.00  0.00    +0.000 OA
BRANCH  33  35
ATOM     34  O   UNL     1     109.333 125.623 134.974  0.00  0.00    +0.000 OA
ATOM     35  C   UNL     1     110.026 126.024 135.175  0.00  0.00    +0.000 C 
ATOM     36  C   UNL     1     110.405 126.497 134.616  0.00  0.00    +0.000 C 
ENDBRANCH  33  35
ENDBRANCH  32  33
ENDBRANCH  29  32
ENDBRANCH  22  31
ENDBRANCH   4  22
TORSDOF 7
ENDMDL
MODEL 2
REMARK VINA RESULT:      -8.8      1.492      3.588
REMARK  Name = 44259550
REMARK  7 active torsions:
REMARK  status: ('A' for Active; 'I' for Inactive)
REMARK    1  A    between atoms: O_2  and  C_17
REMARK    2  A    between atoms: O_2  and  C_19
REMARK    3  A    between atoms: O_6  and  C_18
REMARK    4  A    between atoms: O_6  and  C_24
REMARK    5  A    between atoms: O_11  and  C_32
REMARK    6  A    between atoms: C_15  and  C_18
REMARK    7  A    between atoms: C_20  and  C_25
REMARK                            x       y       z     vdW  Elec       q    Type
REMARK                         _______ _______ _______ _____ _____    ______ ____
ROOT
ATOM      1  O   UNL     1     112.911 126.071 138.623  0.00  0.00    +0.000 OA
ATOM      2  O   UNL     1     110.603 125.697 137.809  0.00  0.00    +0.000 OA
ATOM      3  O   UNL     1     110.056 126.147 139.067  0.00  0.00    +0.000 OA
ATOM      4  C   UNL     1     112.014 125.659 137.589  0.00  0.00    +0.000 A 
ATOM      5  C   UNL     1     112.784 125.783 137.860  0.00  0.00    +0.000 A 
ATOM      6  C   UNL     1     111.373 125.822 138.081  0.00  0.00    +0.000 A 
ATOM      7  C   UNL     1     111.500 126.109 138.844  0.00  0.00    +0.000 A 
ATOM      8  C   UNL     1     112.268 126.233 139.114  0.00  0.00    +0.000 A 
ATOM      9  C   UNL     1     110.822 126.275 139.346  0.00  0.00    +0.000 A 
ATOM     10  C   UNL     1     112.415 126.532 139.907  0.00  0.00    +0.000 A 
ATOM     11  C   UNL     1     110.948 126.574 140.142  0.00  0.00    +0.000 A 
ATOM     12  C   UNL     1     111.750 126.704 140.424  0.00  0.00    +0.000 A 
ENDROOT
BRANCH   5  14
ATOM     13  O   UNL     1     115.350 125.129 135.891  0.00  0.00    +0.000 OA
ATOM     14  C   UNL     1     113.425 125.621 137.368  0.00  0.00    +0.000 A 
ATOM     15  C   UNL     1     113.840 126.238 137.012  0.00  0.00    +0.000 A 
ATOM     16  C   UNL     1     113.652 124.838 137.232  0.00  0.00    +0.000 A 
ATOM     17  C   UNL     1     114.482 126.074 136.519  0.00  0.00    +0.000 A 
ATOM     18  C   UNL     1     114.294 124.675 136.740  0.00  0.00    +0.000 A 
ATOM     19  C   UNL     1     114.709 125.293 136.383  0.00  0.00    +0.000 A 
ENDBRANCH   5  14
BRANCH  12  20
ATOM     20  O   UNL     1     111.880 126.991 141.186  0.00  0.00    +0.000 OA
ATOM     21  C   UNL     1     111.957 127.802 141.314  0.00  0.00    +0.000 C 
ENDBRANCH  12  20
BRANCH   4  22
ATOM     22  O   UNL     1     111.887 125.372 136.826  0.00  0.00    +0.000 OA
BRANCH  22  31
ATOM     23  O   UNL     1     111.447 126.628 136.307  0.00  0.00    +0.000 OA
ATOM     24  O   UNL     1     110.051 127.100 134.697  0.00  0.00    +0.000 OA
ATOM     25  O   UNL     1     110.012 125.450 134.670  0.00  0.00    +0.000 OA
ATOM     26  O   UNL     1     110.931 124.586 135.734  0.00  0.00    +0.000 OA
ATOM     27  C   UNL     1     110.510 126.667 135.229  0.00  0.00    +0.000 C 
ATOM     28  C   UNL     1     110.491 125.843 135.216  0.00  0.00    +0.000 C 
ATOM     29  C   UNL     1     110.988 127.060 135.775  0.00  0.00    +0.000 C 
ATOM     30  C   UNL     1     110.950 125.411 135.748  0.00  0.00    +0.000 C 
ATOM     31  C   UNL     1     111.428 125.803 136.294  0.00  0.00    +0.000 C 
BRANCH  29  32
ATOM     32  C   UNL     1     111.007 127.885 135.788  0.00  0.00    +0.000 C 
BRANCH  32  33
ATOM     33  O   UNL     1     111.723 128.280 135.894  0.00  0.00    +0.000 OA
BRANCH  33  35
ATOM     34  O   UNL     1     111.725 129.605 135.359  0.00  0.00    +0.000 OA
ATOM     35  C   UNL     1     111.731 129.097 136.010  0.00  0.00    +0.000 C 
ATOM     36  C   UNL     1     111.744 129.406 136.774  0.00  0.00    +0.000 C 
ENDBRANCH  33  35
ENDBRANCH  32  33
ENDBRANCH  29  32
ENDBRANCH  22  31
ENDBRANCH   4  22
TORSDOF 7
ENDMDL
MODEL 3
REMARK VINA RESULT:      -8.5      1.858      3.759
REMARK  Name = 44259550
REMARK  7 active torsions:
REMARK  status: ('A' for Active; 'I' for Inactive)
REMARK    1  A    between atoms: O_2  and  C_17
REMARK    2  A    between atoms: O_2  and  C_19
REMARK    3  A    between atoms: O_6  and  C_18
REMARK    4  A    between atoms: O_6  and  C_24
REMARK    5  A    between atoms: O_11  and  C_32
REMARK    6  A    between atoms: C_15  and  C_18
REMARK    7  A    between atoms: C_20  and  C_25
REMARK                            x       y       z     vdW  Elec       q    Type
REMARK                         _______ _______ _______ _____ _____    ______ ____
ROOT
ATOM      1  O   UNL     1     112.503 126.806 136.224  0.00  0.00    +0.000 OA
ATOM      2  O   UNL     1     111.573 127.398 138.440  0.00  0.00    +0.000 OA
ATOM      3  O   UNL     1     111.164 126.033 138.665  0.00  0.00    +0.000 OA
ATOM      4  C   UNL     1     112.235 127.782 137.233  0.00  0.00    +0.000 A 
ATOM      5  C   UNL     1     112.545 127.584 136.494  0.00  0.00    +0.000 A 
ATOM      6  C   UNL     1     111.883 127.201 137.701  0.00  0.00    +0.000 A 
ATOM      7  C   UNL     1     111.841 126.423 137.430  0.00  0.00    +0.000 A 
ATOM      8  C   UNL     1     112.150 126.226 136.692  0.00  0.00    +0.000 A 
ATOM      9  C   UNL     1     111.471 125.827 137.928  0.00  0.00    +0.000 A 
ATOM     10  C   UNL     1     112.113 125.418 136.399  0.00  0.00    +0.000 A 
ATOM     11  C   UNL     1     111.424 125.014 137.652  0.00  0.00    +0.000 A 
ATOM     12  C   UNL     1     111.747 124.809 136.882  0.00  0.00    +0.000 A 
ENDROOT
BRANCH   5  14
ATOM     13  O   UNL     1     113.951 129.910 134.622  0.00  0.00    +0.000 OA
ATOM     14  C   UNL     1     112.897 128.166 136.027  0.00  0.00    +0.000 A 
ATOM     15  C   UNL     1     113.652 128.443 136.211  0.00  0.00    +0.000 A 
ATOM     16  C   UNL     1     112.493 128.470 135.374  0.00  0.00    +0.000 A 
ATOM     17  C   UNL     1     114.003 129.025 135.742  0.00  0.00    +0.000 A 
ATOM     18  C   UNL     1     112.845 129.051 134.906  0.00  0.00    +0.000 A 
ATOM     19  C   UNL     1     113.600 129.328 135.090  0.00  0.00    +0.000 A 
ENDBRANCH   5  14
BRANCH  12  20
ATOM     20  O   UNL     1     111.707 124.031 136.609  0.00  0.00    +0.000 OA
ATOM     21  C   UNL     1     112.272 123.480 136.848  0.00  0.00    +0.000 C 
ENDBRANCH  12  20
BRANCH   4  22
ATOM     22  O   UNL     1     112.277 128.560 137.504  0.00  0.00    +0.000 OA
BRANCH  22  31
ATOM     23  O   UNL     1     110.881 128.810 137.325  0.00  0.00    +0.000 OA
ATOM     24  O   UNL     1     109.523 130.154 138.380  0.00  0.00    +0.000 OA
ATOM     25  O   UNL     1     110.938 130.452 139.176  0.00  0.00    +0.000 OA
ATOM     26  O   UNL     1     112.314 129.655 138.738  0.00  0.00    +0.000 OA
ATOM     27  C   UNL     1     110.212 129.755 138.161  0.00  0.00    +0.000 C 
ATOM     28  C   UNL     1     110.919 129.904 138.559  0.00  0.00    +0.000 C 
ATOM     29  C   UNL     1     110.193 129.208 137.543  0.00  0.00    +0.000 C 
ATOM     30  C   UNL     1     111.608 129.506 138.340  0.00  0.00    +0.000 C 
ATOM     31  C   UNL     1     111.589 128.958 137.723  0.00  0.00    +0.000 C 
BRANCH  29  32
ATOM     32  C   UNL     1     109.486 129.060 137.146  0.00  0.00    +0.000 C 
BRANCH  32  33
ATOM     33  O   UNL     1     109.487 128.947 136.329  0.00  0.00    +0.000 OA
BRANCH  33  35
ATOM     34  O   UNL     1     108.205 129.187 135.745  0.00  0.00    +0.000 OA
ATOM     35  C   UNL     1     108.810 128.665 135.950  0.00  0.00    +0.000 C 
ATOM     36  C   UNL     1     108.739 127.863 135.776  0.00  0.00    +0.000 C 
ENDBRANCH  33  35
ENDBRANCH  32  33
ENDBRANCH  29  32
ENDBRANCH  22  31
ENDBRANCH   4  22
TORSDOF 7
ENDMDL
MODEL 4
REMARK VINA RESULT:      -8.5      1.638      1.870
REMARK  Name = 44259550
REMARK  7 active torsions:
REMARK  status: ('A' for Active; 'I' for Inactive)
REMARK    1  A    between atoms: O_2  and  C_17
REMARK    2  A    between atoms: O_2  and  C_19
REMARK    3  A    between atoms: O_6  and  C_18
REMARK    4  A    between atoms: O_6  and  C_24
REMARK    5  A    between atoms: O_11  and  C_32
REMARK    6  A    between atoms: C_15  and  C_18
REMARK    7  A    between atoms: C_20  and  C_25
REMARK                            x       y       z     vdW  Elec       q    Type
REMARK                         _______ _______ _______ _____ _____    ______ ____
ROOT
ATOM      1  O   UNL     1     112.970 127.703 135.864  0.00  0.00    +0.000 OA
ATOM      2  O   UNL     1     112.463 128.994 137.915  0.00  0.00    +0.000 OA
ATOM      3  O   UNL     1     113.168 130.143 137.400  0.00  0.00    +0.000 OA
ATOM      4  C   UNL     1     112.365 127.787 137.157  0.00  0.00    +0.000 A 
ATOM      5  C   UNL     1     112.533 127.356 136.473  0.00  0.00    +0.000 A 
ATOM      6  C   UNL     1     112.632 128.564 137.231  0.00  0.00    +0.000 A 
ATOM      7  C   UNL     1     113.069 128.910 136.623  0.00  0.00    +0.000 A 
ATOM      8  C   UNL     1     113.237 128.480 135.940  0.00  0.00    +0.000 A 
ATOM      9  C   UNL     1     113.341 129.720 136.713  0.00  0.00    +0.000 A 
ATOM     10  C   UNL     1     113.691 128.829 135.298  0.00  0.00    +0.000 A 
ATOM     11  C   UNL     1     113.796 130.087 136.083  0.00  0.00    +0.000 A 
ATOM     12  C   UNL     1     113.972 129.638 135.371  0.00  0.00    +0.000 A 
ENDROOT
BRANCH   5  14
ATOM     13  O   UNL     1     111.464 124.248 136.177  0.00  0.00    +0.000 OA
ATOM     14  C   UNL     1     112.266 126.580 136.399  0.00  0.00    +0.000 A 
ATOM     15  C   UNL     1     111.638 126.406 135.892  0.00  0.00    +0.000 A 
ATOM     16  C   UNL     1     112.626 125.976 136.832  0.00  0.00    +0.000 A 
ATOM     17  C   UNL     1     111.371 125.629 135.819  0.00  0.00    +0.000 A 
ATOM     18  C   UNL     1     112.359 125.200 136.757  0.00  0.00    +0.000 A 
ATOM     19  C   UNL     1     111.731 125.026 136.251  0.00  0.00    +0.000 A 
ENDBRANCH   5  14
BRANCH  12  20
ATOM     20  O   UNL     1     114.408 129.982 134.760  0.00  0.00    +0.000 OA
ATOM     21  C   UNL     1     115.205 130.161 134.874  0.00  0.00    +0.000 C 
ENDBRANCH  12  20
BRANCH   4  22
ATOM     22  O   UNL     1     111.928 127.440 137.765  0.00  0.00    +0.000 OA
BRANCH  22  31
ATOM     23  O   UNL     1     110.731 128.166 137.481  0.00  0.00    +0.000 OA
ATOM     24  O   UNL     1     109.127 128.848 138.796  0.00  0.00    +0.000 OA
ATOM     25  O   UNL     1     110.121 128.100 139.879  0.00  0.00    +0.000 OA
ATOM     26  O   UNL     1     111.522 127.396 139.364  0.00  0.00    +0.000 OA
ATOM     27  C   UNL     1     109.828 128.496 138.538  0.00  0.00    +0.000 C 
ATOM     28  C   UNL     1     110.325 128.122 139.080  0.00  0.00    +0.000 C 
ATOM     29  C   UNL     1     110.031 128.518 137.738  0.00  0.00    +0.000 C 
ATOM     30  C   UNL     1     111.025 127.770 138.822  0.00  0.00    +0.000 C 
ATOM     31  C   UNL     1     111.229 127.792 138.023  0.00  0.00    +0.000 C 
BRANCH  29  32
ATOM     32  C   UNL     1     109.533 128.892 137.197  0.00  0.00    +0.000 C 
BRANCH  32  33
ATOM     33  O   UNL     1     109.349 128.525 136.483  0.00  0.00    +0.000 OA
BRANCH  33  35
ATOM     34  O   UNL     1     108.111 128.889 135.870  0.00  0.00    +0.000 OA
ATOM     35  C   UNL     1     108.934 128.937 135.901  0.00  0.00    +0.000 C 
ATOM     36  C   UNL     1     109.340 129.396 135.350  0.00  0.00    +0.000 C 
ENDBRANCH  33  35
ENDBRANCH  32  33
ENDBRANCH  29  32
ENDBRANCH  22  31
ENDBRANCH   4  22
TORSDOF 7
ENDMDL
MODEL 5
REMARK VINA RESULT:      -8.5      1.769      3.375
REMARK  Name = 44259550
REMARK  7 active torsions:
REMARK  status: ('A' for Active; 'I' for Inactive)
REMARK    1  A    between atoms: O_2  and  C_17
REMARK    2  A    between atoms: O_2  and  C_19
REMARK    3  A    between atoms: O_6  and  C_18
REMARK    4  A    between atoms: O_6  and  C_24
REMARK    5  A    between atoms: O_11  and  C_32
REMARK    6  A    between atoms: C_15  and  C_18
REMARK    7  A    between atoms: C_20  and  C_25
REMARK                            x       y       z     vdW  Elec       q    Type
REMARK                         _______ _______ _______ _____ _____    ______ ____
ROOT
ATOM      1  O   UNL     1     113.762 126.208 138.521  0.00  0.00    +0.000 OA
ATOM      2  O   UNL     1     111.679 124.998 137.948  0.00  0.00    +0.000 OA
ATOM      3  O   UNL     1     112.343 124.307 136.870  0.00  0.00    +0.000 OA
ATOM      4  C   UNL     1     112.379 125.939 138.765  0.00  0.00    +0.000 A 
ATOM      5  C   UNL     1     113.074 126.342 138.956  0.00  0.00    +0.000 A 
ATOM      6  C   UNL     1     112.374 125.402 138.139  0.00  0.00    +0.000 A 
ATOM      7  C   UNL     1     113.062 125.268 137.704  0.00  0.00    +0.000 A 
ATOM      8  C   UNL     1     113.755 125.671 137.894  0.00  0.00    +0.000 A 
ATOM      9  C   UNL     1     113.042 124.706 137.054  0.00  0.00    +0.000 A 
ATOM     10  C   UNL     1     114.479 125.540 137.449  0.00  0.00    +0.000 A 
ATOM     11  C   UNL     1     113.755 124.562 136.596  0.00  0.00    +0.000 A 
ATOM     12  C   UNL     1     114.478 124.982 136.795  0.00  0.00    +0.000 A 
ENDROOT
BRANCH   5  14
ATOM     13  O   UNL     1     113.096 128.492 141.459  0.00  0.00    +0.000 OA
ATOM     14  C   UNL     1     113.079 126.879 139.582  0.00  0.00    +0.000 A 
ATOM     15  C   UNL     1     113.051 126.607 140.360  0.00  0.00    +0.000 A 
ATOM     16  C   UNL     1     113.113 127.690 139.429  0.00  0.00    +0.000 A 
ATOM     17  C   UNL     1     113.057 127.145 140.986  0.00  0.00    +0.000 A 
ATOM     18  C   UNL     1     113.119 128.227 140.056  0.00  0.00    +0.000 A 
ATOM     19  C   UNL     1     113.090 127.954 140.834  0.00  0.00    +0.000 A 
ENDBRANCH   5  14
BRANCH  12  20
ATOM     20  O   UNL     1     115.168 124.850 136.362  0.00  0.00    +0.000 OA
ATOM     21  C   UNL     1     115.369 125.357 135.743  0.00  0.00    +0.000 C 
ENDBRANCH  12  20
BRANCH   4  22
ATOM     22  O   UNL     1     111.691 126.073 139.200  0.00  0.00    +0.000 OA
BRANCH  22  31
ATOM     23  O   UNL     1     111.058 126.834 138.170  0.00  0.00    +0.000 OA
ATOM     24  O   UNL     1     108.948 127.094 137.677  0.00  0.00    +0.000 OA
ATOM     25  O   UNL     1     108.842 126.082 138.976  0.00  0.00    +0.000 OA
ATOM     26  O   UNL     1     110.214 125.571 139.738  0.00  0.00    +0.000 OA
ATOM     27  C   UNL     1     109.634 126.839 138.058  0.00  0.00    +0.000 C 
ATOM     28  C   UNL     1     109.581 126.333 138.708  0.00  0.00    +0.000 C 
ATOM     29  C   UNL     1     110.373 127.090 137.790  0.00  0.00    +0.000 C 
ATOM     30  C   UNL     1     110.267 126.077 139.088  0.00  0.00    +0.000 C 
ATOM     31  C   UNL     1     111.006 126.328 138.820  0.00  0.00    +0.000 C 
BRANCH  29  32
ATOM     32  C   UNL     1     110.425 127.596 137.140  0.00  0.00    +0.000 C 
BRANCH  32  33
ATOM     33  O   UNL     1     111.001 128.185 137.121  0.00  0.00    +0.000 OA
BRANCH  33  35
ATOM     34  O   UNL     1     110.639 129.257 136.248  0.00  0.00    +0.000 OA
ATOM     35  C   UNL     1     111.127 128.618 136.430  0.00  0.00    +0.000 C 
ATOM     36  C   UNL     1     111.741 128.411 135.920  0.00  0.00    +0.000 C 
ENDBRANCH  33  35
ENDBRANCH  32  33
ENDBRANCH  29  32
ENDBRANCH  22  31
ENDBRANCH   4  22
TORSDOF 7
ENDMDL
MODEL 6
REMARK VINA RESULT:      -8.5      1.527      2.927
REMARK  Name = 44259550
REMARK  7 active torsions:
REMARK  status: ('A' for Active; 'I' for Inactive)
REMARK    1  A    between atoms: O_2  and  C_17
REMARK    2  A    between atoms: O_2  and  C_19
REMARK    3  A    between atoms: O_6  and  C_18
REMARK    4  A    between atoms: O_6  and  C_24
REMARK    5  A    between atoms: O_11  and  C_32
REMARK    6  A    between atoms: C_15  and  C_18
REMARK    7  A    between atoms: C_20  and  C_25
REMARK                            x       y       z     vdW  Elec       q    Type
REMARK                         _______ _______ _______ _____ _____    ______ ____
ROOT
ATOM      1  O   UNL     1     113.302 127.579 136.760  0.00  0.00    +0.000 OA
ATOM      2  O   UNL     1     111.415 128.127 138.266  0.00  0.00    +0.000 OA
ATOM      3  O   UNL     1     111.603 129.539 138.034  0.00  0.00    +0.000 OA
ATOM      4  C   UNL     1     112.254 127.157 137.636  0.00  0.00    +0.000 A 
ATOM      5  C   UNL     1     112.884 126.974 137.134  0.00  0.00    +0.000 A 
ATOM      6  C   UNL     1     112.044 127.944 137.763  0.00  0.00    +0.000 A 
ATOM      7  C   UNL     1     112.463 128.549 137.389  0.00  0.00    +0.000 A 
ATOM      8  C   UNL     1     113.091 128.366 136.888  0.00  0.00    +0.000 A 
ATOM      9  C   UNL     1     112.234 129.365 137.531  0.00  0.00    +0.000 A 
ATOM     10  C   UNL     1     113.536 128.987 136.492  0.00  0.00    +0.000 A 
ATOM     11  C   UNL     1     112.666 130.000 137.145  0.00  0.00    +0.000 A 
ATOM     12  C   UNL     1     113.321 129.809 136.622  0.00  0.00    +0.000 A 
ENDROOT
BRANCH   5  14
ATOM     13  O   UNL     1     113.725 123.824 136.626  0.00  0.00    +0.000 OA
ATOM     14  C   UNL     1     113.093 126.187 137.007  0.00  0.00    +0.000 A 
ATOM     15  C   UNL     1     112.614 125.701 136.543  0.00  0.00    +0.000 A 
ATOM     16  C   UNL     1     113.784 125.884 137.344  0.00  0.00    +0.000 A 
ATOM     17  C   UNL     1     112.825 124.914 136.416  0.00  0.00    +0.000 A 
ATOM     18  C   UNL     1     113.994 125.097 137.216  0.00  0.00    +0.000 A 
ATOM     19  C   UNL     1     113.514 124.611 136.753  0.00  0.00    +0.000 A 
ENDBRANCH   5  14
BRANCH  12  20
ATOM     20  O   UNL     1     113.742 130.411 136.246  0.00  0.00    +0.000 OA
ATOM     21  C   UNL     1     114.409 130.736 136.608  0.00  0.00    +0.000 C 
ENDBRANCH  12  20
BRANCH   4  22
ATOM     22  O   UNL     1     111.836 126.552 138.010  0.00  0.00    +0.000 OA
BRANCH  22  31
ATOM     23  O   UNL     1     112.418 126.807 139.290  0.00  0.00    +0.000 OA
ATOM     24  O   UNL     1     111.648 126.468 141.304  0.00  0.00    +0.000 OA
ATOM     25  O   UNL     1     110.389 125.915 140.391  0.00  0.00    +0.000 OA
ATOM     26  O   UNL     1     110.483 125.958 138.744  0.00  0.00    +0.000 OA
ATOM     27  C   UNL     1     111.695 126.489 140.480  0.00  0.00    +0.000 C 
ATOM     28  C   UNL     1     111.065 126.213 140.024  0.00  0.00    +0.000 C 
ATOM     29  C   UNL     1     112.371 126.786 140.112  0.00  0.00    +0.000 C 
ATOM     30  C   UNL     1     111.112 126.234 139.200  0.00  0.00    +0.000 C 
ATOM     31  C   UNL     1     111.789 126.531 138.833  0.00  0.00    +0.000 C 
BRANCH  29  32
ATOM     32  C   UNL     1     113.001 127.062 140.569  0.00  0.00    +0.000 C 
BRANCH  32  33
ATOM     33  O   UNL     1     113.776 126.959 140.310  0.00  0.00    +0.000 OA
BRANCH  33  35
ATOM     34  O   UNL     1     114.902 126.845 141.182  0.00  0.00    +0.000 OA
ATOM     35  C   UNL     1     114.400 127.309 140.721  0.00  0.00    +0.000 C 
ATOM     36  C   UNL     1     114.522 128.123 140.671  0.00  0.00    +0.000 C 
ENDBRANCH  33  35
ENDBRANCH  32  33
ENDBRANCH  29  32
ENDBRANCH  22  31
ENDBRANCH   4  22
TORSDOF 7
ENDMDL
MODEL 7
REMARK VINA RESULT:      -8.4      1.683      4.429
REMARK  Name = 44259550
REMARK  7 active torsions:
REMARK  status: ('A' for Active; 'I' for Inactive)
REMARK    1  A    between atoms: O_2  and  C_17
REMARK    2  A    between atoms: O_2  and  C_19
REMARK    3  A    between atoms: O_6  and  C_18
REMARK    4  A    between atoms: O_6  and  C_24
REMARK    5  A    between atoms: O_11  and  C_32
REMARK    6  A    between atoms: C_15  and  C_18
REMARK    7  A    between atoms: C_20  and  C_25
REMARK                            x       y       z     vdW  Elec       q    Type
REMARK                         _______ _______ _______ _____ _____    ______ ____
ROOT
ATOM      1  O   UNL     1     114.039 127.771 136.329  0.00  0.00    +0.000 OA
ATOM      2  O   UNL     1     111.587 127.657 136.002  0.00  0.00    +0.000 OA
ATOM      3  O   UNL     1     111.532 126.368 136.647  0.00  0.00    +0.000 OA
ATOM      4  C   UNL     1     112.826 128.352 135.844  0.00  0.00    +0.000 A 
ATOM      5  C   UNL     1     113.644 128.390 135.953  0.00  0.00    +0.000 A 
ATOM      6  C   UNL     1     112.405 127.695 136.111  0.00  0.00    +0.000 A 
ATOM      7  C   UNL     1     112.800 127.076 136.487  0.00  0.00    +0.000 A 
ATOM      8  C   UNL     1     113.616 127.114 136.595  0.00  0.00    +0.000 A 
ATOM      9  C   UNL     1     112.349 126.397 136.760  0.00  0.00    +0.000 A 
ATOM     10  C   UNL     1     114.040 126.475 136.985  0.00  0.00    +0.000 A 
ATOM     11  C   UNL     1     112.754 125.749 137.152  0.00  0.00    +0.000 A 
ATOM     12  C   UNL     1     113.606 125.788 137.265  0.00  0.00    +0.000 A 
ENDROOT
BRANCH   5  14
ATOM     13  O   UNL     1     115.328 131.018 134.882  0.00  0.00    +0.000 OA
ATOM     14  C   UNL     1     114.065 129.047 135.686  0.00  0.00    +0.000 A 
ATOM     15  C   UNL     1     114.340 129.607 136.225  0.00  0.00    +0.000 A 
ATOM     16  C   UNL     1     114.210 129.143 134.879  0.00  0.00    +0.000 A 
ATOM     17  C   UNL     1     114.762 130.264 135.956  0.00  0.00    +0.000 A 
ATOM     18  C   UNL     1     114.631 129.800 134.612  0.00  0.00    +0.000 A 
ATOM     19  C   UNL     1     114.907 130.361 135.151  0.00  0.00    +0.000 A 
ENDBRANCH   5  14
BRANCH  12  20
ATOM     20  O   UNL     1     114.004 125.171 137.641  0.00  0.00    +0.000 OA
ATOM     21  C   UNL     1     114.393 124.598 137.192  0.00  0.00    +0.000 C 
ENDBRANCH  12  20
BRANCH   4  22
ATOM     22  O   UNL     1     112.431 128.971 135.468  0.00  0.00    +0.000 OA
BRANCH  22  31
ATOM     23  O   UNL     1     111.854 129.491 136.668  0.00  0.00    +0.000 OA
ATOM     24  O   UNL     1     109.966 130.532 137.011  0.00  0.00    +0.000 OA
ATOM     25  O   UNL     1     109.888 130.273 135.383  0.00  0.00    +0.000 OA
ATOM     26  O   UNL     1     111.120 129.492 134.612  0.00  0.00    +0.000 OA
ATOM     27  C   UNL     1     110.583 130.142 136.625  0.00  0.00    +0.000 C 
ATOM     28  C   UNL     1     110.543 130.012 135.811  0.00  0.00    +0.000 C 
ATOM     29  C   UNL     1     111.238 129.881 137.053  0.00  0.00    +0.000 C 
ATOM     30  C   UNL     1     111.160 129.622 135.426  0.00  0.00    +0.000 C 
ATOM     31  C   UNL     1     111.815 129.361 135.854  0.00  0.00    +0.000 C 
BRANCH  29  32
ATOM     32  C   UNL     1     111.277 130.011 137.867  0.00  0.00    +0.000 C 
BRANCH  32  33
ATOM     33  O   UNL     1     111.996 130.204 138.221  0.00  0.00    +0.000 OA
BRANCH  33  35
ATOM     34  O   UNL     1     111.911 130.945 139.440  0.00  0.00    +0.000 OA
ATOM     35  C   UNL     1     112.057 130.236 139.043  0.00  0.00    +0.000 C 
ATOM     36  C   UNL     1     112.263 129.561 139.469  0.00  0.00    +0.000 C 
ENDBRANCH  33  35
ENDBRANCH  32  33
ENDBRANCH  29  32
ENDBRANCH  22  31
ENDBRANCH   4  22
TORSDOF 7
ENDMDL
MODEL 8
REMARK VINA RESULT:      -8.4      1.055      2.915
REMARK  Name = 44259550
REMARK  7 active torsions:
REMARK  status: ('A' for Active; 'I' for Inactive)
REMARK    1  A    between atoms: O_2  and  C_17
REMARK    2  A    between atoms: O_2  and  C_19
REMARK    3  A    between atoms: O_6  and  C_18
REMARK    4  A    between atoms: O_6  and  C_24
REMARK    5  A    between atoms: O_11  and  C_32
REMARK    6  A    between atoms: C_15  and  C_18
REMARK    7  A    between atoms: C_20  and  C_25
REMARK                            x       y       z     vdW  Elec       q    Type
REMARK                         _______ _______ _______ _____ _____    ______ ____
ROOT
ATOM      1  O   UNL     1     112.065 128.098 135.255  0.00  0.00    +0.000 OA
ATOM      2  O   UNL     1     112.127 128.712 137.653  0.00  0.00    +0.000 OA
ATOM      3  O   UNL     1     113.223 129.622 137.420  0.00  0.00    +0.000 OA
ATOM      4  C   UNL     1     111.554 127.958 136.583  0.00  0.00    +0.000 A 
ATOM      5  C   UNL     1     111.534 127.753 135.783  0.00  0.00    +0.000 A 
ATOM      6  C   UNL     1     112.107 128.507 136.853  0.00  0.00    +0.000 A 
ATOM      7  C   UNL     1     112.639 128.852 136.325  0.00  0.00    +0.000 A 
ATOM      8  C   UNL     1     112.618 128.647 135.527  0.00  0.00    +0.000 A 
ATOM      9  C   UNL     1     113.209 129.423 136.619  0.00  0.00    +0.000 A 
ATOM     10  C   UNL     1     113.167 128.999 134.966  0.00  0.00    +0.000 A 
ATOM     11  C   UNL     1     113.766 129.786 136.075  0.00  0.00    +0.000 A 
ATOM     12  C   UNL     1     113.744 129.572 135.242  0.00  0.00    +0.000 A 
ENDROOT
BRANCH   5  14
ATOM     13  O   UNL     1     109.324 125.553 134.702  0.00  0.00    +0.000 OA
ATOM     14  C   UNL     1     110.981 127.203 135.513  0.00  0.00    +0.000 A 
ATOM     15  C   UNL     1     110.190 127.422 135.424  0.00  0.00    +0.000 A 
ATOM     16  C   UNL     1     111.219 126.434 135.332  0.00  0.00    +0.000 A 
ATOM     17  C   UNL     1     109.638 126.872 135.154  0.00  0.00    +0.000 A 
ATOM     18  C   UNL     1     110.667 125.885 135.062  0.00  0.00    +0.000 A 
ATOM     19  C   UNL     1     109.876 126.103 134.973  0.00  0.00    +0.000 A 
ENDBRANCH   5  14
BRANCH  12  20
ATOM     20  O   UNL     1     114.275 129.916 134.711  0.00  0.00    +0.000 OA
ATOM     21  C   UNL     1     115.027 129.592 134.613  0.00  0.00    +0.000 C 
ENDBRANCH  12  20
BRANCH   4  22
ATOM     22  O   UNL     1     111.022 127.613 137.111  0.00  0.00    +0.000 OA
BRANCH  22  31
ATOM     23  O   UNL     1     112.006 126.777 137.723  0.00  0.00    +0.000 OA
ATOM     24  O   UNL     1     112.143 125.981 139.751  0.00  0.00    +0.000 OA
ATOM     25  O   UNL     1     110.736 126.838 139.847  0.00  0.00    +0.000 OA
ATOM     26  O   UNL     1     110.176 127.654 138.527  0.00  0.00    +0.000 OA
ATOM     27  C   UNL     1     111.863 126.389 139.091  0.00  0.00    +0.000 C 
ATOM     28  C   UNL     1     111.159 126.818 139.139  0.00  0.00    +0.000 C 
ATOM     29  C   UNL     1     112.286 126.369 138.383  0.00  0.00    +0.000 C 
ATOM     30  C   UNL     1     110.879 127.226 138.478  0.00  0.00    +0.000 C 
ATOM     31  C   UNL     1     111.302 127.205 137.770  0.00  0.00    +0.000 C 
BRANCH  29  32
ATOM     32  C   UNL     1     112.990 125.940 138.336  0.00  0.00    +0.000 C 
BRANCH  32  33
ATOM     33  O   UNL     1     113.168 125.514 137.653  0.00  0.00    +0.000 OA
BRANCH  33  35
ATOM     34  O   UNL     1     114.565 125.476 137.954  0.00  0.00    +0.000 OA
ATOM     35  C   UNL     1     113.908 125.157 137.571  0.00  0.00    +0.000 C 
ATOM     36  C   UNL     1     113.990 124.481 137.106  0.00  0.00    +0.000 C 
ENDBRANCH  33  35
ENDBRANCH  32  33
ENDBRANCH  29  32
ENDBRANCH  22  31
ENDBRANCH   4  22
TORSDOF 7
ENDMDL
MODEL 9
REMARK VINA RESULT:      -8.4     11.203     12.375
REMARK  Name = 44259550
REMARK  7 active torsions:
REMARK  status: ('A' for Active; 'I' for Inactive)
REMARK    1  A    between atoms: O_2  and  C_17
REMARK    2  A    between atoms: O_2  and  C_19
REMARK    3  A    between atoms: O_6  and  C_18
REMARK    4  A    between atoms: O_6  and  C_24
REMARK    5  A    between atoms: O_11  and  C_32
REMARK    6  A    between atoms: C_15  and  C_18
REMARK    7  A    between atoms: C_20  and  C_25
REMARK                            x       y       z     vdW  Elec       q    Type
REMARK                         _______ _______ _______ _____ _____    ______ ____
ROOT
ATOM      1  O   UNL     1     106.373 127.184 147.589  0.00  0.00    +0.000 OA
ATOM      2  O   UNL     1     105.424 126.537 145.395  0.00  0.00    +0.000 OA
ATOM      3  O   UNL     1     104.974 127.887 145.160  0.00  0.00    +0.000 OA
ATOM      4  C   UNL     1     106.116 126.188 146.596  0.00  0.00    +0.000 A 
ATOM      5  C   UNL     1     106.432 126.404 147.328  0.00  0.00    +0.000 A 
ATOM      6  C   UNL     1     105.740 126.753 146.127  0.00  0.00    +0.000 A 
ATOM      7  C   UNL     1     105.681 127.533 146.388  0.00  0.00    +0.000 A 
ATOM      8  C   UNL     1     105.997 127.749 147.118  0.00  0.00    +0.000 A 
ATOM      9  C   UNL     1     105.287 128.112 145.889  0.00  0.00    +0.000 A 
ATOM     10  C   UNL     1     105.941 128.559 147.402  0.00  0.00    +0.000 A 
ATOM     11  C   UNL     1     105.222 128.926 146.155  0.00  0.00    +0.000 A 
ATOM     12  C   UNL     1     105.551 129.151 146.918  0.00  0.00    +0.000 A 
ENDROOT
BRANCH   5  14
ATOM     13  O   UNL     1     107.936 124.143 149.203  0.00  0.00    +0.000 OA
ATOM     14  C   UNL     1     106.808 125.839 147.797  0.00  0.00    +0.000 A 
ATOM     15  C   UNL     1     106.440 125.560 148.481  0.00  0.00    +0.000 A 
ATOM     16  C   UNL     1     107.552 125.553 147.582  0.00  0.00    +0.000 A 
ATOM     17  C   UNL     1     106.817 124.994 148.949  0.00  0.00    +0.000 A 
ATOM     18  C   UNL     1     107.927 124.988 148.051  0.00  0.00    +0.000 A 
ATOM     19  C   UNL     1     107.560 124.709 148.735  0.00  0.00    +0.000 A 
ENDBRANCH   5  14
BRANCH  12  20
ATOM     20  O   UNL     1     105.493 129.931 147.181  0.00  0.00    +0.000 OA
ATOM     21  C   UNL     1     105.971 130.515 146.848  0.00  0.00    +0.000 C 
ENDBRANCH  12  20
BRANCH   4  22
ATOM     22  O   UNL     1     106.175 125.408 146.335  0.00  0.00    +0.000 OA
BRANCH  22  31
ATOM     23  O   UNL     1     104.810 125.073 146.590  0.00  0.00    +0.000 OA
ATOM     24  O   UNL     1     103.452 123.719 145.548  0.00  0.00    +0.000 OA
ATOM     25  O   UNL     1     104.821 123.545 144.643  0.00  0.00    +0.000 OA
ATOM     26  O   UNL     1     106.183 124.389 145.037  0.00  0.00    +0.000 OA
ATOM     27  C   UNL     1     104.133 124.141 145.745  0.00  0.00    +0.000 C 
ATOM     28  C   UNL     1     104.817 124.054 145.292  0.00  0.00    +0.000 C 
ATOM     29  C   UNL     1     104.130 124.651 146.394  0.00  0.00    +0.000 C 
ATOM     30  C   UNL     1     105.499 124.477 145.489  0.00  0.00    +0.000 C 
ATOM     31  C   UNL     1     105.495 124.986 146.138  0.00  0.00    +0.000 C 
BRANCH  29  32
ATOM     32  C   UNL     1     103.445 124.737 146.846  0.00  0.00    +0.000 C 
BRANCH  32  33
ATOM     33  O   UNL     1     103.498 124.822 147.664  0.00  0.00    +0.000 OA
BRANCH  33  35
ATOM     34  O   UNL     1     102.327 124.396 148.363  0.00  0.00    +0.000 OA
ATOM     35  C   UNL     1     102.824 125.002 148.106  0.00  0.00    +0.000 C 
ATOM     36  C   UNL     1     102.648 125.786 148.290  0.00  0.00    +0.000 C 
ENDBRANCH  33  35
ENDBRANCH  32  33
ENDBRANCH  29  32
ENDBRANCH  22  31
ENDBRANCH   4  22
TORSDOF 7
ENDMDL
MODEL 10
REMARK VINA RESULT:      -8.4      1.273      3.006
REMARK  Name = 44259550
REMARK  7 active torsions:
REMARK  status: ('A' for Active; 'I' for Inactive)
REMARK    1  A    between atoms: O_2  and  C_17
REMARK    2  A    between atoms: O_2  and  C_19
REMARK    3  A    between atoms: O_6  and  C_18
REMARK    4  A    between atoms: O_6  and  C_24
REMARK    5  A    between atoms: O_11  and  C_32
REMARK    6  A    between atoms: C_15  and  C_18
REMARK    7  A    between atoms: C_20  and  C_25
REMARK                            x       y       z     vdW  Elec       q    Type
REMARK                         _______ _______ _______ _____ _____    ______ ____
ROOT
ATOM      1  O   UNL     1     112.121 128.419 138.415  0.00  0.00    +0.000 OA
ATOM      2  O   UNL     1     113.887 127.428 136.991  0.00  0.00    +0.000 OA
ATOM      3  O   UNL     1     113.803 128.533 136.068  0.00  0.00    +0.000 OA
ATOM      4  C   UNL     1     113.056 127.370 138.152  0.00  0.00    +0.000 A 
ATOM      5  C   UNL     1     112.467 127.700 138.627  0.00  0.00    +0.000 A 
ATOM      6  C   UNL     1     113.298 127.758 137.466  0.00  0.00    +0.000 A 
ATOM      7  C   UNL     1     112.952 128.477 137.254  0.00  0.00    +0.000 A 
ATOM      8  C   UNL     1     112.364 128.807 137.729  0.00  0.00    +0.000 A 
ATOM      9  C   UNL     1     113.214 128.871 136.537  0.00  0.00    +0.000 A 
ATOM     10  C   UNL     1     111.995 129.555 137.519  0.00  0.00    +0.000 A 
ATOM     11  C   UNL     1     112.857 129.619 136.311  0.00  0.00    +0.000 A 
ATOM     12  C   UNL     1     112.244 129.964 136.806  0.00  0.00    +0.000 A 
ENDROOT
BRANCH   5  14
ATOM     13  O   UNL     1     111.495 126.145 141.371  0.00  0.00    +0.000 OA
ATOM     14  C   UNL     1     112.224 127.312 139.313  0.00  0.00    +0.000 A 
ATOM     15  C   UNL     1     112.715 127.300 139.976  0.00  0.00    +0.000 A 
ATOM     16  C   UNL     1     111.490 126.935 139.336  0.00  0.00    +0.000 A 
ATOM     17  C   UNL     1     112.472 126.911 140.662  0.00  0.00    +0.000 A 
ATOM     18  C   UNL     1     111.248 126.546 140.022  0.00  0.00    +0.000 A 
ATOM     19  C   UNL     1     111.739 126.534 140.685  0.00  0.00    +0.000 A 
ENDBRANCH   5  14
BRANCH  12  20
ATOM     20  O   UNL     1     111.896 130.682 136.596  0.00  0.00    +0.000 OA
ATOM     21  C   UNL     1     112.124 131.377 136.978  0.00  0.00    +0.000 C 
ENDBRANCH  12  20
BRANCH   4  22
ATOM     22  O   UNL     1     113.402 126.651 138.364  0.00  0.00    +0.000 OA
BRANCH  22  31
ATOM     23  O   UNL     1     112.747 125.917 137.328  0.00  0.00    +0.000 OA
ATOM     24  O   UNL     1     113.346 124.109 136.260  0.00  0.00    +0.000 OA
ATOM     25  O   UNL     1     114.627 124.307 137.281  0.00  0.00    +0.000 OA
ATOM     26  O   UNL     1     114.655 125.578 138.333  0.00  0.00    +0.000 OA
ATOM     27  C   UNL     1     113.360 124.745 136.787  0.00  0.00    +0.000 C 
ATOM     28  C   UNL     1     114.000 124.844 137.297  0.00  0.00    +0.000 C 
ATOM     29  C   UNL     1     112.733 125.282 136.802  0.00  0.00    +0.000 C 
ATOM     30  C   UNL     1     114.014 125.480 137.823  0.00  0.00    +0.000 C 
ATOM     31  C   UNL     1     113.387 126.016 137.839  0.00  0.00    +0.000 C 
BRANCH  29  32
ATOM     32  C   UNL     1     112.093 125.182 136.291  0.00  0.00    +0.000 C 
BRANCH  32  33
ATOM     33  O   UNL     1     111.329 125.357 136.547  0.00  0.00    +0.000 OA
BRANCH  33  35
ATOM     34  O   UNL     1     110.637 124.903 135.383  0.00  0.00    +0.000 OA
ATOM     35  C   UNL     1     110.719 125.446 135.999  0.00  0.00    +0.000 C 
ATOM     36  C   UNL     1     110.192 126.076 136.066  0.00  0.00    +0.000 C 
ENDBRANCH  33  35
ENDBRANCH  32  33
ENDBRANCH  29  32
ENDBRANCH  22  31
ENDBRANCH   4  22
TORSDOF 7
ENDMDL
