MODEL 1
REMARK VINA RESULT:      -9.1      0.000      0.000
REMARK  Name = 46896123
REMARK  5 active torsions:
REMARK  status: ('A' for Active; 'I' for Inactive)
REMARK    1  A    between atoms: O_2  and  C_16
REMARK    2  A    between atoms: O_2  and  C_20
REMARK    3  A    between atoms: O_9  and  C_24
REMARK    4  A    between atoms: C_17  and  C_18
REMARK    5  A    between atoms: C_19  and  C_21
REMARK                            x       y       z     vdW  Elec       q    Type
REMARK                         _______ _______ _______ _____ _____    ______ ____
ROOT
ATOM      1  C   UNL     1     111.004 129.707 136.277  0.00  0.00    +0.000 A 
ATOM      2  C   UNL     1     111.201 128.047 135.823  0.00  0.00    +0.000 A 
ATOM      3  C   UNL     1     111.375 128.797 136.462  0.00  0.00    +0.000 A 
ATOM      4  C   UNL     1     110.458 129.867 135.455  0.00  0.00    +0.000 A 
ATOM      5  C   UNL     1     110.655 128.207 135.001  0.00  0.00    +0.000 A 
ATOM      6  C   UNL     1     110.284 129.117 134.816  0.00  0.00    +0.000 A 
ENDROOT
BRANCH   2  11
ATOM      7  O   UNL     1     112.490 127.040 136.394  0.00  0.00    +0.000 OA
ATOM      8  O   UNL     1     110.852 124.601 135.788  0.00  0.00    +0.000 OA
ATOM      9  O   UNL     1     112.134 123.556 136.357  0.00  0.00    +0.000 OA
ATOM     10  O   UNL     1     115.130 125.008 137.561  0.00  0.00    +0.000 OA
ATOM     11  C   UNL     1     111.572 127.137 136.008  0.00  0.00    +0.000 C 
ATOM     12  C   UNL     1     111.026 126.324 135.806  0.00  0.00    +0.000 C 
ATOM     13  C   UNL     1     111.398 125.414 135.990  0.00  0.00    +0.000 C 
ATOM     14  C   UNL     1     112.315 125.317 136.376  0.00  0.00    +0.000 A 
ATOM     15  C   UNL     1     112.861 126.130 136.578  0.00  0.00    +0.000 A 
ATOM     16  C   UNL     1     112.688 124.363 136.563  0.00  0.00    +0.000 A 
ATOM     17  C   UNL     1     113.819 126.045 136.980  0.00  0.00    +0.000 A 
ATOM     18  C   UNL     1     114.212 125.101 137.175  0.00  0.00    +0.000 A 
ATOM     19  C   UNL     1     113.644 124.254 136.965  0.00  0.00    +0.000 A 
ENDBRANCH   2  11
BRANCH   4  20
ATOM     20  O   UNL     1     110.087 130.777 135.270  0.00  0.00    +0.000 OA
ATOM     21  C   UNL     1     109.340 130.889 134.615  0.00  0.00    +0.000 C 
ENDBRANCH   4  20
BRANCH   1  22
ATOM     22  O   UNL     1     111.178 130.456 136.916  0.00  0.00    +0.000 OA
BRANCH  22  30
ATOM     23  O   UNL     1     110.192 129.905 138.229  0.00  0.00    +0.000 OA
ATOM     24  O   UNL     1     112.316 130.744 140.175  0.00  0.00    +0.000 OA
ATOM     25  O   UNL     1     112.593 131.016 138.213  0.00  0.00    +0.000 OA
ATOM     26  O   UNL     1     110.623 129.912 140.839  0.00  0.00    +0.000 OA
ATOM     27  C   UNL     1     111.608 130.464 139.526  0.00  0.00    +0.000 C 
ATOM     28  C   UNL     1     111.747 130.600 138.545  0.00  0.00    +0.000 C 
ATOM     29  C   UNL     1     110.761 130.048 139.858  0.00  0.00    +0.000 C 
ATOM     30  C   UNL     1     111.039 130.320 137.897  0.00  0.00    +0.000 C 
ATOM     31  C   UNL     1     110.054 129.769 139.210  0.00  0.00    +0.000 C 
BRANCH  31  34
ATOM     32  O   UNL     1     109.159 128.365 139.688  0.00  0.00    +0.000 OA
ATOM     33  O   UNL     1     108.408 129.925 139.728  0.00  0.00    +0.000 OA
ATOM     34  C   UNL     1     109.207 129.353 139.542  0.00  0.00    +0.000 C 
ENDBRANCH  31  34
ENDBRANCH  22  30
ENDBRANCH   1  22
TORSDOF 5
ENDMDL
MODEL 2
REMARK VINA RESULT:      -9.0      2.505      5.128
REMARK  Name = 46896123
REMARK  5 active torsions:
REMARK  status: ('A' for Active; 'I' for Inactive)
REMARK    1  A    between atoms: O_2  and  C_16
REMARK    2  A    between atoms: O_2  and  C_20
REMARK    3  A    between atoms: O_9  and  C_24
REMARK    4  A    between atoms: C_17  and  C_18
REMARK    5  A    between atoms: C_19  and  C_21
REMARK                            x       y       z     vdW  Elec       q    Type
REMARK                         _______ _______ _______ _____ _____    ______ ____
ROOT
ATOM      1  C   UNL     1     111.156 125.882 138.186  0.00  0.00    +0.000 A 
ATOM      2  C   UNL     1     110.505 126.935 136.975  0.00  0.00    +0.000 A 
ATOM      3  C   UNL     1     110.766 126.765 137.925  0.00  0.00    +0.000 A 
ATOM      4  C   UNL     1     111.285 125.169 137.496  0.00  0.00    +0.000 A 
ATOM      5  C   UNL     1     110.634 126.223 136.286  0.00  0.00    +0.000 A 
ATOM      6  C   UNL     1     111.024 125.340 136.546  0.00  0.00    +0.000 A 
ENDROOT
BRANCH   2  11
ATOM      7  O   UNL     1     110.634 128.659 136.867  0.00  0.00    +0.000 OA
ATOM      8  O   UNL     1     107.905 128.786 135.629  0.00  0.00    +0.000 OA
ATOM      9  O   UNL     1     108.004 130.528 135.505  0.00  0.00    +0.000 OA
ATOM     10  O   UNL     1     110.921 132.172 136.657  0.00  0.00    +0.000 OA
ATOM     11  C   UNL     1     110.115 127.818 136.715  0.00  0.00    +0.000 C 
ATOM     12  C   UNL     1     109.205 127.861 136.302  0.00  0.00    +0.000 C 
ATOM     13  C   UNL     1     108.815 128.744 136.042  0.00  0.00    +0.000 C 
ATOM     14  C   UNL     1     109.334 129.585 136.194  0.00  0.00    +0.000 A 
ATOM     15  C   UNL     1     110.244 129.542 136.607  0.00  0.00    +0.000 A 
ATOM     16  C   UNL     1     108.915 130.497 135.917  0.00  0.00    +0.000 A 
ATOM     17  C   UNL     1     110.798 130.410 136.771  0.00  0.00    +0.000 A 
ATOM     18  C   UNL     1     110.398 131.333 136.503  0.00  0.00    +0.000 A 
ATOM     19  C   UNL     1     109.450 131.377 136.073  0.00  0.00    +0.000 A 
ENDBRANCH   2  11
BRANCH   4  20
ATOM     20  O   UNL     1     111.675 124.286 137.757  0.00  0.00    +0.000 OA
ATOM     21  C   UNL     1     111.996 123.654 137.052  0.00  0.00    +0.000 C 
ENDBRANCH   4  20
BRANCH   1  22
ATOM     22  O   UNL     1     111.418 125.711 139.136  0.00  0.00    +0.000 OA
BRANCH  22  30
ATOM     23  O   UNL     1     109.864 125.563 139.886  0.00  0.00    +0.000 OA
ATOM     24  O   UNL     1     110.748 127.405 142.083  0.00  0.00    +0.000 OA
ATOM     25  O   UNL     1     112.007 126.939 140.600  0.00  0.00    +0.000 OA
ATOM     26  O   UNL     1     108.899 126.643 142.101  0.00  0.00    +0.000 OA
ATOM     27  C   UNL     1     110.453 126.791 141.351  0.00  0.00    +0.000 C 
ATOM     28  C   UNL     1     111.083 126.558 140.609  0.00  0.00    +0.000 C 
ATOM     29  C   UNL     1     109.529 126.410 141.360  0.00  0.00    +0.000 C 
ATOM     30  C   UNL     1     110.788 125.944 139.877  0.00  0.00    +0.000 C 
ATOM     31  C   UNL     1     109.234 125.796 140.628  0.00  0.00    +0.000 C 
BRANCH  31  34
ATOM     32  O   UNL     1     108.086 124.660 141.253  0.00  0.00    +0.000 OA
ATOM     33  O   UNL     1     107.609 125.789 140.029  0.00  0.00    +0.000 OA
ATOM     34  C   UNL     1     108.310 125.415 140.637  0.00  0.00    +0.000 C 
ENDBRANCH  31  34
ENDBRANCH  22  30
ENDBRANCH   1  22
TORSDOF 5
ENDMDL
MODEL 3
REMARK VINA RESULT:      -9.0      1.667      3.151
REMARK  Name = 46896123
REMARK  5 active torsions:
REMARK  status: ('A' for Active; 'I' for Inactive)
REMARK    1  A    between atoms: O_2  and  C_16
REMARK    2  A    between atoms: O_2  and  C_20
REMARK    3  A    between atoms: O_9  and  C_24
REMARK    4  A    between atoms: C_17  and  C_18
REMARK    5  A    between atoms: C_19  and  C_21
REMARK                            x       y       z     vdW  Elec       q    Type
REMARK                         _______ _______ _______ _____ _____    ______ ____
ROOT
ATOM      1  C   UNL     1     112.441 130.135 138.660  0.00  0.00    +0.000 A 
ATOM      2  C   UNL     1     112.451 128.466 138.195  0.00  0.00    +0.000 A 
ATOM      3  C   UNL     1     112.134 129.404 138.051  0.00  0.00    +0.000 A 
ATOM      4  C   UNL     1     113.065 129.928 139.414  0.00  0.00    +0.000 A 
ATOM      5  C   UNL     1     113.076 128.260 138.948  0.00  0.00    +0.000 A 
ATOM      6  C   UNL     1     113.383 128.991 139.557  0.00  0.00    +0.000 A 
ENDROOT
BRANCH   2  11
ATOM      7  O   UNL     1     112.272 126.779 137.847  0.00  0.00    +0.000 OA
ATOM      8  O   UNL     1     110.966 127.456 135.233  0.00  0.00    +0.000 OA
ATOM      9  O   UNL     1     110.771 125.760 134.852  0.00  0.00    +0.000 OA
ATOM     10  O   UNL     1     111.918 123.334 137.161  0.00  0.00    +0.000 OA
ATOM     11  C   UNL     1     112.144 127.735 137.585  0.00  0.00    +0.000 C 
ATOM     12  C   UNL     1     111.709 127.961 136.714  0.00  0.00    +0.000 C 
ATOM     13  C   UNL     1     111.402 127.230 136.104  0.00  0.00    +0.000 C 
ATOM     14  C   UNL     1     111.530 126.274 136.367  0.00  0.00    +0.000 A 
ATOM     15  C   UNL     1     111.965 126.048 137.238  0.00  0.00    +0.000 A 
ATOM     16  C   UNL     1     111.205 125.523 135.721  0.00  0.00    +0.000 A 
ATOM     17  C   UNL     1     112.106 125.056 137.525  0.00  0.00    +0.000 A 
ATOM     18  C   UNL     1     111.788 124.289 136.895  0.00  0.00    +0.000 A 
ATOM     19  C   UNL     1     111.335 124.524 135.988  0.00  0.00    +0.000 A 
ENDBRANCH   2  11
BRANCH   4  20
ATOM     20  O   UNL     1     113.372 130.659 140.023  0.00  0.00    +0.000 OA
ATOM     21  C   UNL     1     114.063 130.471 140.721  0.00  0.00    +0.000 C 
ENDBRANCH   4  20
BRANCH   1  22
ATOM     22  O   UNL     1     112.123 131.072 138.516  0.00  0.00    +0.000 OA
BRANCH  22  30
ATOM     23  O   UNL     1     110.520 130.882 139.144  0.00  0.00    +0.000 OA
ATOM     24  O   UNL     1     109.452 132.612 136.938  0.00  0.00    +0.000 OA
ATOM     25  O   UNL     1     111.411 132.225 137.046  0.00  0.00    +0.000 OA
ATOM     26  O   UNL     1     108.205 131.846 138.302  0.00  0.00    +0.000 OA
ATOM     27  C   UNL     1     109.808 132.036 137.674  0.00  0.00    +0.000 C 
ATOM     28  C   UNL     1     110.788 131.842 137.727  0.00  0.00    +0.000 C 
ATOM     29  C   UNL     1     109.185 131.653 138.355  0.00  0.00    +0.000 C 
ATOM     30  C   UNL     1     111.144 131.266 138.463  0.00  0.00    +0.000 C 
ATOM     31  C   UNL     1     109.541 131.076 139.091  0.00  0.00    +0.000 C 
BRANCH  31  34
ATOM     32  O   UNL     1     108.695 131.215 140.595  0.00  0.00    +0.000 OA
ATOM     33  O   UNL     1     108.517 129.788 139.630  0.00  0.00    +0.000 OA
ATOM     34  C   UNL     1     108.917 130.693 139.772  0.00  0.00    +0.000 C 
ENDBRANCH  31  34
ENDBRANCH  22  30
ENDBRANCH   1  22
TORSDOF 5
ENDMDL
MODEL 4
REMARK VINA RESULT:      -8.9      1.834      2.779
REMARK  Name = 46896123
REMARK  5 active torsions:
REMARK  status: ('A' for Active; 'I' for Inactive)
REMARK    1  A    between atoms: O_2  and  C_16
REMARK    2  A    between atoms: O_2  and  C_20
REMARK    3  A    between atoms: O_9  and  C_24
REMARK    4  A    between atoms: C_17  and  C_18
REMARK    5  A    between atoms: C_19  and  C_21
REMARK                            x       y       z     vdW  Elec       q    Type
REMARK                         _______ _______ _______ _____ _____    ______ ____
ROOT
ATOM      1  C   UNL     1     113.497 130.143 136.678  0.00  0.00    +0.000 A 
ATOM      2  C   UNL     1     113.200 128.591 135.968  0.00  0.00    +0.000 A 
ATOM      3  C   UNL     1     113.003 129.273 136.672  0.00  0.00    +0.000 A 
ATOM      4  C   UNL     1     114.187 130.330 135.979  0.00  0.00    +0.000 A 
ATOM      5  C   UNL     1     113.891 128.778 135.269  0.00  0.00    +0.000 A 
ATOM      6  C   UNL     1     114.384 129.648 135.275  0.00  0.00    +0.000 A 
ENDROOT
BRANCH   2  11
ATOM      7  O   UNL     1     113.134 126.901 136.342  0.00  0.00    +0.000 OA
ATOM      8  O   UNL     1     110.370 126.753 135.184  0.00  0.00    +0.000 OA
ATOM      9  O   UNL     1     110.272 125.045 135.548  0.00  0.00    +0.000 OA
ATOM     10  O   UNL     1     113.022 123.458 137.115  0.00  0.00    +0.000 OA
ATOM     11  C   UNL     1     112.706 127.721 135.962  0.00  0.00    +0.000 C 
ATOM     12  C   UNL     1     111.785 127.672 135.576  0.00  0.00    +0.000 C 
ATOM     13  C   UNL     1     111.292 126.802 135.570  0.00  0.00    +0.000 C 
ATOM     14  C   UNL     1     111.719 125.982 135.950  0.00  0.00    +0.000 A 
ATOM     15  C   UNL     1     112.640 126.031 136.336  0.00  0.00    +0.000 A 
ATOM     16  C   UNL     1     111.192 125.083 135.937  0.00  0.00    +0.000 A 
ATOM     17  C   UNL     1     113.099 125.185 136.736  0.00  0.00    +0.000 A 
ATOM     18  C   UNL     1     112.591 124.276 136.733  0.00  0.00    +0.000 A 
ATOM     19  C   UNL     1     111.631 124.224 136.331  0.00  0.00    +0.000 A 
ENDBRANCH   2  11
BRANCH   4  20
ATOM     20  O   UNL     1     114.681 131.200 135.985  0.00  0.00    +0.000 OA
ATOM     21  C   UNL     1     115.309 131.423 135.240  0.00  0.00    +0.000 C 
ENDBRANCH   4  20
BRANCH   1  22
ATOM     22  O   UNL     1     113.299 130.825 137.382  0.00  0.00    +0.000 OA
BRANCH  22  30
ATOM     23  O   UNL     1     111.731 131.347 136.866  0.00  0.00    +0.000 OA
ATOM     24  O   UNL     1     110.753 131.211 139.699  0.00  0.00    +0.000 OA
ATOM     25  O   UNL     1     112.648 130.734 139.271  0.00  0.00    +0.000 OA
ATOM     26  O   UNL     1     109.510 131.778 138.238  0.00  0.00    +0.000 OA
ATOM     27  C   UNL     1     111.079 131.256 138.754  0.00  0.00    +0.000 C 
ATOM     28  C   UNL     1     112.026 131.018 138.540  0.00  0.00    +0.000 C 
ATOM     29  C   UNL     1     110.458 131.540 138.024  0.00  0.00    +0.000 C 
ATOM     30  C   UNL     1     112.352 131.063 137.596  0.00  0.00    +0.000 C 
ATOM     31  C   UNL     1     110.784 131.585 137.080  0.00  0.00    +0.000 C 
BRANCH  31  34
ATOM     32  O   UNL     1     109.689 131.180 135.800  0.00  0.00    +0.000 OA
ATOM     33  O   UNL     1     110.014 132.841 136.168  0.00  0.00    +0.000 OA
ATOM     34  C   UNL     1     110.162 131.869 136.349  0.00  0.00    +0.000 C 
ENDBRANCH  31  34
ENDBRANCH  22  30
ENDBRANCH   1  22
TORSDOF 5
ENDMDL
MODEL 5
REMARK VINA RESULT:      -8.9      2.208      4.981
REMARK  Name = 46896123
REMARK  5 active torsions:
REMARK  status: ('A' for Active; 'I' for Inactive)
REMARK    1  A    between atoms: O_2  and  C_16
REMARK    2  A    between atoms: O_2  and  C_20
REMARK    3  A    between atoms: O_9  and  C_24
REMARK    4  A    between atoms: C_17  and  C_18
REMARK    5  A    between atoms: C_19  and  C_21
REMARK                            x       y       z     vdW  Elec       q    Type
REMARK                         _______ _______ _______ _____ _____    ______ ____
ROOT
ATOM      1  C   UNL     1     112.825 126.606 138.495  0.00  0.00    +0.000 A 
ATOM      2  C   UNL     1     111.896 127.307 137.211  0.00  0.00    +0.000 A 
ATOM      3  C   UNL     1     112.046 127.154 138.188  0.00  0.00    +0.000 A 
ATOM      4  C   UNL     1     113.453 126.211 137.825  0.00  0.00    +0.000 A 
ATOM      5  C   UNL     1     112.525 126.912 136.541  0.00  0.00    +0.000 A 
ATOM      6  C   UNL     1     113.303 126.364 136.848  0.00  0.00    +0.000 A 
ENDROOT
BRANCH   2  11
ATOM      7  O   UNL     1     111.223 128.840 136.768  0.00  0.00    +0.000 OA
ATOM      8  O   UNL     1     108.574 127.528 136.256  0.00  0.00    +0.000 OA
ATOM      9  O   UNL     1     107.864 129.061 135.803  0.00  0.00    +0.000 OA
ATOM     10  O   UNL     1     109.872 131.976 135.870  0.00  0.00    +0.000 OA
ATOM     11  C   UNL     1     111.118 127.855 136.904  0.00  0.00    +0.000 C 
ATOM     12  C   UNL     1     110.235 127.417 136.733  0.00  0.00    +0.000 C 
ATOM     13  C   UNL     1     109.457 127.965 136.427  0.00  0.00    +0.000 C 
ATOM     14  C   UNL     1     109.562 128.951 136.291  0.00  0.00    +0.000 A 
ATOM     15  C   UNL     1     110.445 129.388 136.461  0.00  0.00    +0.000 A 
ATOM     16  C   UNL     1     108.742 129.508 135.971  0.00  0.00    +0.000 A 
ATOM     17  C   UNL     1     110.569 130.413 136.324  0.00  0.00    +0.000 A 
ATOM     18  C   UNL     1     109.763 130.991 136.004  0.00  0.00    +0.000 A 
ATOM     19  C   UNL     1     108.843 130.535 135.827  0.00  0.00    +0.000 A 
ENDBRANCH   2  11
BRANCH   4  20
ATOM     20  O   UNL     1     114.231 125.663 138.131  0.00  0.00    +0.000 OA
ATOM     21  C   UNL     1     114.653 125.003 137.510  0.00  0.00    +0.000 C 
ENDBRANCH   4  20
BRANCH   1  22
ATOM     22  O   UNL     1     112.975 126.454 139.471  0.00  0.00    +0.000 OA
BRANCH  22  30
ATOM     23  O   UNL     1     113.426 128.068 139.910  0.00  0.00    +0.000 OA
ATOM     24  O   UNL     1     111.810 127.837 142.426  0.00  0.00    +0.000 OA
ATOM     25  O   UNL     1     111.897 126.300 141.149  0.00  0.00    +0.000 OA
ATOM     26  O   UNL     1     112.801 129.527 142.025  0.00  0.00    +0.000 OA
ATOM     27  C   UNL     1     112.349 127.914 141.587  0.00  0.00    +0.000 C 
ATOM     28  C   UNL     1     112.392 127.145 140.949  0.00  0.00    +0.000 C 
ATOM     29  C   UNL     1     112.844 128.759 141.387  0.00  0.00    +0.000 C 
ATOM     30  C   UNL     1     112.931 127.222 140.110  0.00  0.00    +0.000 C 
ATOM     31  C   UNL     1     113.383 128.836 140.548  0.00  0.00    +0.000 C 
BRANCH  31  34
ATOM     32  O   UNL     1     114.833 129.780 140.628  0.00  0.00    +0.000 OA
ATOM     33  O   UNL     1     113.419 130.428 139.867  0.00  0.00    +0.000 OA
ATOM     34  C   UNL     1     113.878 129.681 140.348  0.00  0.00    +0.000 C 
ENDBRANCH  31  34
ENDBRANCH  22  30
ENDBRANCH   1  22
TORSDOF 5
ENDMDL
MODEL 6
REMARK VINA RESULT:      -8.8      2.273      5.383
REMARK  Name = 46896123
REMARK  5 active torsions:
REMARK  status: ('A' for Active; 'I' for Inactive)
REMARK    1  A    between atoms: O_2  and  C_16
REMARK    2  A    between atoms: O_2  and  C_20
REMARK    3  A    between atoms: O_9  and  C_24
REMARK    4  A    between atoms: C_17  and  C_18
REMARK    5  A    between atoms: C_19  and  C_21
REMARK                            x       y       z     vdW  Elec       q    Type
REMARK                         _______ _______ _______ _____ _____    ______ ____
ROOT
ATOM      1  C   UNL     1     112.617 127.225 137.440  0.00  0.00    +0.000 A 
ATOM      2  C   UNL     1     112.186 128.682 136.609  0.00  0.00    +0.000 A 
ATOM      3  C   UNL     1     112.009 128.011 137.329  0.00  0.00    +0.000 A 
ATOM      4  C   UNL     1     113.403 127.111 136.832  0.00  0.00    +0.000 A 
ATOM      5  C   UNL     1     112.972 128.568 136.001  0.00  0.00    +0.000 A 
ATOM      6  C   UNL     1     113.580 127.782 136.113  0.00  0.00    +0.000 A 
ENDROOT
BRANCH   2  11
ATOM      7  O   UNL     1     111.538 130.174 137.204  0.00  0.00    +0.000 OA
ATOM      8  O   UNL     1     109.831 130.413 134.749  0.00  0.00    +0.000 OA
ATOM      9  O   UNL     1     109.158 131.922 135.322  0.00  0.00    +0.000 OA
ATOM     10  O   UNL     1     110.231 133.214 138.438  0.00  0.00    +0.000 OA
ATOM     11  C   UNL     1     111.578 129.468 136.498  0.00  0.00    +0.000 C 
ATOM     12  C   UNL     1     111.009 129.548 135.679  0.00  0.00    +0.000 C 
ATOM     13  C   UNL     1     110.400 130.333 135.567  0.00  0.00    +0.000 C 
ATOM     14  C   UNL     1     110.361 131.040 136.274  0.00  0.00    +0.000 A 
ATOM     15  C   UNL     1     110.930 130.960 137.093  0.00  0.00    +0.000 A 
ATOM     16  C   UNL     1     109.722 131.852 136.144  0.00  0.00    +0.000 A 
ATOM     17  C   UNL     1     110.899 131.688 137.838  0.00  0.00    +0.000 A 
ATOM     18  C   UNL     1     110.268 132.509 137.729  0.00  0.00    +0.000 A 
ATOM     19  C   UNL     1     109.676 132.592 136.876  0.00  0.00    +0.000 A 
ENDBRANCH   2  11
BRANCH   4  20
ATOM     20  O   UNL     1     114.011 126.325 136.944  0.00  0.00    +0.000 OA
ATOM     21  C   UNL     1     114.565 126.009 136.174  0.00  0.00    +0.000 C 
ENDBRANCH   4  20
BRANCH   1  22
ATOM     22  O   UNL     1     112.440 126.554 138.160  0.00  0.00    +0.000 OA
BRANCH  22  30
ATOM     23  O   UNL     1     113.070 127.555 139.426  0.00  0.00    +0.000 OA
ATOM     24  O   UNL     1     111.214 126.244 141.385  0.00  0.00    +0.000 OA
ATOM     25  O   UNL     1     111.203 125.680 139.466  0.00  0.00    +0.000 OA
ATOM     26  O   UNL     1     112.462 127.682 141.997  0.00  0.00    +0.000 OA
ATOM     27  C   UNL     1     111.833 126.681 140.732  0.00  0.00    +0.000 C 
ATOM     28  C   UNL     1     111.827 126.399 139.773  0.00  0.00    +0.000 C 
ATOM     29  C   UNL     1     112.457 127.400 141.038  0.00  0.00    +0.000 C 
ATOM     30  C   UNL     1     112.446 126.836 139.119  0.00  0.00    +0.000 C 
ATOM     31  C   UNL     1     113.075 127.837 140.385  0.00  0.00    +0.000 C 
BRANCH  31  34
ATOM     32  O   UNL     1     114.650 128.334 140.907  0.00  0.00    +0.000 OA
ATOM     33  O   UNL     1     113.372 129.497 140.781  0.00  0.00    +0.000 OA
ATOM     34  C   UNL     1     113.699 128.556 140.691  0.00  0.00    +0.000 C 
ENDBRANCH  31  34
ENDBRANCH  22  30
ENDBRANCH   1  22
TORSDOF 5
ENDMDL
MODEL 7
REMARK VINA RESULT:      -8.8      1.900      3.327
REMARK  Name = 46896123
REMARK  5 active torsions:
REMARK  status: ('A' for Active; 'I' for Inactive)
REMARK    1  A    between atoms: O_2  and  C_16
REMARK    2  A    between atoms: O_2  and  C_20
REMARK    3  A    between atoms: O_9  and  C_24
REMARK    4  A    between atoms: C_17  and  C_18
REMARK    5  A    between atoms: C_19  and  C_21
REMARK                            x       y       z     vdW  Elec       q    Type
REMARK                         _______ _______ _______ _____ _____    ______ ____
ROOT
ATOM      1  C   UNL     1     112.677 129.927 139.424  0.00  0.00    +0.000 A 
ATOM      2  C   UNL     1     112.883 128.209 139.354  0.00  0.00    +0.000 A 
ATOM      3  C   UNL     1     112.540 129.057 138.950  0.00  0.00    +0.000 A 
ATOM      4  C   UNL     1     113.156 129.948 140.302  0.00  0.00    +0.000 A 
ATOM      5  C   UNL     1     113.361 128.230 140.231  0.00  0.00    +0.000 A 
ATOM      6  C   UNL     1     113.498 129.100 140.705  0.00  0.00    +0.000 A 
ENDROOT
BRANCH   2  11
ATOM      7  O   UNL     1     113.421 127.021 138.213  0.00  0.00    +0.000 OA
ATOM      8  O   UNL     1     110.987 125.365 138.789  0.00  0.00    +0.000 OA
ATOM      9  O   UNL     1     111.502 124.147 137.645  0.00  0.00    +0.000 OA
ATOM     10  O   UNL     1     114.538 124.615 135.884  0.00  0.00    +0.000 OA
ATOM     11  C   UNL     1     112.746 127.339 138.879  0.00  0.00    +0.000 C 
ATOM     12  C   UNL     1     111.935 126.787 139.071  0.00  0.00    +0.000 C 
ATOM     13  C   UNL     1     111.798 125.917 138.597  0.00  0.00    +0.000 C 
ATOM     14  C   UNL     1     112.473 125.600 137.931  0.00  0.00    +0.000 A 
ATOM     15  C   UNL     1     113.284 126.152 137.739  0.00  0.00    +0.000 A 
ATOM     16  C   UNL     1     112.317 124.691 137.445  0.00  0.00    +0.000 A 
ATOM     17  C   UNL     1     113.996 125.834 137.047  0.00  0.00    +0.000 A 
ATOM     18  C   UNL     1     113.861 124.929 136.549  0.00  0.00    +0.000 A 
ATOM     19  C   UNL     1     113.016 124.354 136.750  0.00  0.00    +0.000 A 
ENDBRANCH   2  11
BRANCH   4  20
ATOM     20  O   UNL     1     113.292 130.818 140.776  0.00  0.00    +0.000 OA
ATOM     21  C   UNL     1     114.089 130.946 141.367  0.00  0.00    +0.000 C 
ENDBRANCH   4  20
BRANCH   1  22
ATOM     22  O   UNL     1     112.335 130.776 139.021  0.00  0.00    +0.000 OA
BRANCH  22  30
ATOM     23  O   UNL     1     110.654 130.585 139.394  0.00  0.00    +0.000 OA
ATOM     24  O   UNL     1     109.933 131.604 136.666  0.00  0.00    +0.000 OA
ATOM     25  O   UNL     1     111.854 131.456 137.202  0.00  0.00    +0.000 OA
ATOM     26  O   UNL     1     108.493 131.074 137.948  0.00  0.00    +0.000 OA
ATOM     27  C   UNL     1     110.173 131.265 137.575  0.00  0.00    +0.000 C 
ATOM     28  C   UNL     1     111.134 131.190 137.843  0.00  0.00    +0.000 C 
ATOM     29  C   UNL     1     109.453 130.999 138.216  0.00  0.00    +0.000 C 
ATOM     30  C   UNL     1     111.374 130.850 138.752  0.00  0.00    +0.000 C 
ATOM     31  C   UNL     1     109.694 130.659 139.125  0.00  0.00    +0.000 C 
BRANCH  31  34
ATOM     32  O   UNL     1     108.647 131.047 140.450  0.00  0.00    +0.000 OA
ATOM     33  O   UNL     1     108.580 129.475 139.724  0.00  0.00    +0.000 OA
ATOM     34  C   UNL     1     108.974 130.394 139.767  0.00  0.00    +0.000 C 
ENDBRANCH  31  34
ENDBRANCH  22  30
ENDBRANCH   1  22
TORSDOF 5
ENDMDL
MODEL 8
REMARK VINA RESULT:      -8.8      2.036      3.079
REMARK  Name = 46896123
REMARK  5 active torsions:
REMARK  status: ('A' for Active; 'I' for Inactive)
REMARK    1  A    between atoms: O_2  and  C_16
REMARK    2  A    between atoms: O_2  and  C_20
REMARK    3  A    between atoms: O_9  and  C_24
REMARK    4  A    between atoms: C_17  and  C_18
REMARK    5  A    between atoms: C_19  and  C_21
REMARK                            x       y       z     vdW  Elec       q    Type
REMARK                         _______ _______ _______ _____ _____    ______ ____
ROOT
ATOM      1  C   UNL     1     113.613 130.122 136.693  0.00  0.00    +0.000 A 
ATOM      2  C   UNL     1     113.379 128.524 136.067  0.00  0.00    +0.000 A 
ATOM      3  C   UNL     1     113.124 129.249 136.706  0.00  0.00    +0.000 A 
ATOM      4  C   UNL     1     114.356 130.268 136.040  0.00  0.00    +0.000 A 
ATOM      5  C   UNL     1     114.123 128.670 135.415  0.00  0.00    +0.000 A 
ATOM      6  C   UNL     1     114.611 129.543 135.401  0.00  0.00    +0.000 A 
ENDROOT
BRANCH   2  11
ATOM      7  O   UNL     1     113.335 126.835 136.449  0.00  0.00    +0.000 OA
ATOM      8  O   UNL     1     110.536 126.667 135.383  0.00  0.00    +0.000 OA
ATOM      9  O   UNL     1     110.459 124.961 135.756  0.00  0.00    +0.000 OA
ATOM     10  O   UNL     1     113.267 123.394 137.237  0.00  0.00    +0.000 OA
ATOM     11  C   UNL     1     112.890 127.651 136.080  0.00  0.00    +0.000 C 
ATOM     12  C   UNL     1     111.957 127.595 135.725  0.00  0.00    +0.000 C 
ATOM     13  C   UNL     1     111.469 126.723 135.738  0.00  0.00    +0.000 C 
ATOM     14  C   UNL     1     111.913 125.907 136.107  0.00  0.00    +0.000 A 
ATOM     15  C   UNL     1     112.846 125.963 136.463  0.00  0.00    +0.000 A 
ATOM     16  C   UNL     1     111.391 125.005 136.114  0.00  0.00    +0.000 A 
ATOM     17  C   UNL     1     113.322 125.120 136.850  0.00  0.00    +0.000 A 
ATOM     18  C   UNL     1     112.819 124.208 136.867  0.00  0.00    +0.000 A 
ATOM     19  C   UNL     1     111.848 124.150 136.497  0.00  0.00    +0.000 A 
ENDBRANCH   2  11
BRANCH   4  20
ATOM     20  O   UNL     1     114.845 131.141 136.027  0.00  0.00    +0.000 OA
ATOM     21  C   UNL     1     115.446 131.365 135.260  0.00  0.00    +0.000 C 
ENDBRANCH   4  20
BRANCH   1  22
ATOM     22  O   UNL     1     113.358 130.848 137.331  0.00  0.00    +0.000 OA
BRANCH  22  30
ATOM     23  O   UNL     1     113.972 130.251 138.837  0.00  0.00    +0.000 OA
ATOM     24  O   UNL     1     111.316 130.776 140.129  0.00  0.00    +0.000 OA
ATOM     25  O   UNL     1     111.587 131.198 138.193  0.00  0.00    +0.000 OA
ATOM     26  O   UNL     1     112.816 130.004 141.204  0.00  0.00    +0.000 OA
ATOM     27  C   UNL     1     112.201 130.601 139.698  0.00  0.00    +0.000 C 
ATOM     28  C   UNL     1     112.337 130.812 138.730  0.00  0.00    +0.000 C 
ATOM     29  C   UNL     1     112.951 130.215 140.236  0.00  0.00    +0.000 C 
ATOM     30  C   UNL     1     113.222 130.637 138.300  0.00  0.00    +0.000 C 
ATOM     31  C   UNL     1     113.837 130.040 139.805  0.00  0.00    +0.000 C 
BRANCH  31  34
ATOM     32  O   UNL     1     115.357 130.232 140.612  0.00  0.00    +0.000 OA
ATOM     33  O   UNL     1     114.566 128.691 140.610  0.00  0.00    +0.000 OA
ATOM     34  C   UNL     1     114.586 129.654 140.342  0.00  0.00    +0.000 C 
ENDBRANCH  31  34
ENDBRANCH  22  30
ENDBRANCH   1  22
TORSDOF 5
ENDMDL
MODEL 9
REMARK VINA RESULT:      -8.7      8.687     12.256
REMARK  Name = 46896123
REMARK  5 active torsions:
REMARK  status: ('A' for Active; 'I' for Inactive)
REMARK    1  A    between atoms: O_2  and  C_16
REMARK    2  A    between atoms: O_2  and  C_20
REMARK    3  A    between atoms: O_9  and  C_24
REMARK    4  A    between atoms: C_17  and  C_18
REMARK    5  A    between atoms: C_19  and  C_21
REMARK                            x       y       z     vdW  Elec       q    Type
REMARK                         _______ _______ _______ _____ _____    ______ ____
ROOT
ATOM      1  C   UNL     1     105.898 125.156 146.457  0.00  0.00    +0.000 A 
ATOM      2  C   UNL     1     105.943 126.785 145.872  0.00  0.00    +0.000 A 
ATOM      3  C   UNL     1     105.530 125.874 145.867  0.00  0.00    +0.000 A 
ATOM      4  C   UNL     1     106.679 125.348 147.052  0.00  0.00    +0.000 A 
ATOM      5  C   UNL     1     106.724 126.977 146.467  0.00  0.00    +0.000 A 
ATOM      6  C   UNL     1     107.092 126.259 147.057  0.00  0.00    +0.000 A 
ENDROOT
BRANCH   2  11
ATOM      7  O   UNL     1     105.525 127.362 144.293  0.00  0.00    +0.000 OA
ATOM      8  O   UNL     1     104.573 129.944 145.489  0.00  0.00    +0.000 OA
ATOM      9  O   UNL     1     104.140 130.556 143.909  0.00  0.00    +0.000 OA
ATOM     10  O   UNL     1     104.680 128.517 141.065  0.00  0.00    +0.000 OA
ATOM     11  C   UNL     1     105.576 127.504 145.282  0.00  0.00    +0.000 C 
ATOM     12  C   UNL     1     105.258 128.364 145.680  0.00  0.00    +0.000 C 
ATOM     13  C   UNL     1     104.890 129.083 145.090  0.00  0.00    +0.000 C 
ATOM     14  C   UNL     1     104.840 128.941 144.102  0.00  0.00    +0.000 A 
ATOM     15  C   UNL     1     105.157 128.081 143.703  0.00  0.00    +0.000 A 
ATOM     16  C   UNL     1     104.455 129.699 143.500  0.00  0.00    +0.000 A 
ATOM     17  C   UNL     1     105.111 127.918 142.675  0.00  0.00    +0.000 A 
ATOM     18  C   UNL     1     104.729 128.662 142.053  0.00  0.00    +0.000 A 
ATOM     19  C   UNL     1     104.399 129.559 142.469  0.00  0.00    +0.000 A 
ENDBRANCH   2  11
BRANCH   4  20
ATOM     20  O   UNL     1     107.047 124.629 147.642  0.00  0.00    +0.000 OA
ATOM     21  C   UNL     1     107.778 124.840 148.290  0.00  0.00    +0.000 C 
ENDBRANCH   4  20
BRANCH   1  22
ATOM     22  O   UNL     1     105.485 124.245 146.452  0.00  0.00    +0.000 OA
BRANCH  22  30
ATOM     23  O   UNL     1     104.067 124.649 147.360  0.00  0.00    +0.000 OA
ATOM     24  O   UNL     1     102.442 122.803 145.642  0.00  0.00    +0.000 OA
ATOM     25  O   UNL     1     104.402 123.014 145.307  0.00  0.00    +0.000 OA
ATOM     26  O   UNL     1     101.565 123.822 147.122  0.00  0.00    +0.000 OA
ATOM     27  C   UNL     1     102.983 123.418 146.215  0.00  0.00    +0.000 C 
ATOM     28  C   UNL     1     103.964 123.524 146.047  0.00  0.00    +0.000 C 
ATOM     29  C   UNL     1     102.545 123.928 146.955  0.00  0.00    +0.000 C 
ATOM     30  C   UNL     1     104.505 124.139 146.620  0.00  0.00    +0.000 C 
ATOM     31  C   UNL     1     103.087 124.543 147.527  0.00  0.00    +0.000 C 
BRANCH  31  34
ATOM     32  O   UNL     1     102.571 124.647 149.178  0.00  0.00    +0.000 OA
ATOM     33  O   UNL     1     102.286 125.970 148.097  0.00  0.00    +0.000 OA
ATOM     34  C   UNL     1     102.648 125.053 148.267  0.00  0.00    +0.000 C 
ENDBRANCH  31  34
ENDBRANCH  22  30
ENDBRANCH   1  22
TORSDOF 5
ENDMDL
MODEL 10
REMARK VINA RESULT:      -8.7      2.145      5.724
REMARK  Name = 46896123
REMARK  5 active torsions:
REMARK  status: ('A' for Active; 'I' for Inactive)
REMARK    1  A    between atoms: O_2  and  C_16
REMARK    2  A    between atoms: O_2  and  C_20
REMARK    3  A    between atoms: O_9  and  C_24
REMARK    4  A    between atoms: C_17  and  C_18
REMARK    5  A    between atoms: C_19  and  C_21
REMARK                            x       y       z     vdW  Elec       q    Type
REMARK                         _______ _______ _______ _____ _____    ______ ____
ROOT
ATOM      1  C   UNL     1     112.870 125.745 137.148  0.00  0.00    +0.000 A 
ATOM      2  C   UNL     1     113.163 126.400 138.724  0.00  0.00    +0.000 A 
ATOM      3  C   UNL     1     112.543 126.231 137.958  0.00  0.00    +0.000 A 
ATOM      4  C   UNL     1     113.818 125.427 137.104  0.00  0.00    +0.000 A 
ATOM      5  C   UNL     1     114.110 126.082 138.681  0.00  0.00    +0.000 A 
ATOM      6  C   UNL     1     114.437 125.596 137.870  0.00  0.00    +0.000 A 
ENDROOT
BRANCH   2  11
ATOM      7  O   UNL     1     113.137 127.823 139.711  0.00  0.00    +0.000 OA
ATOM      8  O   UNL     1     111.250 126.471 141.612  0.00  0.00    +0.000 OA
ATOM      9  O   UNL     1     111.203 127.892 142.630  0.00  0.00    +0.000 OA
ATOM     10  O   UNL     1     113.100 130.735 141.707  0.00  0.00    +0.000 OA
ATOM     11  C   UNL     1     112.835 126.886 139.535  0.00  0.00    +0.000 C 
ATOM     12  C   UNL     1     112.207 126.435 140.168  0.00  0.00    +0.000 C 
ATOM     13  C   UNL     1     111.879 126.921 140.978  0.00  0.00    +0.000 C 
ATOM     14  C   UNL     1     112.181 127.858 141.155  0.00  0.00    +0.000 A 
ATOM     15  C   UNL     1     112.810 128.309 140.522  0.00  0.00    +0.000 A 
ATOM     16  C   UNL     1     111.831 128.352 142.003  0.00  0.00    +0.000 A 
ATOM     17  C   UNL     1     113.133 129.285 140.692  0.00  0.00    +0.000 A 
ATOM     18  C   UNL     1     112.796 129.798 141.534  0.00  0.00    +0.000 A 
ATOM     19  C   UNL     1     112.141 129.328 142.194  0.00  0.00    +0.000 A 
ENDBRANCH   2  11
BRANCH   4  20
ATOM     20  O   UNL     1     114.145 124.941 136.294  0.00  0.00    +0.000 OA
ATOM     21  C   UNL     1     115.111 124.988 136.039  0.00  0.00    +0.000 C 
ENDBRANCH   4  20
BRANCH   1  22
ATOM     22  O   UNL     1     112.250 125.576 136.382  0.00  0.00    +0.000 OA
BRANCH  22  30
ATOM     23  O   UNL     1     112.197 127.238 135.899  0.00  0.00    +0.000 OA
ATOM     24  O   UNL     1     109.443 126.825 134.782  0.00  0.00    +0.000 OA
ATOM     25  O   UNL     1     110.415 125.300 135.637  0.00  0.00    +0.000 OA
ATOM     26  O   UNL     1     110.307 128.625 134.671  0.00  0.00    +0.000 OA
ATOM     27  C   UNL     1     110.361 126.962 135.154  0.00  0.00    +0.000 C 
ATOM     28  C   UNL     1     110.847 126.200 135.582  0.00  0.00    +0.000 C 
ATOM     29  C   UNL     1     110.793 127.863 135.099  0.00  0.00    +0.000 C 
ATOM     30  C   UNL     1     111.765 126.338 135.954  0.00  0.00    +0.000 C 
ATOM     31  C   UNL     1     111.711 128.000 135.471  0.00  0.00    +0.000 C 
BRANCH  31  34
ATOM     32  O   UNL     1     112.030 129.556 136.163  0.00  0.00    +0.000 OA
ATOM     33  O   UNL     1     112.687 129.145 134.614  0.00  0.00    +0.000 OA
ATOM     34  C   UNL     1     112.143 128.900 135.416  0.00  0.00    +0.000 C 
ENDBRANCH  31  34
ENDBRANCH  22  30
ENDBRANCH   1  22
TORSDOF 5
ENDMDL
