MODEL 1
REMARK VINA RESULT:      -9.3      0.000      0.000
REMARK  Name = 73813317
REMARK  4 active torsions:
REMARK  status: ('A' for Active; 'I' for Inactive)
REMARK    1  A    between atoms: O_2  and  C_16
REMARK    2  A    between atoms: O_2  and  C_23
REMARK    3  A    between atoms: C_15  and  C_18
REMARK    4  A    between atoms: C_17  and  C_21
REMARK                            x       y       z     vdW  Elec       q    Type
REMARK                         _______ _______ _______ _____ _____    ______ ____
ROOT
ATOM      1  O   UNL     1     111.197 124.416 135.758  0.00  0.00    +0.000 OA
ATOM      2  C   UNL     1     110.106 126.636 135.835  0.00  0.00    +0.000 A 
ATOM      3  C   UNL     1     110.742 125.546 136.505  0.00  0.00    +0.000 A 
ATOM      4  C   UNL     1     110.379 126.286 136.530  0.00  0.00    +0.000 A 
ATOM      5  C   UNL     1     110.197 126.246 135.114  0.00  0.00    +0.000 A 
ATOM      6  C   UNL     1     110.833 125.156 135.783  0.00  0.00    +0.000 A 
ATOM      7  C   UNL     1     110.561 125.506 135.087  0.00  0.00    +0.000 A 
ENDROOT
BRANCH   2  12
ATOM      8  O   UNL     1     110.203 128.062 135.873  0.00  0.00    +0.000 OA
ATOM      9  O   UNL     1     108.460 126.748 135.866  0.00  0.00    +0.000 OA
ATOM     10  O   UNL     1     107.804 129.669 135.958  0.00  0.00    +0.000 OA
ATOM     11  O   UNL     1     110.422 130.965 135.950  0.00  0.00    +0.000 OA
ATOM     12  C   UNL     1     109.743 127.376 135.862  0.00  0.00    +0.000 C 
ATOM     13  C   UNL     1     108.920 127.432 135.877  0.00  0.00    +0.000 C 
ATOM     14  C   UNL     1     108.557 128.173 135.904  0.00  0.00    +0.000 C 
ATOM     15  C   UNL     1     109.018 128.858 135.915  0.00  0.00    +0.000 A 
ATOM     16  C   UNL     1     109.841 128.801 135.899  0.00  0.00    +0.000 A 
ATOM     17  C   UNL     1     108.628 129.623 135.943  0.00  0.00    +0.000 A 
ATOM     18  C   UNL     1     110.331 129.507 135.911  0.00  0.00    +0.000 A 
ATOM     19  C   UNL     1     109.102 130.340 135.955  0.00  0.00    +0.000 A 
ATOM     20  C   UNL     1     109.959 130.282 135.939  0.00  0.00    +0.000 A 
ENDBRANCH   2  12
BRANCH   3  21
ATOM     21  O   UNL     1     111.015 125.196 137.199  0.00  0.00    +0.000 OA
BRANCH  21  30
ATOM     22  O   UNL     1     112.222 125.944 137.356  0.00  0.00    +0.000 OA
ATOM     23  O   UNL     1     111.800 126.116 139.789  0.00  0.00    +0.000 OA
ATOM     24  O   UNL     1     113.147 126.808 139.134  0.00  0.00    +0.000 OA
ATOM     25  O   UNL     1     110.733 125.310 138.821  0.00  0.00    +0.000 OA
ATOM     26  C   UNL     1     111.940 126.059 138.978  0.00  0.00    +0.000 C 
ATOM     27  C   UNL     1     112.614 126.405 138.651  0.00  0.00    +0.000 C 
ATOM     28  C   UNL     1     111.407 125.656 138.494  0.00  0.00    +0.000 C 
ATOM     29  C   UNL     1     112.754 126.347 137.840  0.00  0.00    +0.000 C 
ATOM     30  C   UNL     1     111.547 125.598 137.684  0.00  0.00    +0.000 C 
BRANCH  29  32
ATOM     31  O   UNL     1     113.905 126.260 136.997  0.00  0.00    +0.000 OA
ATOM     32  C   UNL     1     113.429 126.693 137.512  0.00  0.00    +0.000 C 
ENDBRANCH  29  32
ENDBRANCH  21  30
ENDBRANCH   3  21
TORSDOF 4
ENDMDL
MODEL 2
REMARK VINA RESULT:      -9.2      1.814      4.279
REMARK  Name = 73813317
REMARK  4 active torsions:
REMARK  status: ('A' for Active; 'I' for Inactive)
REMARK    1  A    between atoms: O_2  and  C_16
REMARK    2  A    between atoms: O_2  and  C_23
REMARK    3  A    between atoms: C_15  and  C_18
REMARK    4  A    between atoms: C_17  and  C_21
REMARK                            x       y       z     vdW  Elec       q    Type
REMARK                         _______ _______ _______ _____ _____    ______ ____
ROOT
ATOM      1  O   UNL     1     109.633 128.401 134.859  0.00  0.00    +0.000 OA
ATOM      2  C   UNL     1     111.036 126.549 135.710  0.00  0.00    +0.000 A 
ATOM      3  C   UNL     1     110.193 127.676 135.956  0.00  0.00    +0.000 A 
ATOM      4  C   UNL     1     110.661 127.058 136.239  0.00  0.00    +0.000 A 
ATOM      5  C   UNL     1     110.944 126.657 134.898  0.00  0.00    +0.000 A 
ATOM      6  C   UNL     1     110.101 127.784 135.143  0.00  0.00    +0.000 A 
ATOM      7  C   UNL     1     110.476 127.274 134.614  0.00  0.00    +0.000 A 
ENDROOT
BRANCH   2  12
ATOM      8  O   UNL     1     112.282 126.079 136.231  0.00  0.00    +0.000 OA
ATOM      9  O   UNL     1     110.419 125.022 135.808  0.00  0.00    +0.000 OA
ATOM     10  O   UNL     1     112.602 123.287 136.904  0.00  0.00    +0.000 OA
ATOM     11  O   UNL     1     114.827 125.139 137.291  0.00  0.00    +0.000 OA
ATOM     12  C   UNL     1     111.504 125.932 135.995  0.00  0.00    +0.000 C 
ATOM     13  C   UNL     1     111.196 125.168 136.044  0.00  0.00    +0.000 C 
ATOM     14  C   UNL     1     111.664 124.551 136.328  0.00  0.00    +0.000 C 
ATOM     15  C   UNL     1     112.442 124.698 136.564  0.00  0.00    +0.000 A 
ATOM     16  C   UNL     1     112.750 125.462 136.515  0.00  0.00    +0.000 A 
ATOM     17  C   UNL     1     112.919 124.048 136.859  0.00  0.00    +0.000 A 
ATOM     18  C   UNL     1     113.557 125.628 136.758  0.00  0.00    +0.000 A 
ATOM     19  C   UNL     1     113.729 124.194 137.106  0.00  0.00    +0.000 A 
ATOM     20  C   UNL     1     114.050 124.990 137.056  0.00  0.00    +0.000 A 
ENDBRANCH   2  12
BRANCH   3  21
ATOM     21  O   UNL     1     109.817 128.185 136.484  0.00  0.00    +0.000 OA
BRANCH  21  30
ATOM     22  O   UNL     1     110.930 129.008 136.839  0.00  0.00    +0.000 OA
ATOM     23  O   UNL     1     110.234 128.927 139.213  0.00  0.00    +0.000 OA
ATOM     24  O   UNL     1     111.579 129.778 138.776  0.00  0.00    +0.000 OA
ATOM     25  O   UNL     1     109.353 128.130 138.067  0.00  0.00    +0.000 OA
ATOM     26  C   UNL     1     110.466 128.954 138.421  0.00  0.00    +0.000 C 
ATOM     27  C   UNL     1     111.138 129.379 138.203  0.00  0.00    +0.000 C 
ATOM     28  C   UNL     1     110.025 128.556 137.849  0.00  0.00    +0.000 C 
ATOM     29  C   UNL     1     111.370 129.406 137.412  0.00  0.00    +0.000 C 
ATOM     30  C   UNL     1     110.257 128.583 137.057  0.00  0.00    +0.000 C 
BRANCH  29  32
ATOM     31  O   UNL     1     112.028 130.307 136.519  0.00  0.00    +0.000 OA
ATOM     32  C   UNL     1     112.043 129.832 137.194  0.00  0.00    +0.000 C 
ENDBRANCH  29  32
ENDBRANCH  21  30
ENDBRANCH   3  21
TORSDOF 4
ENDMDL
MODEL 3
REMARK VINA RESULT:      -9.1      1.720      3.047
REMARK  Name = 73813317
REMARK  4 active torsions:
REMARK  status: ('A' for Active; 'I' for Inactive)
REMARK    1  A    between atoms: O_2  and  C_16
REMARK    2  A    between atoms: O_2  and  C_23
REMARK    3  A    between atoms: C_15  and  C_18
REMARK    4  A    between atoms: C_17  and  C_21
REMARK                            x       y       z     vdW  Elec       q    Type
REMARK                         _______ _______ _______ _____ _____    ______ ____
ROOT
ATOM      1  O   UNL     1     114.702 125.359 138.191  0.00  0.00    +0.000 OA
ATOM      2  C   UNL     1     112.695 125.657 136.774  0.00  0.00    +0.000 A 
ATOM      3  C   UNL     1     113.334 125.745 138.049  0.00  0.00    +0.000 A 
ATOM      4  C   UNL     1     112.665 125.844 137.576  0.00  0.00    +0.000 A 
ATOM      5  C   UNL     1     113.394 125.370 136.443  0.00  0.00    +0.000 A 
ATOM      6  C   UNL     1     114.033 125.458 137.718  0.00  0.00    +0.000 A 
ATOM      7  C   UNL     1     114.064 125.270 136.915  0.00  0.00    +0.000 A 
ENDROOT
BRANCH   2  12
ATOM      8  O   UNL     1     111.800 126.513 136.060  0.00  0.00    +0.000 OA
ATOM      9  O   UNL     1     111.806 124.345 136.313  0.00  0.00    +0.000 OA
ATOM     10  O   UNL     1     109.549 125.387 134.642  0.00  0.00    +0.000 OA
ATOM     11  O   UNL     1     109.988 128.274 134.612  0.00  0.00    +0.000 OA
ATOM     12  C   UNL     1     112.026 125.756 136.302  0.00  0.00    +0.000 C 
ATOM     13  C   UNL     1     111.581 125.101 136.072  0.00  0.00    +0.000 C 
ATOM     14  C   UNL     1     110.912 125.201 135.600  0.00  0.00    +0.000 C 
ATOM     15  C   UNL     1     110.686 125.958 135.358  0.00  0.00    +0.000 A 
ATOM     16  C   UNL     1     111.131 126.613 135.589  0.00  0.00    +0.000 A 
ATOM     17  C   UNL     1     109.988 126.049 134.867  0.00  0.00    +0.000 A 
ATOM     18  C   UNL     1     110.907 127.406 135.344  0.00  0.00    +0.000 A 
ATOM     19  C   UNL     1     109.748 126.834 134.612  0.00  0.00    +0.000 A 
ATOM     20  C   UNL     1     110.211 127.517 134.852  0.00  0.00    +0.000 A 
ENDBRANCH   2  12
BRANCH   3  21
ATOM     21  O   UNL     1     113.303 125.932 138.851  0.00  0.00    +0.000 OA
BRANCH  21  30
ATOM     22  O   UNL     1     113.353 127.359 138.794  0.00  0.00    +0.000 OA
ATOM     23  O   UNL     1     111.488 127.490 140.415  0.00  0.00    +0.000 OA
ATOM     24  O   UNL     1     112.160 128.873 139.818  0.00  0.00    +0.000 OA
ATOM     25  O   UNL     1     112.060 126.019 139.932  0.00  0.00    +0.000 OA
ATOM     26  C   UNL     1     112.110 127.446 139.875  0.00  0.00    +0.000 C 
ATOM     27  C   UNL     1     112.445 128.137 139.576  0.00  0.00    +0.000 C 
ATOM     28  C   UNL     1     112.395 126.710 139.633  0.00  0.00    +0.000 C 
ATOM     29  C   UNL     1     113.067 128.094 139.036  0.00  0.00    +0.000 C 
ATOM     30  C   UNL     1     113.017 126.667 139.093  0.00  0.00    +0.000 C 
BRANCH  29  32
ATOM     31  O   UNL     1     113.387 128.935 137.926  0.00  0.00    +0.000 OA
ATOM     32  C   UNL     1     113.404 128.786 138.737  0.00  0.00    +0.000 C 
ENDBRANCH  29  32
ENDBRANCH  21  30
ENDBRANCH   3  21
TORSDOF 4
ENDMDL
MODEL 4
REMARK VINA RESULT:      -9.1      8.807     11.492
REMARK  Name = 73813317
REMARK  4 active torsions:
REMARK  status: ('A' for Active; 'I' for Inactive)
REMARK    1  A    between atoms: O_2  and  C_16
REMARK    2  A    between atoms: O_2  and  C_23
REMARK    3  A    between atoms: C_15  and  C_18
REMARK    4  A    between atoms: C_17  and  C_21
REMARK                            x       y       z     vdW  Elec       q    Type
REMARK                         _______ _______ _______ _____ _____    ______ ____
ROOT
ATOM      1  O   UNL     1     100.737 134.040 142.630  0.00  0.00    +0.000 OA
ATOM      2  C   UNL     1     101.839 131.918 141.993  0.00  0.00    +0.000 A 
ATOM      3  C   UNL     1     101.752 133.342 141.907  0.00  0.00    +0.000 A 
ATOM      4  C   UNL     1     102.119 132.634 141.695  0.00  0.00    +0.000 A 
ATOM      5  C   UNL     1     101.192 131.909 142.504  0.00  0.00    +0.000 A 
ATOM      6  C   UNL     1     101.104 133.333 142.418  0.00  0.00    +0.000 A 
ATOM      7  C   UNL     1     100.824 132.617 142.717  0.00  0.00    +0.000 A 
ENDROOT
BRANCH   2  12
ATOM      8  O   UNL     1     102.062 130.878 141.038  0.00  0.00    +0.000 OA
ATOM      9  O   UNL     1     102.862 131.169 143.049  0.00  0.00    +0.000 OA
ATOM     10  O   UNL     1     103.840 128.692 141.677  0.00  0.00    +0.000 OA
ATOM     11  O   UNL     1     102.506 128.768 139.080  0.00  0.00    +0.000 OA
ATOM     12  C   UNL     1     102.207 131.211 141.781  0.00  0.00    +0.000 C 
ATOM     13  C   UNL     1     102.718 130.836 142.308  0.00  0.00    +0.000 C 
ATOM     14  C   UNL     1     103.086 130.129 142.095  0.00  0.00    +0.000 C 
ATOM     15  C   UNL     1     102.942 129.796 141.353  0.00  0.00    +0.000 A 
ATOM     16  C   UNL     1     102.430 130.171 140.825  0.00  0.00    +0.000 A 
ATOM     17  C   UNL     1     103.330 129.060 141.142  0.00  0.00    +0.000 A 
ATOM     18  C   UNL     1     102.272 129.835 140.051  0.00  0.00    +0.000 A 
ATOM     19  C   UNL     1     103.184 128.708 140.372  0.00  0.00    +0.000 A 
ATOM     20  C   UNL     1     102.652 129.098 139.822  0.00  0.00    +0.000 A 
ENDBRANCH   2  12
BRANCH   3  21
ATOM     21  O   UNL     1     102.031 134.057 141.608  0.00  0.00    +0.000 OA
BRANCH  21  30
ATOM     22  O   UNL     1     103.147 134.259 142.478  0.00  0.00    +0.000 OA
ATOM     23  O   UNL     1     104.533 134.935 140.542  0.00  0.00    +0.000 OA
ATOM     24  O   UNL     1     105.187 134.912 142.057  0.00  0.00    +0.000 OA
ATOM     25  O   UNL     1     102.956 134.508 140.318  0.00  0.00    +0.000 OA
ATOM     26  C   UNL     1     104.071 134.710 141.187  0.00  0.00    +0.000 C 
ATOM     27  C   UNL     1     104.398 134.699 141.944  0.00  0.00    +0.000 C 
ATOM     28  C   UNL     1     103.282 134.496 141.074  0.00  0.00    +0.000 C 
ATOM     29  C   UNL     1     103.936 134.473 142.589  0.00  0.00    +0.000 C 
ATOM     30  C   UNL     1     102.820 134.271 141.720  0.00  0.00    +0.000 C 
BRANCH  29  32
ATOM     31  O   UNL     1     103.813 134.708 143.994  0.00  0.00    +0.000 OA
ATOM     32  C   UNL     1     104.263 134.462 143.348  0.00  0.00    +0.000 C 
ENDBRANCH  29  32
ENDBRANCH  21  30
ENDBRANCH   3  21
TORSDOF 4
ENDMDL
MODEL 5
REMARK VINA RESULT:      -9.1     10.422     12.140
REMARK  Name = 73813317
REMARK  4 active torsions:
REMARK  status: ('A' for Active; 'I' for Inactive)
REMARK    1  A    between atoms: O_2  and  C_16
REMARK    2  A    between atoms: O_2  and  C_23
REMARK    3  A    between atoms: C_15  and  C_18
REMARK    4  A    between atoms: C_17  and  C_21
REMARK                            x       y       z     vdW  Elec       q    Type
REMARK                         _______ _______ _______ _____ _____    ______ ____
ROOT
ATOM      1  O   UNL     1     107.901 125.142 147.097  0.00  0.00    +0.000 OA
ATOM      2  C   UNL     1     105.510 125.451 147.657  0.00  0.00    +0.000 A 
ATOM      3  C   UNL     1     106.525 125.087 146.718  0.00  0.00    +0.000 A 
ATOM      4  C   UNL     1     105.728 125.190 146.905  0.00  0.00    +0.000 A 
ATOM      5  C   UNL     1     106.090 125.609 148.222  0.00  0.00    +0.000 A 
ATOM      6  C   UNL     1     107.105 125.245 147.284  0.00  0.00    +0.000 A 
ATOM      7  C   UNL     1     106.887 125.506 148.036  0.00  0.00    +0.000 A 
ENDROOT
BRANCH   2  12
ATOM      8  O   UNL     1     104.233 124.896 147.977  0.00  0.00    +0.000 OA
ATOM      9  O   UNL     1     104.875 126.970 147.759  0.00  0.00    +0.000 OA
ATOM     10  O   UNL     1     101.980 126.640 148.455  0.00  0.00    +0.000 OA
ATOM     11  O   UNL     1     101.638 123.745 148.629  0.00  0.00    +0.000 OA
ATOM     12  C   UNL     1     104.713 125.554 147.842  0.00  0.00    +0.000 C 
ATOM     13  C   UNL     1     104.395 126.313 147.893  0.00  0.00    +0.000 C 
ATOM     14  C   UNL     1     103.598 126.416 148.079  0.00  0.00    +0.000 C 
ATOM     15  C   UNL     1     103.118 125.757 148.214  0.00  0.00    +0.000 A 
ATOM     16  C   UNL     1     103.436 124.998 148.163  0.00  0.00    +0.000 A 
ATOM     17  C   UNL     1     102.289 125.876 148.406  0.00  0.00    +0.000 A 
ATOM     18  C   UNL     1     102.947 124.305 148.301  0.00  0.00    +0.000 A 
ATOM     19  C   UNL     1     101.785 125.196 148.547  0.00  0.00    +0.000 A 
ATOM     20  C   UNL     1     102.115 124.405 148.494  0.00  0.00    +0.000 A 
ENDBRANCH   2  12
BRANCH   3  21
ATOM     21  O   UNL     1     106.742 124.825 145.968  0.00  0.00    +0.000 OA
BRANCH  21  30
ATOM     22  O   UNL     1     106.620 126.026 145.202  0.00  0.00    +0.000 OA
ATOM     23  O   UNL     1     105.337 124.796 143.479  0.00  0.00    +0.000 OA
ATOM     24  O   UNL     1     105.643 126.406 143.287  0.00  0.00    +0.000 OA
ATOM     25  O   UNL     1     105.887 124.006 144.819  0.00  0.00    +0.000 OA
ATOM     26  C   UNL     1     105.765 125.206 144.053  0.00  0.00    +0.000 C 
ATOM     27  C   UNL     1     105.917 126.011 143.957  0.00  0.00    +0.000 C 
ATOM     28  C   UNL     1     106.039 124.810 144.723  0.00  0.00    +0.000 C 
ATOM     29  C   UNL     1     106.345 126.420 144.532  0.00  0.00    +0.000 C 
ATOM     30  C   UNL     1     106.467 125.220 145.297  0.00  0.00    +0.000 C 
BRANCH  29  32
ATOM     31  O   UNL     1     107.246 127.526 144.610  0.00  0.00    +0.000 OA
ATOM     32  C   UNL     1     106.498 127.226 144.436  0.00  0.00    +0.000 C 
ENDBRANCH  29  32
ENDBRANCH  21  30
ENDBRANCH   3  21
TORSDOF 4
ENDMDL
MODEL 6
REMARK VINA RESULT:      -9.0      2.151      3.729
REMARK  Name = 73813317
REMARK  4 active torsions:
REMARK  status: ('A' for Active; 'I' for Inactive)
REMARK    1  A    between atoms: O_2  and  C_16
REMARK    2  A    between atoms: O_2  and  C_23
REMARK    3  A    between atoms: C_15  and  C_18
REMARK    4  A    between atoms: C_17  and  C_21
REMARK                            x       y       z     vdW  Elec       q    Type
REMARK                         _______ _______ _______ _____ _____    ______ ____
ROOT
ATOM      1  O   UNL     1     112.700 124.718 136.462  0.00  0.00    +0.000 OA
ATOM      2  C   UNL     1     113.117 127.139 136.755  0.00  0.00    +0.000 A 
ATOM      3  C   UNL     1     112.212 126.059 136.517  0.00  0.00    +0.000 A 
ATOM      4  C   UNL     1     112.351 126.867 136.615  0.00  0.00    +0.000 A 
ATOM      5  C   UNL     1     113.744 126.605 136.797  0.00  0.00    +0.000 A 
ATOM      6  C   UNL     1     112.839 125.525 136.560  0.00  0.00    +0.000 A 
ATOM      7  C   UNL     1     113.605 125.797 136.699  0.00  0.00    +0.000 A 
ENDROOT
BRANCH   2  12
ATOM      8  O   UNL     1     113.141 128.299 137.591  0.00  0.00    +0.000 OA
ATOM      9  O   UNL     1     113.623 128.052 135.476  0.00  0.00    +0.000 OA
ATOM     10  O   UNL     1     113.931 130.852 136.495  0.00  0.00    +0.000 OA
ATOM     11  O   UNL     1     113.182 130.649 139.310  0.00  0.00    +0.000 OA
ATOM     12  C   UNL     1     113.255 127.947 136.853  0.00  0.00    +0.000 C 
ATOM     13  C   UNL     1     113.508 128.403 136.214  0.00  0.00    +0.000 C 
ATOM     14  C   UNL     1     113.646 129.211 136.312  0.00  0.00    +0.000 C 
ATOM     15  C   UNL     1     113.531 129.562 137.050  0.00  0.00    +0.000 A 
ATOM     16  C   UNL     1     113.278 129.106 137.689  0.00  0.00    +0.000 A 
ATOM     17  C   UNL     1     113.678 130.403 137.140  0.00  0.00    +0.000 A 
ATOM     18  C   UNL     1     113.155 129.460 138.462  0.00  0.00    +0.000 A 
ATOM     19  C   UNL     1     113.561 130.775 137.905  0.00  0.00    +0.000 A 
ATOM     20  C   UNL     1     113.297 130.301 138.571  0.00  0.00    +0.000 A 
ENDBRANCH   2  12
BRANCH   3  21
ATOM     21  O   UNL     1     111.447 125.787 136.378  0.00  0.00    +0.000 OA
BRANCH  21  30
ATOM     22  O   UNL     1     110.917 125.856 137.703  0.00  0.00    +0.000 OA
ATOM     23  O   UNL     1     108.839 126.870 136.819  0.00  0.00    +0.000 OA
ATOM     24  O   UNL     1     109.002 126.601 138.439  0.00  0.00    +0.000 OA
ATOM     25  O   UNL     1     110.061 126.463 135.788  0.00  0.00    +0.000 OA
ATOM     26  C   UNL     1     109.532 126.532 137.114  0.00  0.00    +0.000 C 
ATOM     27  C   UNL     1     109.613 126.398 137.923  0.00  0.00    +0.000 C 
ATOM     28  C   UNL     1     110.143 126.329 136.598  0.00  0.00    +0.000 C 
ATOM     29  C   UNL     1     110.305 126.060 138.218  0.00  0.00    +0.000 C 
ATOM     30  C   UNL     1     110.835 125.991 136.892  0.00  0.00    +0.000 C 
BRANCH  29  32
ATOM     31  O   UNL     1     110.743 125.232 139.297  0.00  0.00    +0.000 OA
ATOM     32  C   UNL     1     110.387 125.926 139.028  0.00  0.00    +0.000 C 
ENDBRANCH  29  32
ENDBRANCH  21  30
ENDBRANCH   3  21
TORSDOF 4
ENDMDL
MODEL 7
REMARK VINA RESULT:      -9.0      2.755      5.261
REMARK  Name = 73813317
REMARK  4 active torsions:
REMARK  status: ('A' for Active; 'I' for Inactive)
REMARK    1  A    between atoms: O_2  and  C_16
REMARK    2  A    between atoms: O_2  and  C_23
REMARK    3  A    between atoms: C_15  and  C_18
REMARK    4  A    between atoms: C_17  and  C_21
REMARK                            x       y       z     vdW  Elec       q    Type
REMARK                         _______ _______ _______ _____ _____    ______ ____
ROOT
ATOM      1  O   UNL     1     114.483 130.810 135.621  0.00  0.00    +0.000 OA
ATOM      2  C   UNL     1     113.679 128.509 136.053  0.00  0.00    +0.000 A 
ATOM      3  C   UNL     1     114.019 129.812 136.533  0.00  0.00    +0.000 A 
ATOM      4  C   UNL     1     113.751 129.045 136.676  0.00  0.00    +0.000 A 
ATOM      5  C   UNL     1     113.874 128.741 135.286  0.00  0.00    +0.000 A 
ATOM      6  C   UNL     1     114.215 130.043 135.765  0.00  0.00    +0.000 A 
ATOM      7  C   UNL     1     114.142 129.508 135.141  0.00  0.00    +0.000 A 
ENDROOT
BRANCH   2  12
ATOM      8  O   UNL     1     113.929 127.174 136.499  0.00  0.00    +0.000 OA
ATOM      9  O   UNL     1     112.109 128.110 135.740  0.00  0.00    +0.000 OA
ATOM     10  O   UNL     1     111.799 125.223 136.474  0.00  0.00    +0.000 OA
ATOM     11  O   UNL     1     114.458 124.460 137.412  0.00  0.00    +0.000 OA
ATOM     12  C   UNL     1     113.411 127.742 136.197  0.00  0.00    +0.000 C 
ATOM     13  C   UNL     1     112.626 127.543 136.041  0.00  0.00    +0.000 C 
ATOM     14  C   UNL     1     112.358 126.776 136.186  0.00  0.00    +0.000 C 
ATOM     15  C   UNL     1     112.876 126.208 136.487  0.00  0.00    +0.000 A 
ATOM     16  C   UNL     1     113.661 126.408 136.643  0.00  0.00    +0.000 A 
ATOM     17  C   UNL     1     112.586 125.413 136.634  0.00  0.00    +0.000 A 
ATOM     18  C   UNL     1     114.210 125.826 136.957  0.00  0.00    +0.000 A 
ATOM     19  C   UNL     1     113.120 124.818 136.947  0.00  0.00    +0.000 A 
ATOM     20  C   UNL     1     113.938 125.025 137.110  0.00  0.00    +0.000 A 
ENDBRANCH   2  12
BRANCH   3  21
ATOM     21  O   UNL     1     114.091 130.347 137.155  0.00  0.00    +0.000 OA
BRANCH  21  30
ATOM     22  O   UNL     1     112.728 130.753 137.290  0.00  0.00    +0.000 OA
ATOM     23  O   UNL     1     112.908 130.544 139.749  0.00  0.00    +0.000 OA
ATOM     24  O   UNL     1     111.485 131.020 139.064  0.00  0.00    +0.000 OA
ATOM     25  O   UNL     1     114.211 130.207 138.795  0.00  0.00    +0.000 OA
ATOM     26  C   UNL     1     112.848 130.614 138.930  0.00  0.00    +0.000 C 
ATOM     27  C   UNL     1     112.137 130.851 138.587  0.00  0.00    +0.000 C 
ATOM     28  C   UNL     1     113.500 130.445 138.453  0.00  0.00    +0.000 C 
ATOM     29  C   UNL     1     112.077 130.921 137.767  0.00  0.00    +0.000 C 
ATOM     30  C   UNL     1     113.440 130.515 137.633  0.00  0.00    +0.000 C 
BRANCH  29  32
ATOM     31  O   UNL     1     111.360 131.760 136.859  0.00  0.00    +0.000 OA
ATOM     32  C   UNL     1     111.364 131.159 137.424  0.00  0.00    +0.000 C 
ENDBRANCH  29  32
ENDBRANCH  21  30
ENDBRANCH   3  21
TORSDOF 4
ENDMDL
MODEL 8
REMARK VINA RESULT:      -8.9      2.169      3.297
REMARK  Name = 73813317
REMARK  4 active torsions:
REMARK  status: ('A' for Active; 'I' for Inactive)
REMARK    1  A    between atoms: O_2  and  C_16
REMARK    2  A    between atoms: O_2  and  C_23
REMARK    3  A    between atoms: C_15  and  C_18
REMARK    4  A    between atoms: C_17  and  C_21
REMARK                            x       y       z     vdW  Elec       q    Type
REMARK                         _______ _______ _______ _____ _____    ______ ____
ROOT
ATOM      1  O   UNL     1     109.655 126.360 134.647  0.00  0.00    +0.000 OA
ATOM      2  C   UNL     1     111.348 128.036 135.316  0.00  0.00    +0.000 A 
ATOM      3  C   UNL     1     110.853 126.696 135.349  0.00  0.00    +0.000 A 
ATOM      4  C   UNL     1     111.418 127.255 135.571  0.00  0.00    +0.000 A 
ATOM      5  C   UNL     1     110.715 128.259 134.838  0.00  0.00    +0.000 A 
ATOM      6  C   UNL     1     110.219 126.919 134.870  0.00  0.00    +0.000 A 
ATOM      7  C   UNL     1     110.150 127.700 134.614  0.00  0.00    +0.000 A 
ENDROOT
BRANCH   2  12
ATOM      8  O   UNL     1     112.658 128.594 135.181  0.00  0.00    +0.000 OA
ATOM      9  O   UNL     1     110.993 129.153 136.477  0.00  0.00    +0.000 OA
ATOM     10  O   UNL     1     113.439 130.851 136.807  0.00  0.00    +0.000 OA
ATOM     11  O   UNL     1     115.329 129.717 134.892  0.00  0.00    +0.000 OA
ATOM     12  C   UNL     1     111.914 128.595 135.539  0.00  0.00    +0.000 C 
ATOM     13  C   UNL     1     111.736 129.152 136.120  0.00  0.00    +0.000 C 
ATOM     14  C   UNL     1     112.301 129.711 136.343  0.00  0.00    +0.000 C 
ATOM     15  C   UNL     1     113.045 129.710 135.985  0.00  0.00    +0.000 A 
ATOM     16  C   UNL     1     113.223 129.152 135.404  0.00  0.00    +0.000 A 
ATOM     17  C   UNL     1     113.625 130.296 136.225  0.00  0.00    +0.000 A 
ATOM     18  C   UNL     1     113.993 129.141 135.024  0.00  0.00    +0.000 A 
ATOM     19  C   UNL     1     114.401 130.301 135.857  0.00  0.00    +0.000 A 
ATOM     20  C   UNL     1     114.587 129.720 135.252  0.00  0.00    +0.000 A 
ENDBRANCH   2  12
BRANCH   3  21
ATOM     21  O   UNL     1     110.923 125.916 135.604  0.00  0.00    +0.000 OA
BRANCH  21  30
ATOM     22  O   UNL     1     110.380 126.043 136.920  0.00  0.00    +0.000 OA
ATOM     23  O   UNL     1     112.218 124.648 137.814  0.00  0.00    +0.000 OA
ATOM     24  O   UNL     1     111.062 125.241 138.831  0.00  0.00    +0.000 OA
ATOM     25  O   UNL     1     112.148 124.985 136.200  0.00  0.00    +0.000 OA
ATOM     26  C   UNL     1     111.605 125.113 137.516  0.00  0.00    +0.000 C 
ATOM     27  C   UNL     1     111.028 125.409 138.024  0.00  0.00    +0.000 C 
ATOM     28  C   UNL     1     111.571 125.281 136.709  0.00  0.00    +0.000 C 
ATOM     29  C   UNL     1     110.415 125.874 137.726  0.00  0.00    +0.000 C 
ATOM     30  C   UNL     1     110.958 125.747 136.411  0.00  0.00    +0.000 C 
BRANCH  29  32
ATOM     31  O   UNL     1     109.101 126.396 137.937  0.00  0.00    +0.000 OA
ATOM     32  C   UNL     1     109.837 126.171 138.235  0.00  0.00    +0.000 C 
ENDBRANCH  29  32
ENDBRANCH  21  30
ENDBRANCH   3  21
TORSDOF 4
ENDMDL
MODEL 9
REMARK VINA RESULT:      -8.8      2.518      4.642
REMARK  Name = 73813317
REMARK  4 active torsions:
REMARK  status: ('A' for Active; 'I' for Inactive)
REMARK    1  A    between atoms: O_2  and  C_16
REMARK    2  A    between atoms: O_2  and  C_23
REMARK    3  A    between atoms: C_15  and  C_18
REMARK    4  A    between atoms: C_17  and  C_21
REMARK                            x       y       z     vdW  Elec       q    Type
REMARK                         _______ _______ _______ _____ _____    ______ ____
ROOT
ATOM      1  O   UNL     1     114.321 130.430 135.733  0.00  0.00    +0.000 OA
ATOM      2  C   UNL     1     113.017 128.336 135.938  0.00  0.00    +0.000 A 
ATOM      3  C   UNL     1     113.135 129.746 136.143  0.00  0.00    +0.000 A 
ATOM      4  C   UNL     1     112.701 129.048 136.210  0.00  0.00    +0.000 A 
ATOM      5  C   UNL     1     113.768 128.323 135.597  0.00  0.00    +0.000 A 
ATOM      6  C   UNL     1     113.887 129.732 135.801  0.00  0.00    +0.000 A 
ATOM      7  C   UNL     1     114.203 129.021 135.528  0.00  0.00    +0.000 A 
ENDROOT
BRANCH   2  12
ATOM      8  O   UNL     1     111.938 127.504 135.506  0.00  0.00    +0.000 OA
ATOM      9  O   UNL     1     113.431 127.212 137.073  0.00  0.00    +0.000 OA
ATOM     10  O   UNL     1     111.478 124.958 136.793  0.00  0.00    +0.000 OA
ATOM     11  O   UNL     1     109.735 125.821 134.614  0.00  0.00    +0.000 OA
ATOM     12  C   UNL     1     112.582 127.639 136.006  0.00  0.00    +0.000 C 
ATOM     13  C   UNL     1     112.788 127.077 136.573  0.00  0.00    +0.000 C 
ATOM     14  C   UNL     1     112.353 126.380 136.642  0.00  0.00    +0.000 C 
ATOM     15  C   UNL     1     111.709 126.244 136.142  0.00  0.00    +0.000 A 
ATOM     16  C   UNL     1     111.503 126.807 135.574  0.00  0.00    +0.000 A 
ATOM     17  C   UNL     1     111.264 125.515 136.222  0.00  0.00    +0.000 A 
ATOM     18  C   UNL     1     110.836 126.678 135.049  0.00  0.00    +0.000 A 
ATOM     19  C   UNL     1     110.593 125.368 135.706  0.00  0.00    +0.000 A 
ATOM     20  C   UNL     1     110.378 125.953 135.114  0.00  0.00    +0.000 A 
ENDBRANCH   2  12
BRANCH   3  21
ATOM     21  O   UNL     1     112.819 130.457 136.415  0.00  0.00    +0.000 OA
BRANCH  21  30
ATOM     22  O   UNL     1     113.109 130.329 137.808  0.00  0.00    +0.000 OA
ATOM     23  O   UNL     1     110.839 131.148 138.356  0.00  0.00    +0.000 OA
ATOM     24  O   UNL     1     111.885 130.747 139.567  0.00  0.00    +0.000 OA
ATOM     25  O   UNL     1     111.306 131.003 136.780  0.00  0.00    +0.000 OA
ATOM     26  C   UNL     1     111.596 130.875 138.173  0.00  0.00    +0.000 C 
ATOM     27  C   UNL     1     112.118 130.675 138.779  0.00  0.00    +0.000 C 
ATOM     28  C   UNL     1     111.829 130.803 137.385  0.00  0.00    +0.000 C 
ATOM     29  C   UNL     1     112.875 130.401 138.596  0.00  0.00    +0.000 C 
ATOM     30  C   UNL     1     112.585 130.529 137.203  0.00  0.00    +0.000 C 
BRANCH  29  32
ATOM     31  O   UNL     1     114.179 130.466 139.176  0.00  0.00    +0.000 OA
ATOM     32  C   UNL     1     113.399 130.201 139.202  0.00  0.00    +0.000 C 
ENDBRANCH  29  32
ENDBRANCH  21  30
ENDBRANCH   3  21
TORSDOF 4
ENDMDL
MODEL 10
REMARK VINA RESULT:      -8.8      2.049      4.005
REMARK  Name = 73813317
REMARK  4 active torsions:
REMARK  status: ('A' for Active; 'I' for Inactive)
REMARK    1  A    between atoms: O_2  and  C_16
REMARK    2  A    between atoms: O_2  and  C_23
REMARK    3  A    between atoms: C_15  and  C_18
REMARK    4  A    between atoms: C_17  and  C_21
REMARK                            x       y       z     vdW  Elec       q    Type
REMARK                         _______ _______ _______ _____ _____    ______ ____
ROOT
ATOM      1  O   UNL     1     111.458 125.556 139.127  0.00  0.00    +0.000 OA
ATOM      2  C   UNL     1     112.490 127.520 138.029  0.00  0.00    +0.000 A 
ATOM      3  C   UNL     1     111.345 126.702 138.280  0.00  0.00    +0.000 A 
ATOM      4  C   UNL     1     111.689 127.356 137.915  0.00  0.00    +0.000 A 
ATOM      5  C   UNL     1     112.946 127.029 138.509  0.00  0.00    +0.000 A 
ATOM      6  C   UNL     1     111.802 126.210 138.761  0.00  0.00    +0.000 A 
ATOM      7  C   UNL     1     112.603 126.374 138.875  0.00  0.00    +0.000 A 
ENDROOT
BRANCH   2  12
ATOM      8  O   UNL     1     113.158 128.101 136.907  0.00  0.00    +0.000 OA
ATOM      9  O   UNL     1     112.526 128.975 138.805  0.00  0.00    +0.000 OA
ATOM     10  O   UNL     1     113.888 130.896 136.953  0.00  0.00    +0.000 OA
ATOM     11  O   UNL     1     114.520 129.268 134.612  0.00  0.00    +0.000 OA
ATOM     12  C   UNL     1     112.833 128.175 137.663  0.00  0.00    +0.000 C 
ATOM     13  C   UNL     1     112.851 128.902 138.050  0.00  0.00    +0.000 C 
ATOM     14  C   UNL     1     113.194 129.557 137.684  0.00  0.00    +0.000 C 
ATOM     15  C   UNL     1     113.520 129.484 136.928  0.00  0.00    +0.000 A 
ATOM     16  C   UNL     1     113.501 128.755 136.541  0.00  0.00    +0.000 A 
ATOM     17  C   UNL     1     113.874 130.172 136.557  0.00  0.00    +0.000 A 
ATOM     18  C   UNL     1     113.836 128.666 135.755  0.00  0.00    +0.000 A 
ATOM     19  C   UNL     1     114.214 130.102 135.772  0.00  0.00    +0.000 A 
ATOM     20  C   UNL     1     114.196 129.344 135.367  0.00  0.00    +0.000 A 
ENDBRANCH   2  12
BRANCH   3  21
ATOM     21  O   UNL     1     110.545 126.538 138.166  0.00  0.00    +0.000 OA
BRANCH  21  30
ATOM     22  O   UNL     1     110.609 125.999 136.844  0.00  0.00    +0.000 OA
ATOM     23  O   UNL     1     108.589 127.287 136.221  0.00  0.00    +0.000 OA
ATOM     24  O   UNL     1     109.326 126.318 135.107  0.00  0.00    +0.000 OA
ATOM     25  O   UNL     1     109.199 127.397 137.751  0.00  0.00    +0.000 OA
ATOM     26  C   UNL     1     109.263 126.857 136.429  0.00  0.00    +0.000 C 
ATOM     27  C   UNL     1     109.630 126.373 135.872  0.00  0.00    +0.000 C 
ATOM     28  C   UNL     1     109.567 126.913 137.194  0.00  0.00    +0.000 C 
ATOM     29  C   UNL     1     110.304 125.944 136.080  0.00  0.00    +0.000 C 
ATOM     30  C   UNL     1     110.240 126.484 137.402  0.00  0.00    +0.000 C 
BRANCH  29  32
ATOM     31  O   UNL     1     110.949 124.714 135.744  0.00  0.00    +0.000 OA
ATOM     32  C   UNL     1     110.672 125.459 135.523  0.00  0.00    +0.000 C 
ENDBRANCH  29  32
ENDBRANCH  21  30
ENDBRANCH   3  21
TORSDOF 4
ENDMDL
