MODEL 1
REMARK VINA RESULT:      -9.5      0.000      0.000
REMARK  Name = 
REMARK  4 active torsions:
REMARK  status: ('A' for Active; 'I' for Inactive)
REMARK    1  A    between atoms: C_3  and  O_5
REMARK    2  A    between atoms: O_5  and  C_9
REMARK    3  A    between atoms: C_6  and  C_11
REMARK    4  A    between atoms: C_30  and  O_33
REMARK                            x       y       z     vdW  Elec       q    Type
REMARK                         _______ _______ _______ _____ _____    ______ ____
ROOT
ATOM      1  O   UNL     1     112.329 128.426 138.149  0.00  0.00    +0.000 OA
ATOM      2  C   UNL     1     112.675 128.019 137.521  0.00  0.00    +0.000 A 
ATOM      3  C   UNL     1     112.545 127.215 137.436  0.00  0.00    +0.000 A 
ATOM      4  C   UNL     1     113.154 128.424 136.973  0.00  0.00    +0.000 A 
ATOM      5  C   UNL     1     112.891 126.808 136.808  0.00  0.00    +0.000 A 
ATOM      6  C   UNL     1     113.499 128.017 136.345  0.00  0.00    +0.000 A 
ATOM      7  C   UNL     1     113.288 129.278 137.067  0.00  0.00    +0.000 A 
ATOM      8  O   UNL     1     113.369 127.214 136.261  0.00  0.00    +0.000 OA
ATOM      9  C   UNL     1     113.999 128.428 135.769  0.00  0.00    +0.000 A 
ATOM     10  O   UNL     1     112.945 129.694 137.694  0.00  0.00    +0.000 OA
ATOM     11  C   UNL     1     113.786 129.706 136.501  0.00  0.00    +0.000 A 
ATOM     12  C   UNL     1     114.144 129.276 135.846  0.00  0.00    +0.000 A 
ATOM     13  O   UNL     1     114.623 129.682 135.300  0.00  0.00    +0.000 OA
ENDROOT
BRANCH   5  14
ATOM     14  C   UNL     1     112.761 126.004 136.724  0.00  0.00    +0.000 A 
ATOM     15  C   UNL     1     113.354 125.471 136.935  0.00  0.00    +0.000 A 
ATOM     16  C   UNL     1     112.041 125.744 136.432  0.00  0.00    +0.000 A 
ATOM     17  C   UNL     1     113.224 124.667 136.851  0.00  0.00    +0.000 A 
ATOM     18  C   UNL     1     111.911 124.941 136.349  0.00  0.00    +0.000 A 
ATOM     19  O   UNL     1     113.816 124.133 137.061  0.00  0.00    +0.000 OA
ATOM     20  C   UNL     1     112.505 124.406 136.559  0.00  0.00    +0.000 A 
ATOM     21  O   UNL     1     111.193 124.679 136.057  0.00  0.00    +0.000 OA
BRANCH  20  22
ATOM     22  O   UNL     1     112.374 123.603 136.475  0.00  0.00    +0.000 OA
ATOM     23  C   UNL     1     112.002 123.184 137.081  0.00  0.00    +0.000 C 
ENDBRANCH  20  22
ENDBRANCH   5  14
BRANCH   3  24
ATOM     24  O   UNL     1     112.072 126.828 137.981  0.00  0.00    +0.000 OA
BRANCH  24  25
ATOM     25  C   UNL     1     112.290 126.816 138.782  0.00  0.00    +0.000 C 
ATOM     26  O   UNL     1     113.096 126.843 139.005  0.00  0.00    +0.000 OA
ATOM     27  C   UNL     1     111.712 126.779 139.361  0.00  0.00    +0.000 C 
ATOM     28  C   UNL     1     113.314 126.831 139.806  0.00  0.00    +0.000 C 
ATOM     29  O   UNL     1     110.924 126.754 139.137  0.00  0.00    +0.000 OA
ATOM     30  C   UNL     1     111.930 126.768 140.161  0.00  0.00    +0.000 C 
ATOM     31  C   UNL     1     112.736 126.794 140.384  0.00  0.00    +0.000 C 
ATOM     32  C   UNL     1     114.120 126.858 140.029  0.00  0.00    +0.000 C 
ATOM     33  O   UNL     1     111.351 126.731 140.738  0.00  0.00    +0.000 OA
ATOM     34  O   UNL     1     112.953 126.783 141.184  0.00  0.00    +0.000 OA
ENDBRANCH  24  25
ENDBRANCH   3  24
TORSDOF 4
ENDMDL
MODEL 2
REMARK VINA RESULT:      -9.4      1.805      4.370
REMARK  Name = 
REMARK  4 active torsions:
REMARK  status: ('A' for Active; 'I' for Inactive)
REMARK    1  A    between atoms: C_3  and  O_5
REMARK    2  A    between atoms: O_5  and  C_9
REMARK    3  A    between atoms: C_6  and  C_11
REMARK    4  A    between atoms: C_30  and  O_33
REMARK                            x       y       z     vdW  Elec       q    Type
REMARK                         _______ _______ _______ _____ _____    ______ ____
ROOT
ATOM      1  O   UNL     1     111.620 125.522 135.975  0.00  0.00    +0.000 OA
ATOM      2  C   UNL     1     112.265 125.944 136.267  0.00  0.00    +0.000 A 
ATOM      3  C   UNL     1     112.257 126.762 136.249  0.00  0.00    +0.000 A 
ATOM      4  C   UNL     1     112.924 125.540 136.578  0.00  0.00    +0.000 A 
ATOM      5  C   UNL     1     112.902 127.184 136.541  0.00  0.00    +0.000 A 
ATOM      6  C   UNL     1     113.569 125.962 136.869  0.00  0.00    +0.000 A 
ATOM      7  C   UNL     1     112.928 124.670 136.594  0.00  0.00    +0.000 A 
ATOM      8  O   UNL     1     113.560 126.780 136.851  0.00  0.00    +0.000 OA
ATOM      9  C   UNL     1     114.260 125.553 137.195  0.00  0.00    +0.000 A 
ATOM     10  O   UNL     1     112.285 124.239 136.303  0.00  0.00    +0.000 OA
ATOM     11  C   UNL     1     113.609 124.243 136.916  0.00  0.00    +0.000 A 
ATOM     12  C   UNL     1     114.281 124.689 137.219  0.00  0.00    +0.000 A 
ATOM     13  O   UNL     1     114.938 124.284 137.530  0.00  0.00    +0.000 OA
ENDROOT
BRANCH   5  14
ATOM     14  C   UNL     1     112.893 128.003 136.523  0.00  0.00    +0.000 A 
ATOM     15  C   UNL     1     112.744 128.425 137.216  0.00  0.00    +0.000 A 
ATOM     16  C   UNL     1     113.034 128.389 135.815  0.00  0.00    +0.000 A 
ATOM     17  C   UNL     1     112.735 129.243 137.199  0.00  0.00    +0.000 A 
ATOM     18  C   UNL     1     113.025 129.207 135.797  0.00  0.00    +0.000 A 
ATOM     19  O   UNL     1     112.585 129.665 137.891  0.00  0.00    +0.000 OA
ATOM     20  C   UNL     1     112.875 129.630 136.490  0.00  0.00    +0.000 A 
ATOM     21  O   UNL     1     113.165 129.594 135.090  0.00  0.00    +0.000 OA
BRANCH  20  22
ATOM     22  O   UNL     1     112.866 130.447 136.472  0.00  0.00    +0.000 OA
ATOM     23  C   UNL     1     113.558 130.868 136.632  0.00  0.00    +0.000 C 
ENDBRANCH  20  22
ENDBRANCH   5  14
BRANCH   3  24
ATOM     24  O   UNL     1     111.604 127.148 135.941  0.00  0.00    +0.000 OA
BRANCH  24  25
ATOM     25  C   UNL     1     110.857 127.034 136.285  0.00  0.00    +0.000 C 
ATOM     26  O   UNL     1     110.783 126.888 137.105  0.00  0.00    +0.000 OA
ATOM     27  C   UNL     1     110.186 127.064 135.817  0.00  0.00    +0.000 C 
ATOM     28  C   UNL     1     110.036 126.774 137.449  0.00  0.00    +0.000 C 
ATOM     29  O   UNL     1     110.263 127.207 135.015  0.00  0.00    +0.000 OA
ATOM     30  C   UNL     1     109.439 126.950 136.161  0.00  0.00    +0.000 C 
ATOM     31  C   UNL     1     109.365 126.804 136.982  0.00  0.00    +0.000 C 
ATOM     32  C   UNL     1     109.963 126.628 138.269  0.00  0.00    +0.000 C 
ATOM     33  O   UNL     1     108.768 126.980 135.693  0.00  0.00    +0.000 OA
ATOM     34  O   UNL     1     108.619 126.689 137.324  0.00  0.00    +0.000 OA
ENDBRANCH  24  25
ENDBRANCH   3  24
TORSDOF 4
ENDMDL
MODEL 3
REMARK VINA RESULT:      -9.4      1.910      4.097
REMARK  Name = 
REMARK  4 active torsions:
REMARK  status: ('A' for Active; 'I' for Inactive)
REMARK    1  A    between atoms: C_3  and  O_5
REMARK    2  A    between atoms: O_5  and  C_9
REMARK    3  A    between atoms: C_6  and  C_11
REMARK    4  A    between atoms: C_30  and  O_33
REMARK                            x       y       z     vdW  Elec       q    Type
REMARK                         _______ _______ _______ _____ _____    ______ ____
ROOT
ATOM      1  O   UNL     1     111.738 124.920 137.888  0.00  0.00    +0.000 OA
ATOM      2  C   UNL     1     112.425 125.359 138.009  0.00  0.00    +0.000 A 
ATOM      3  C   UNL     1     112.455 125.910 138.612  0.00  0.00    +0.000 A 
ATOM      4  C   UNL     1     113.088 125.241 137.518  0.00  0.00    +0.000 A 
ATOM      5  C   UNL     1     113.142 126.349 138.733  0.00  0.00    +0.000 A 
ATOM      6  C   UNL     1     113.775 125.680 137.638  0.00  0.00    +0.000 A 
ATOM      7  C   UNL     1     113.052 124.654 136.877  0.00  0.00    +0.000 A 
ATOM      8  O   UNL     1     113.803 126.231 138.242  0.00  0.00    +0.000 OA
ATOM      9  C   UNL     1     114.471 125.568 137.134  0.00  0.00    +0.000 A 
ATOM     10  O   UNL     1     112.366 124.209 136.750  0.00  0.00    +0.000 OA
ATOM     11  C   UNL     1     113.737 124.527 136.363  0.00  0.00    +0.000 A 
ATOM     12  C   UNL     1     114.453 124.988 136.493  0.00  0.00    +0.000 A 
ATOM     13  O   UNL     1     115.114 124.870 136.002  0.00  0.00    +0.000 OA
ENDROOT
BRANCH   5  14
ATOM     14  C   UNL     1     113.171 126.901 139.337  0.00  0.00    +0.000 A 
ATOM     15  C   UNL     1     113.113 127.704 139.159  0.00  0.00    +0.000 A 
ATOM     16  C   UNL     1     113.257 126.644 140.110  0.00  0.00    +0.000 A 
ATOM     17  C   UNL     1     113.141 128.256 139.763  0.00  0.00    +0.000 A 
ATOM     18  C   UNL     1     113.286 127.195 140.714  0.00  0.00    +0.000 A 
ATOM     19  O   UNL     1     113.084 129.059 139.587  0.00  0.00    +0.000 OA
ATOM     20  C   UNL     1     113.228 127.999 140.536  0.00  0.00    +0.000 A 
ATOM     21  O   UNL     1     113.372 126.939 141.486  0.00  0.00    +0.000 OA
BRANCH  20  22
ATOM     22  O   UNL     1     113.256 128.550 141.140  0.00  0.00    +0.000 OA
ATOM     23  C   UNL     1     112.560 128.776 141.522  0.00  0.00    +0.000 C 
ENDBRANCH  20  22
ENDBRANCH   5  14
BRANCH   3  24
ATOM     24  O   UNL     1     111.797 126.017 139.088  0.00  0.00    +0.000 OA
BRANCH  24  25
ATOM     25  C   UNL     1     111.080 126.265 138.752  0.00  0.00    +0.000 C 
ATOM     26  O   UNL     1     111.075 126.756 138.074  0.00  0.00    +0.000 OA
ATOM     27  C   UNL     1     110.371 126.028 139.085  0.00  0.00    +0.000 C 
ATOM     28  C   UNL     1     110.358 127.004 137.737  0.00  0.00    +0.000 C 
ATOM     29  O   UNL     1     110.381 125.547 139.747  0.00  0.00    +0.000 OA
ATOM     30  C   UNL     1     109.654 126.276 138.748  0.00  0.00    +0.000 C 
ATOM     31  C   UNL     1     109.649 126.767 138.070  0.00  0.00    +0.000 C 
ATOM     32  C   UNL     1     110.353 127.496 137.060  0.00  0.00    +0.000 C 
ATOM     33  O   UNL     1     108.945 126.038 139.081  0.00  0.00    +0.000 OA
ATOM     34  O   UNL     1     108.933 127.015 137.734  0.00  0.00    +0.000 OA
ENDBRANCH  24  25
ENDBRANCH   3  24
TORSDOF 4
ENDMDL
MODEL 4
REMARK VINA RESULT:      -9.2      1.978      4.652
REMARK  Name = 
REMARK  4 active torsions:
REMARK  status: ('A' for Active; 'I' for Inactive)
REMARK    1  A    between atoms: C_3  and  O_5
REMARK    2  A    between atoms: O_5  and  C_9
REMARK    3  A    between atoms: C_6  and  C_11
REMARK    4  A    between atoms: C_30  and  O_33
REMARK                            x       y       z     vdW  Elec       q    Type
REMARK                         _______ _______ _______ _____ _____    ______ ____
ROOT
ATOM      1  O   UNL     1     110.780 126.586 135.423  0.00  0.00    +0.000 OA
ATOM      2  C   UNL     1     111.512 126.589 135.802  0.00  0.00    +0.000 A 
ATOM      3  C   UNL     1     111.922 127.292 135.889  0.00  0.00    +0.000 A 
ATOM      4  C   UNL     1     111.834 125.879 136.094  0.00  0.00    +0.000 A 
ATOM      5  C   UNL     1     112.654 127.295 136.267  0.00  0.00    +0.000 A 
ATOM      6  C   UNL     1     112.567 125.882 136.473  0.00  0.00    +0.000 A 
ATOM      7  C   UNL     1     111.395 125.134 135.999  0.00  0.00    +0.000 A 
ATOM      8  O   UNL     1     112.975 126.585 136.559  0.00  0.00    +0.000 OA
ATOM      9  C   UNL     1     112.913 125.150 136.781  0.00  0.00    +0.000 A 
ATOM     10  O   UNL     1     110.660 125.123 135.621  0.00  0.00    +0.000 OA
ATOM     11  C   UNL     1     111.724 124.392 136.301  0.00  0.00    +0.000 A 
ATOM     12  C   UNL     1     112.490 124.401 136.696  0.00  0.00    +0.000 A 
ATOM     13  O   UNL     1     112.811 123.691 136.988  0.00  0.00    +0.000 OA
ENDROOT
BRANCH   5  14
ATOM     14  C   UNL     1     113.063 127.999 136.354  0.00  0.00    +0.000 A 
ATOM     15  C   UNL     1     113.081 128.373 137.089  0.00  0.00    +0.000 A 
ATOM     16  C   UNL     1     113.449 128.319 135.707  0.00  0.00    +0.000 A 
ATOM     17  C   UNL     1     113.490 129.077 137.176  0.00  0.00    +0.000 A 
ATOM     18  C   UNL     1     113.858 129.022 135.793  0.00  0.00    +0.000 A 
ATOM     19  O   UNL     1     113.508 129.451 137.910  0.00  0.00    +0.000 OA
ATOM     20  C   UNL     1     113.876 129.397 136.529  0.00  0.00    +0.000 A 
ATOM     21  O   UNL     1     114.244 129.343 135.147  0.00  0.00    +0.000 OA
BRANCH  20  22
ATOM     22  O   UNL     1     114.285 130.100 136.615  0.00  0.00    +0.000 OA
ATOM     23  C   UNL     1     113.900 130.817 136.477  0.00  0.00    +0.000 C 
ENDBRANCH  20  22
ENDBRANCH   5  14
BRANCH   3  24
ATOM     24  O   UNL     1     111.594 127.983 135.597  0.00  0.00    +0.000 OA
BRANCH  24  25
ATOM     25  C   UNL     1     110.864 128.249 135.888  0.00  0.00    +0.000 C 
ATOM     26  O   UNL     1     110.649 128.116 136.686  0.00  0.00    +0.000 OA
ATOM     27  C   UNL     1     110.348 128.646 135.392  0.00  0.00    +0.000 C 
ATOM     28  C   UNL     1     109.919 128.382 136.978  0.00  0.00    +0.000 C 
ATOM     29  O   UNL     1     110.562 128.774 134.612  0.00  0.00    +0.000 OA
ATOM     30  C   UNL     1     109.618 128.912 135.684  0.00  0.00    +0.000 C 
ATOM     31  C   UNL     1     109.403 128.778 136.482  0.00  0.00    +0.000 C 
ATOM     32  C   UNL     1     109.705 128.248 137.776  0.00  0.00    +0.000 C 
ATOM     33  O   UNL     1     109.102 129.308 135.187  0.00  0.00    +0.000 OA
ATOM     34  O   UNL     1     108.674 129.044 136.773  0.00  0.00    +0.000 OA
ENDBRANCH  24  25
ENDBRANCH   3  24
TORSDOF 4
ENDMDL
MODEL 5
REMARK VINA RESULT:      -9.1      1.032      3.903
REMARK  Name = 
REMARK  4 active torsions:
REMARK  status: ('A' for Active; 'I' for Inactive)
REMARK    1  A    between atoms: C_3  and  O_5
REMARK    2  A    between atoms: O_5  and  C_9
REMARK    3  A    between atoms: C_6  and  C_11
REMARK    4  A    between atoms: C_30  and  O_33
REMARK                            x       y       z     vdW  Elec       q    Type
REMARK                         _______ _______ _______ _____ _____    ______ ____
ROOT
ATOM      1  O   UNL     1     111.873 126.078 138.660  0.00  0.00    +0.000 OA
ATOM      2  C   UNL     1     112.301 126.778 138.572  0.00  0.00    +0.000 A 
ATOM      3  C   UNL     1     112.416 127.093 137.826  0.00  0.00    +0.000 A 
ATOM      4  C   UNL     1     112.614 127.163 139.241  0.00  0.00    +0.000 A 
ATOM      5  C   UNL     1     112.844 127.792 137.738  0.00  0.00    +0.000 A 
ATOM      6  C   UNL     1     113.041 127.863 139.154  0.00  0.00    +0.000 A 
ATOM      7  C   UNL     1     112.488 126.825 140.032  0.00  0.00    +0.000 A 
ATOM      8  O   UNL     1     113.156 128.176 138.407  0.00  0.00    +0.000 OA
ATOM      9  C   UNL     1     113.371 128.273 139.841  0.00  0.00    +0.000 A 
ATOM     10  O   UNL     1     112.060 126.123 140.129  0.00  0.00    +0.000 OA
ATOM     11  C   UNL     1     112.811 127.220 140.732  0.00  0.00    +0.000 A 
ATOM     12  C   UNL     1     113.256 127.951 140.635  0.00  0.00    +0.000 A 
ATOM     13  O   UNL     1     113.569 128.335 141.304  0.00  0.00    +0.000 OA
ENDROOT
BRANCH   5  14
ATOM     14  C   UNL     1     112.959 128.107 136.991  0.00  0.00    +0.000 A 
ATOM     15  C   UNL     1     113.690 128.019 136.620  0.00  0.00    +0.000 A 
ATOM     16  C   UNL     1     112.344 128.505 136.626  0.00  0.00    +0.000 A 
ATOM     17  C   UNL     1     113.805 128.333 135.873  0.00  0.00    +0.000 A 
ATOM     18  C   UNL     1     112.459 128.819 135.879  0.00  0.00    +0.000 A 
ATOM     19  O   UNL     1     114.536 128.245 135.500  0.00  0.00    +0.000 OA
ATOM     20  C   UNL     1     113.190 128.731 135.507  0.00  0.00    +0.000 A 
ATOM     21  O   UNL     1     111.845 129.217 135.513  0.00  0.00    +0.000 OA
BRANCH  20  22
ATOM     22  O   UNL     1     113.305 129.046 134.760  0.00  0.00    +0.000 OA
ATOM     23  C   UNL     1     113.703 129.764 134.676  0.00  0.00    +0.000 C 
ENDBRANCH  20  22
ENDBRANCH   5  14
BRANCH   3  24
ATOM     24  O   UNL     1     112.104 126.705 137.176  0.00  0.00    +0.000 OA
BRANCH  24  25
ATOM     25  C   UNL     1     112.341 125.928 137.006  0.00  0.00    +0.000 C 
ATOM     26  O   UNL     1     113.119 125.673 137.177  0.00  0.00    +0.000 OA
ATOM     27  C   UNL     1     111.809 125.405 136.668  0.00  0.00    +0.000 C 
ATOM     28  C   UNL     1     113.357 124.896 137.007  0.00  0.00    +0.000 C 
ATOM     29  O   UNL     1     111.049 125.659 136.503  0.00  0.00    +0.000 OA
ATOM     30  C   UNL     1     112.047 124.628 136.498  0.00  0.00    +0.000 C 
ATOM     31  C   UNL     1     112.826 124.373 136.669  0.00  0.00    +0.000 C 
ATOM     32  C   UNL     1     114.136 124.642 137.177  0.00  0.00    +0.000 C 
ATOM     33  O   UNL     1     111.515 124.106 136.160  0.00  0.00    +0.000 OA
ATOM     34  O   UNL     1     113.063 123.597 136.499  0.00  0.00    +0.000 OA
ENDBRANCH  24  25
ENDBRANCH   3  24
TORSDOF 4
ENDMDL
MODEL 6
REMARK VINA RESULT:      -9.0      2.072      3.123
REMARK  Name = 
REMARK  4 active torsions:
REMARK  status: ('A' for Active; 'I' for Inactive)
REMARK    1  A    between atoms: C_3  and  O_5
REMARK    2  A    between atoms: O_5  and  C_9
REMARK    3  A    between atoms: C_6  and  C_11
REMARK    4  A    between atoms: C_30  and  O_33
REMARK                            x       y       z     vdW  Elec       q    Type
REMARK                         _______ _______ _______ _____ _____    ______ ____
ROOT
ATOM      1  O   UNL     1     111.803 129.658 136.757  0.00  0.00    +0.000 OA
ATOM      2  C   UNL     1     112.247 128.998 136.543  0.00  0.00    +0.000 A 
ATOM      3  C   UNL     1     111.964 128.247 136.707  0.00  0.00    +0.000 A 
ATOM      4  C   UNL     1     112.980 129.093 136.159  0.00  0.00    +0.000 A 
ATOM      5  C   UNL     1     112.408 127.587 136.492  0.00  0.00    +0.000 A 
ATOM      6  C   UNL     1     113.424 128.432 135.945  0.00  0.00    +0.000 A 
ATOM      7  C   UNL     1     113.276 129.892 135.987  0.00  0.00    +0.000 A 
ATOM      8  O   UNL     1     113.141 127.683 136.110  0.00  0.00    +0.000 OA
ATOM      9  C   UNL     1     114.188 128.518 135.546  0.00  0.00    +0.000 A 
ATOM     10  O   UNL     1     112.837 130.560 136.199  0.00  0.00    +0.000 OA
ATOM     11  C   UNL     1     114.038 129.999 135.589  0.00  0.00    +0.000 A 
ATOM     12  C   UNL     1     114.498 129.305 135.367  0.00  0.00    +0.000 A 
ATOM     13  O   UNL     1     115.230 129.401 134.984  0.00  0.00    +0.000 OA
ENDROOT
BRANCH   5  14
ATOM     14  C   UNL     1     112.125 126.836 136.657  0.00  0.00    +0.000 A 
ATOM     15  C   UNL     1     111.795 126.382 136.053  0.00  0.00    +0.000 A 
ATOM     16  C   UNL     1     112.175 126.549 137.423  0.00  0.00    +0.000 A 
ATOM     17  C   UNL     1     111.512 125.632 136.218  0.00  0.00    +0.000 A 
ATOM     18  C   UNL     1     111.892 125.800 137.588  0.00  0.00    +0.000 A 
ATOM     19  O   UNL     1     111.182 125.178 135.614  0.00  0.00    +0.000 OA
ATOM     20  C   UNL     1     111.561 125.345 136.983  0.00  0.00    +0.000 A 
ATOM     21  O   UNL     1     111.941 125.512 138.352  0.00  0.00    +0.000 OA
BRANCH  20  22
ATOM     22  O   UNL     1     111.279 124.596 137.148  0.00  0.00    +0.000 OA
ATOM     23  C   UNL     1     111.783 123.945 137.088  0.00  0.00    +0.000 C 
ENDBRANCH  20  22
ENDBRANCH   5  14
BRANCH   3  24
ATOM     24  O   UNL     1     111.242 128.166 137.084  0.00  0.00    +0.000 OA
BRANCH  24  25
ATOM     25  C   UNL     1     110.556 128.472 136.731  0.00  0.00    +0.000 C 
ATOM     26  O   UNL     1     110.474 128.484 135.898  0.00  0.00    +0.000 OA
ATOM     27  C   UNL     1     109.953 128.766 137.200  0.00  0.00    +0.000 C 
ATOM     28  C   UNL     1     109.788 128.790 135.545  0.00  0.00    +0.000 C 
ATOM     29  O   UNL     1     110.037 128.753 138.015  0.00  0.00    +0.000 OA
ATOM     30  C   UNL     1     109.267 129.072 136.847  0.00  0.00    +0.000 C 
ATOM     31  C   UNL     1     109.185 129.083 136.014  0.00  0.00    +0.000 C 
ATOM     32  C   UNL     1     109.706 128.801 134.712  0.00  0.00    +0.000 C 
ATOM     33  O   UNL     1     108.665 129.365 137.317  0.00  0.00    +0.000 OA
ATOM     34  O   UNL     1     108.500 129.389 135.661  0.00  0.00    +0.000 OA
ENDBRANCH  24  25
ENDBRANCH   3  24
TORSDOF 4
ENDMDL
MODEL 7
REMARK VINA RESULT:      -8.4      1.993      4.108
REMARK  Name = 
REMARK  4 active torsions:
REMARK  status: ('A' for Active; 'I' for Inactive)
REMARK    1  A    between atoms: C_3  and  O_5
REMARK    2  A    between atoms: O_5  and  C_9
REMARK    3  A    between atoms: C_6  and  C_11
REMARK    4  A    between atoms: C_30  and  O_33
REMARK                            x       y       z     vdW  Elec       q    Type
REMARK                         _______ _______ _______ _____ _____    ______ ____
ROOT
ATOM      1  O   UNL     1     113.418 126.768 136.518  0.00  0.00    +0.000 OA
ATOM      2  C   UNL     1     112.658 126.451 136.489  0.00  0.00    +0.000 A 
ATOM      3  C   UNL     1     112.016 126.945 136.370  0.00  0.00    +0.000 A 
ATOM      4  C   UNL     1     112.542 125.631 136.580  0.00  0.00    +0.000 A 
ATOM      5  C   UNL     1     111.255 126.628 136.341  0.00  0.00    +0.000 A 
ATOM      6  C   UNL     1     111.782 125.315 136.551  0.00  0.00    +0.000 A 
ATOM      7  C   UNL     1     113.227 125.111 136.706  0.00  0.00    +0.000 A 
ATOM      8  O   UNL     1     111.141 125.809 136.432  0.00  0.00    +0.000 OA
ATOM      9  C   UNL     1     111.649 124.464 136.645  0.00  0.00    +0.000 A 
ATOM     10  O   UNL     1     113.994 125.420 136.737  0.00  0.00    +0.000 OA
ATOM     11  C   UNL     1     113.115 124.257 136.802  0.00  0.00    +0.000 A 
ATOM     12  C   UNL     1     112.318 123.931 136.771  0.00  0.00    +0.000 A 
ATOM     13  O   UNL     1     112.203 123.112 136.862  0.00  0.00    +0.000 OA
ENDROOT
BRANCH   5  14
ATOM     14  C   UNL     1     110.614 127.123 136.222  0.00  0.00    +0.000 A 
ATOM     15  C   UNL     1     110.484 127.451 135.476  0.00  0.00    +0.000 A 
ATOM     16  C   UNL     1     110.111 127.283 136.848  0.00  0.00    +0.000 A 
ATOM     17  C   UNL     1     109.843 127.946 135.357  0.00  0.00    +0.000 A 
ATOM     18  C   UNL     1     109.470 127.777 136.729  0.00  0.00    +0.000 A 
ATOM     19  O   UNL     1     109.713 128.274 134.612  0.00  0.00    +0.000 OA
ATOM     20  C   UNL     1     109.340 128.106 135.983  0.00  0.00    +0.000 A 
ATOM     21  O   UNL     1     108.967 127.938 137.354  0.00  0.00    +0.000 OA
BRANCH  20  22
ATOM     22  O   UNL     1     108.699 128.600 135.864  0.00  0.00    +0.000 OA
ATOM     23  C   UNL     1     108.783 129.413 135.978  0.00  0.00    +0.000 C 
ENDBRANCH  20  22
ENDBRANCH   5  14
BRANCH   3  24
ATOM     24  O   UNL     1     112.142 127.749 136.281  0.00  0.00    +0.000 OA
BRANCH  24  25
ATOM     25  C   UNL     1     112.483 128.184 136.901  0.00  0.00    +0.000 C 
ATOM     26  O   UNL     1     112.362 127.958 137.697  0.00  0.00    +0.000 OA
ATOM     27  C   UNL     1     112.943 128.840 136.732  0.00  0.00    +0.000 C 
ATOM     28  C   UNL     1     112.703 128.392 138.317  0.00  0.00    +0.000 C 
ATOM     29  O   UNL     1     113.059 129.057 135.952  0.00  0.00    +0.000 OA
ATOM     30  C   UNL     1     113.284 129.274 137.352  0.00  0.00    +0.000 C 
ATOM     31  C   UNL     1     113.162 129.048 138.149  0.00  0.00    +0.000 C 
ATOM     32  C   UNL     1     112.581 128.166 139.113  0.00  0.00    +0.000 C 
ATOM     33  O   UNL     1     113.744 129.930 137.183  0.00  0.00    +0.000 OA
ATOM     34  O   UNL     1     113.503 129.482 138.767  0.00  0.00    +0.000 OA
ENDBRANCH  24  25
ENDBRANCH   3  24
TORSDOF 4
ENDMDL
