MODEL 1
REMARK VINA RESULT:      -8.6      0.000      0.000
REMARK  Name = 44257198
REMARK  6 active torsions:
REMARK  status: ('A' for Active; 'I' for Inactive)
REMARK    1  A    between atoms: O_2  and  C_14
REMARK    2  A    between atoms: O_2  and  C_20
REMARK    3  A    between atoms: O_8  and  C_25
REMARK    4  A    between atoms: O_9  and  C_30
REMARK    5  A    between atoms: C_13  and  C_15
REMARK    6  A    between atoms: C_19  and  C_22
REMARK                            x       y       z     vdW  Elec       q    Type
REMARK                         _______ _______ _______ _____ _____    ______ ____
ROOT
ATOM      1  O   UNL     1     105.230 123.912 139.630  0.00  0.00    +0.000 OA
ATOM      2  C   UNL     1     105.718 125.035 140.433  0.00  0.00    +0.000 A 
ATOM      3  C   UNL     1     105.100 125.543 140.120  0.00  0.00    +0.000 C 
ATOM      4  C   UNL     1     104.538 125.225 139.552  0.00  0.00    +0.000 C 
ATOM      5  C   UNL     1     104.604 124.403 139.305  0.00  0.00    +0.000 C 
ATOM      6  C   UNL     1     106.255 125.346 140.979  0.00  0.00    +0.000 A 
ATOM      7  C   UNL     1     105.781 124.247 140.197  0.00  0.00    +0.000 A 
ATOM      8  C   UNL     1     106.853 124.869 141.286  0.00  0.00    +0.000 A 
ATOM      9  C   UNL     1     106.380 123.771 140.505  0.00  0.00    +0.000 A 
ATOM     10  C   UNL     1     106.916 124.081 141.050  0.00  0.00    +0.000 A 
ENDROOT
BRANCH   5  11
ATOM     11  C   UNL     1     104.069 124.090 138.761  0.00  0.00    +0.000 A 
ATOM     12  C   UNL     1     103.262 124.080 138.933  0.00  0.00    +0.000 A 
ATOM     13  C   UNL     1     104.341 123.786 138.043  0.00  0.00    +0.000 A 
ATOM     14  C   UNL     1     102.728 123.767 138.390  0.00  0.00    +0.000 A 
ATOM     15  C   UNL     1     103.806 123.473 137.499  0.00  0.00    +0.000 A 
ATOM     16  C   UNL     1     103.000 123.463 137.671  0.00  0.00    +0.000 A 
BRANCH  16  17
ATOM     17  O   UNL     1     102.465 123.150 137.128  0.00  0.00    +0.000 OA
ATOM     18  C   UNL     1     102.735 122.866 136.402  0.00  0.00    +0.000 C 
ENDBRANCH  16  17
ENDBRANCH   5  11
BRANCH  10  19
ATOM     19  O   UNL     1     107.514 123.605 141.358  0.00  0.00    +0.000 OA
ATOM     20  C   UNL     1     108.253 123.581 140.991  0.00  0.00    +0.000 C 
ENDBRANCH  10  19
BRANCH   6  21
ATOM     21  O   UNL     1     106.192 126.134 141.215  0.00  0.00    +0.000 OA
BRANCH  21  30
ATOM     22  O   UNL     1     106.013 126.010 142.628  0.00  0.00    +0.000 OA
ATOM     23  O   UNL     1     107.795 127.688 143.000  0.00  0.00    +0.000 OA
ATOM     24  O   UNL     1     107.022 127.005 144.287  0.00  0.00    +0.000 OA
ATOM     25  O   UNL     1     107.380 127.252 141.464  0.00  0.00    +0.000 OA
ATOM     26  C   UNL     1     107.201 127.129 142.876  0.00  0.00    +0.000 C 
ATOM     27  C   UNL     1     106.814 126.787 143.519  0.00  0.00    +0.000 C 
ATOM     28  C   UNL     1     106.993 126.911 142.107  0.00  0.00    +0.000 C 
ATOM     29  C   UNL     1     106.220 126.228 143.395  0.00  0.00    +0.000 C 
ATOM     30  C   UNL     1     106.399 126.352 141.983  0.00  0.00    +0.000 C 
BRANCH  29  32
ATOM     31  O   UNL     1     105.217 125.353 143.915  0.00  0.00    +0.000 OA
ATOM     32  C   UNL     1     105.834 125.887 144.039  0.00  0.00    +0.000 C 
ENDBRANCH  29  32
ENDBRANCH  21  30
ENDBRANCH   6  21
TORSDOF 6
ENDMDL
MODEL 2
REMARK VINA RESULT:      -8.6      8.182      9.308
REMARK  Name = 44257198
REMARK  6 active torsions:
REMARK  status: ('A' for Active; 'I' for Inactive)
REMARK    1  A    between atoms: O_2  and  C_14
REMARK    2  A    between atoms: O_2  and  C_20
REMARK    3  A    between atoms: O_8  and  C_25
REMARK    4  A    between atoms: O_9  and  C_30
REMARK    5  A    between atoms: C_13  and  C_15
REMARK    6  A    between atoms: C_19  and  C_22
REMARK                            x       y       z     vdW  Elec       q    Type
REMARK                         _______ _______ _______ _____ _____    ______ ____
ROOT
ATOM      1  O   UNL     1     113.228 127.359 136.235  0.00  0.00    +0.000 OA
ATOM      2  C   UNL     1     112.721 128.604 136.816  0.00  0.00    +0.000 A 
ATOM      3  C   UNL     1     112.268 128.161 137.397  0.00  0.00    +0.000 C 
ATOM      4  C   UNL     1     112.299 127.302 137.393  0.00  0.00    +0.000 C 
ATOM      5  C   UNL     1     112.782 126.898 136.808  0.00  0.00    +0.000 C 
ATOM      6  C   UNL     1     112.687 129.429 136.826  0.00  0.00    +0.000 A 
ATOM      7  C   UNL     1     113.184 128.217 136.255  0.00  0.00    +0.000 A 
ATOM      8  C   UNL     1     113.117 129.865 136.273  0.00  0.00    +0.000 A 
ATOM      9  C   UNL     1     113.614 128.654 135.703  0.00  0.00    +0.000 A 
ATOM     10  C   UNL     1     113.580 129.478 135.712  0.00  0.00    +0.000 A 
ENDROOT
BRANCH   5  11
ATOM     11  C   UNL     1     112.818 126.074 136.796  0.00  0.00    +0.000 A 
ATOM     12  C   UNL     1     113.437 125.683 137.177  0.00  0.00    +0.000 A 
ATOM     13  C   UNL     1     112.235 125.641 136.404  0.00  0.00    +0.000 A 
ATOM     14  C   UNL     1     113.473 124.859 137.166  0.00  0.00    +0.000 A 
ATOM     15  C   UNL     1     112.272 124.817 136.393  0.00  0.00    +0.000 A 
ATOM     16  C   UNL     1     112.890 124.426 136.773  0.00  0.00    +0.000 A 
BRANCH  16  17
ATOM     17  O   UNL     1     112.926 123.602 136.763  0.00  0.00    +0.000 OA
ATOM     18  C   UNL     1     112.279 123.158 137.018  0.00  0.00    +0.000 C 
ENDBRANCH  16  17
ENDBRANCH   5  11
BRANCH  10  19
ATOM     19  O   UNL     1     114.010 129.915 135.159  0.00  0.00    +0.000 OA
ATOM     20  C   UNL     1     114.800 130.101 135.306  0.00  0.00    +0.000 C 
ENDBRANCH  10  19
BRANCH   6  21
ATOM     21  O   UNL     1     112.223 129.817 137.387  0.00  0.00    +0.000 OA
BRANCH  21  30
ATOM     22  O   UNL     1     111.151 130.256 136.550  0.00  0.00    +0.000 OA
ATOM     23  O   UNL     1     111.203 132.474 137.647  0.00  0.00    +0.000 OA
ATOM     24  O   UNL     1     110.115 132.173 136.444  0.00  0.00    +0.000 OA
ATOM     25  O   UNL     1     112.257 131.295 138.118  0.00  0.00    +0.000 OA
ATOM     26  C   UNL     1     111.186 131.734 137.281  0.00  0.00    +0.000 C 
ATOM     27  C   UNL     1     110.642 131.584 136.680  0.00  0.00    +0.000 C 
ATOM     28  C   UNL     1     111.713 131.145 137.517  0.00  0.00    +0.000 C 
ATOM     29  C   UNL     1     110.625 130.844 136.314  0.00  0.00    +0.000 C 
ATOM     30  C   UNL     1     111.696 130.405 137.152  0.00  0.00    +0.000 C 
BRANCH  29  32
ATOM     31  O   UNL     1     109.664 129.982 135.701  0.00  0.00    +0.000 OA
ATOM     32  C   UNL     1     110.081 130.694 135.713  0.00  0.00    +0.000 C 
ENDBRANCH  29  32
ENDBRANCH  21  30
ENDBRANCH   6  21
TORSDOF 6
ENDMDL
MODEL 3
REMARK VINA RESULT:      -8.5      3.166      6.438
REMARK  Name = 44257198
REMARK  6 active torsions:
REMARK  status: ('A' for Active; 'I' for Inactive)
REMARK    1  A    between atoms: O_2  and  C_14
REMARK    2  A    between atoms: O_2  and  C_20
REMARK    3  A    between atoms: O_8  and  C_25
REMARK    4  A    between atoms: O_9  and  C_30
REMARK    5  A    between atoms: C_13  and  C_15
REMARK    6  A    between atoms: C_19  and  C_22
REMARK                            x       y       z     vdW  Elec       q    Type
REMARK                         _______ _______ _______ _____ _____    ______ ____
ROOT
ATOM      1  O   UNL     1     106.403 125.013 145.471  0.00  0.00    +0.000 OA
ATOM      2  C   UNL     1     106.019 126.118 144.588  0.00  0.00    +0.000 A 
ATOM      3  C   UNL     1     105.968 126.652 145.260  0.00  0.00    +0.000 C 
ATOM      4  C   UNL     1     106.139 126.356 146.049  0.00  0.00    +0.000 C 
ATOM      5  C   UNL     1     106.357 125.532 146.155  0.00  0.00    +0.000 C 
ATOM      6  C   UNL     1     105.854 126.407 143.833  0.00  0.00    +0.000 A 
ATOM      7  C   UNL     1     106.229 125.327 144.690  0.00  0.00    +0.000 A 
ATOM      8  C   UNL     1     105.899 125.905 143.180  0.00  0.00    +0.000 A 
ATOM      9  C   UNL     1     106.274 124.825 144.036  0.00  0.00    +0.000 A 
ATOM     10  C   UNL     1     106.109 125.113 143.282  0.00  0.00    +0.000 A 
ENDROOT
BRANCH   5  11
ATOM     11  C   UNL     1     106.523 125.240 146.909  0.00  0.00    +0.000 A 
ATOM     12  C   UNL     1     105.937 124.847 147.337  0.00  0.00    +0.000 A 
ATOM     13  C   UNL     1     107.274 125.341 147.235  0.00  0.00    +0.000 A 
ATOM     14  C   UNL     1     106.102 124.555 148.090  0.00  0.00    +0.000 A 
ATOM     15  C   UNL     1     107.438 125.049 147.989  0.00  0.00    +0.000 A 
ATOM     16  C   UNL     1     106.853 124.656 148.416  0.00  0.00    +0.000 A 
BRANCH  16  17
ATOM     17  O   UNL     1     107.017 124.364 149.170  0.00  0.00    +0.000 OA
ATOM     18  C   UNL     1     107.790 124.380 149.458  0.00  0.00    +0.000 C 
ENDBRANCH  16  17
ENDBRANCH   5  11
BRANCH  10  19
ATOM     19  O   UNL     1     106.154 124.612 142.628  0.00  0.00    +0.000 OA
ATOM     20  C   UNL     1     105.480 124.213 142.368  0.00  0.00    +0.000 C 
ENDBRANCH  10  19
BRANCH   6  21
ATOM     21  O   UNL     1     105.644 127.199 143.731  0.00  0.00    +0.000 OA
BRANCH  21  30
ATOM     22  O   UNL     1     106.797 127.702 143.054  0.00  0.00    +0.000 OA
ATOM     23  O   UNL     1     105.337 128.827 141.402  0.00  0.00    +0.000 OA
ATOM     24  O   UNL     1     106.976 128.956 141.276  0.00  0.00    +0.000 OA
ATOM     25  O   UNL     1     104.670 127.949 142.630  0.00  0.00    +0.000 OA
ATOM     26  C   UNL     1     105.824 128.452 141.953  0.00  0.00    +0.000 C 
ATOM     27  C   UNL     1     106.643 128.516 141.890  0.00  0.00    +0.000 C 
ATOM     28  C   UNL     1     105.490 128.013 142.567  0.00  0.00    +0.000 C 
ATOM     29  C   UNL     1     107.130 128.141 142.441  0.00  0.00    +0.000 C 
ATOM     30  C   UNL     1     105.977 127.638 143.118  0.00  0.00    +0.000 C 
BRANCH  29  32
ATOM     31  O   UNL     1     108.416 128.227 143.058  0.00  0.00    +0.000 OA
ATOM     32  C   UNL     1     107.950 128.206 142.377  0.00  0.00    +0.000 C 
ENDBRANCH  29  32
ENDBRANCH  21  30
ENDBRANCH   6  21
TORSDOF 6
ENDMDL
MODEL 4
REMARK VINA RESULT:      -8.5      6.988      8.577
REMARK  Name = 44257198
REMARK  6 active torsions:
REMARK  status: ('A' for Active; 'I' for Inactive)
REMARK    1  A    between atoms: O_2  and  C_14
REMARK    2  A    between atoms: O_2  and  C_20
REMARK    3  A    between atoms: O_8  and  C_25
REMARK    4  A    between atoms: O_9  and  C_30
REMARK    5  A    between atoms: C_13  and  C_15
REMARK    6  A    between atoms: C_19  and  C_22
REMARK                            x       y       z     vdW  Elec       q    Type
REMARK                         _______ _______ _______ _____ _____    ______ ____
ROOT
ATOM      1  O   UNL     1     112.288 127.750 137.979  0.00  0.00    +0.000 OA
ATOM      2  C   UNL     1     113.126 128.524 138.897  0.00  0.00    +0.000 A 
ATOM      3  C   UNL     1     113.457 127.801 139.223  0.00  0.00    +0.000 C 
ATOM      4  C   UNL     1     113.196 127.041 138.918  0.00  0.00    +0.000 C 
ATOM      5  C   UNL     1     112.607 127.015 138.291  0.00  0.00    +0.000 C 
ATOM      6  C   UNL     1     113.381 129.251 139.194  0.00  0.00    +0.000 A 
ATOM      7  C   UNL     1     112.562 128.499 138.296  0.00  0.00    +0.000 A 
ATOM      8  C   UNL     1     113.071 129.952 138.890  0.00  0.00    +0.000 A 
ATOM      9  C   UNL     1     112.252 129.201 137.992  0.00  0.00    +0.000 A 
ATOM     10  C   UNL     1     112.506 129.927 138.289  0.00  0.00    +0.000 A 
ENDROOT
BRANCH   5  11
ATOM     11  C   UNL     1     112.351 126.290 137.993  0.00  0.00    +0.000 A 
ATOM     12  C   UNL     1     111.684 125.925 138.313  0.00  0.00    +0.000 A 
ATOM     13  C   UNL     1     112.762 125.930 137.374  0.00  0.00    +0.000 A 
ATOM     14  C   UNL     1     111.427 125.201 138.015  0.00  0.00    +0.000 A 
ATOM     15  C   UNL     1     112.504 125.204 137.076  0.00  0.00    +0.000 A 
ATOM     16  C   UNL     1     111.838 124.840 137.396  0.00  0.00    +0.000 A 
BRANCH  16  17
ATOM     17  O   UNL     1     111.581 124.115 137.098  0.00  0.00    +0.000 OA
ATOM     18  C   UNL     1     112.049 123.442 137.192  0.00  0.00    +0.000 C 
ENDBRANCH  16  17
ENDBRANCH   5  11
BRANCH  10  19
ATOM     19  O   UNL     1     112.196 130.629 137.985  0.00  0.00    +0.000 OA
ATOM     20  C   UNL     1     112.525 130.965 137.307  0.00  0.00    +0.000 C 
ENDBRANCH  10  19
BRANCH   6  21
ATOM     21  O   UNL     1     113.946 129.276 139.795  0.00  0.00    +0.000 OA
BRANCH  21  30
ATOM     22  O   UNL     1     113.213 129.829 140.890  0.00  0.00    +0.000 OA
ATOM     23  O   UNL     1     115.005 131.498 141.248  0.00  0.00    +0.000 OA
ATOM     24  O   UNL     1     113.674 131.494 142.223  0.00  0.00    +0.000 OA
ATOM     25  O   UNL     1     115.141 130.389 140.034  0.00  0.00    +0.000 OA
ATOM     26  C   UNL     1     114.407 130.941 141.129  0.00  0.00    +0.000 C 
ATOM     27  C   UNL     1     113.742 130.939 141.616  0.00  0.00    +0.000 C 
ATOM     28  C   UNL     1     114.475 130.386 140.521  0.00  0.00    +0.000 C 
ATOM     29  C   UNL     1     113.144 130.383 141.497  0.00  0.00    +0.000 C 
ATOM     30  C   UNL     1     113.878 129.830 140.402  0.00  0.00    +0.000 C 
BRANCH  29  32
ATOM     31  O   UNL     1     112.182 129.668 142.274  0.00  0.00    +0.000 OA
ATOM     32  C   UNL     1     112.480 130.381 141.984  0.00  0.00    +0.000 C 
ENDBRANCH  29  32
ENDBRANCH  21  30
ENDBRANCH   6  21
TORSDOF 6
ENDMDL
MODEL 5
REMARK VINA RESULT:      -8.4      6.747      8.031
REMARK  Name = 44257198
REMARK  6 active torsions:
REMARK  status: ('A' for Active; 'I' for Inactive)
REMARK    1  A    between atoms: O_2  and  C_14
REMARK    2  A    between atoms: O_2  and  C_20
REMARK    3  A    between atoms: O_8  and  C_25
REMARK    4  A    between atoms: O_9  and  C_30
REMARK    5  A    between atoms: C_13  and  C_15
REMARK    6  A    between atoms: C_19  and  C_22
REMARK                            x       y       z     vdW  Elec       q    Type
REMARK                         _______ _______ _______ _____ _____    ______ ____
ROOT
ATOM      1  O   UNL     1     111.377 127.432 136.250  0.00  0.00    +0.000 OA
ATOM      2  C   UNL     1     110.320 128.428 136.059  0.00  0.00    +0.000 A 
ATOM      3  C   UNL     1     109.719 127.815 136.104  0.00  0.00    +0.000 C 
ATOM      4  C   UNL     1     109.957 126.997 136.225  0.00  0.00    +0.000 C 
ATOM      5  C   UNL     1     110.791 126.805 136.299  0.00  0.00    +0.000 C 
ATOM      6  C   UNL     1     110.086 129.211 135.942  0.00  0.00    +0.000 A 
ATOM      7  C   UNL     1     111.121 128.243 136.129  0.00  0.00    +0.000 A 
ATOM      8  C   UNL     1     110.653 129.808 135.897  0.00  0.00    +0.000 A 
ATOM      9  C   UNL     1     111.688 128.841 136.083  0.00  0.00    +0.000 A 
ATOM     10  C   UNL     1     111.454 129.623 135.967  0.00  0.00    +0.000 A 
ENDROOT
BRANCH   5  11
ATOM     11  C   UNL     1     111.028 126.023 136.415  0.00  0.00    +0.000 A 
ATOM     12  C   UNL     1     111.059 125.502 135.776  0.00  0.00    +0.000 A 
ATOM     13  C   UNL     1     111.234 125.762 137.170  0.00  0.00    +0.000 A 
ATOM     14  C   UNL     1     111.295 124.721 135.891  0.00  0.00    +0.000 A 
ATOM     15  C   UNL     1     111.471 124.980 137.285  0.00  0.00    +0.000 A 
ATOM     16  C   UNL     1     111.502 124.459 136.647  0.00  0.00    +0.000 A 
BRANCH  16  17
ATOM     17  O   UNL     1     111.738 123.678 136.762  0.00  0.00    +0.000 OA
ATOM     18  C   UNL     1     112.523 123.509 136.950  0.00  0.00    +0.000 C 
ENDBRANCH  16  17
ENDBRANCH   5  11
BRANCH  10  19
ATOM     19  O   UNL     1     112.021 130.221 135.921  0.00  0.00    +0.000 OA
ATOM     20  C   UNL     1     112.535 130.350 136.553  0.00  0.00    +0.000 C 
ENDBRANCH  10  19
BRANCH   6  21
ATOM     21  O   UNL     1     109.285 129.396 135.872  0.00  0.00    +0.000 OA
BRANCH  21  30
ATOM     22  O   UNL     1     109.089 130.096 137.102  0.00  0.00    +0.000 OA
ATOM     23  O   UNL     1     107.795 131.835 135.907  0.00  0.00    +0.000 OA
ATOM     24  O   UNL     1     108.031 131.954 137.535  0.00  0.00    +0.000 OA
ATOM     25  O   UNL     1     108.422 130.555 135.075  0.00  0.00    +0.000 OA
ATOM     26  C   UNL     1     108.226 131.255 136.305  0.00  0.00    +0.000 C 
ATOM     27  C   UNL     1     108.345 131.315 137.120  0.00  0.00    +0.000 C 
ATOM     28  C   UNL     1     108.540 130.615 135.889  0.00  0.00    +0.000 C 
ATOM     29  C   UNL     1     108.776 130.735 137.518  0.00  0.00    +0.000 C 
ATOM     30  C   UNL     1     108.972 130.035 136.288  0.00  0.00    +0.000 C 
BRANCH  29  32
ATOM     31  O   UNL     1     108.695 130.165 138.826  0.00  0.00    +0.000 OA
ATOM     32  C   UNL     1     108.893 130.795 138.332  0.00  0.00    +0.000 C 
ENDBRANCH  29  32
ENDBRANCH  21  30
ENDBRANCH   6  21
TORSDOF 6
ENDMDL
MODEL 6
REMARK VINA RESULT:      -8.3      7.291      8.996
REMARK  Name = 44257198
REMARK  6 active torsions:
REMARK  status: ('A' for Active; 'I' for Inactive)
REMARK    1  A    between atoms: O_2  and  C_14
REMARK    2  A    between atoms: O_2  and  C_20
REMARK    3  A    between atoms: O_8  and  C_25
REMARK    4  A    between atoms: O_9  and  C_30
REMARK    5  A    between atoms: C_13  and  C_15
REMARK    6  A    between atoms: C_19  and  C_22
REMARK                            x       y       z     vdW  Elec       q    Type
REMARK                         _______ _______ _______ _____ _____    ______ ____
ROOT
ATOM      1  O   UNL     1     112.145 127.958 135.978  0.00  0.00    +0.000 OA
ATOM      2  C   UNL     1     111.867 129.237 136.636  0.00  0.00    +0.000 A 
ATOM      3  C   UNL     1     112.366 129.016 137.300  0.00  0.00    +0.000 C 
ATOM      4  C   UNL     1     112.760 128.252 137.298  0.00  0.00    +0.000 C 
ATOM      5  C   UNL     1     112.649 127.719 136.633  0.00  0.00    +0.000 C 
ATOM      6  C   UNL     1     111.492 129.972 136.644  0.00  0.00    +0.000 A 
ATOM      7  C   UNL     1     111.761 128.725 135.997  0.00  0.00    +0.000 A 
ATOM      8  C   UNL     1     111.010 130.195 136.012  0.00  0.00    +0.000 A 
ATOM      9  C   UNL     1     111.278 128.950 135.366  0.00  0.00    +0.000 A 
ATOM     10  C   UNL     1     110.904 129.684 135.373  0.00  0.00    +0.000 A 
ENDROOT
BRANCH   5  11
ATOM     11  C   UNL     1     113.023 126.984 136.623  0.00  0.00    +0.000 A 
ATOM     12  C   UNL     1     113.837 126.937 136.496  0.00  0.00    +0.000 A 
ATOM     13  C   UNL     1     112.583 126.296 136.740  0.00  0.00    +0.000 A 
ATOM     14  C   UNL     1     114.211 126.202 136.486  0.00  0.00    +0.000 A 
ATOM     15  C   UNL     1     112.958 125.560 136.729  0.00  0.00    +0.000 A 
ATOM     16  C   UNL     1     113.771 125.513 136.603  0.00  0.00    +0.000 A 
BRANCH  16  17
ATOM     17  O   UNL     1     114.146 124.779 136.593  0.00  0.00    +0.000 OA
ATOM     18  C   UNL     1     114.606 124.543 137.235  0.00  0.00    +0.000 C 
ENDBRANCH  16  17
ENDBRANCH   5  11
BRANCH  10  19
ATOM     19  O   UNL     1     110.422 129.908 134.742  0.00  0.00    +0.000 OA
ATOM     20  C   UNL     1     109.704 129.521 134.614  0.00  0.00    +0.000 C 
ENDBRANCH  10  19
BRANCH   6  21
ATOM     21  O   UNL     1     111.598 130.483 137.282  0.00  0.00    +0.000 OA
BRANCH  21  30
ATOM     22  O   UNL     1     110.264 130.506 137.793  0.00  0.00    +0.000 OA
ATOM     23  O   UNL     1     110.417 132.960 138.080  0.00  0.00    +0.000 OA
ATOM     24  O   UNL     1     109.033 132.165 138.495  0.00  0.00    +0.000 OA
ATOM     25  O   UNL     1     111.700 132.119 137.473  0.00  0.00    +0.000 OA
ATOM     26  C   UNL     1     110.366 132.142 137.985  0.00  0.00    +0.000 C 
ATOM     27  C   UNL     1     109.674 131.744 138.192  0.00  0.00    +0.000 C 
ATOM     28  C   UNL     1     111.008 131.721 137.681  0.00  0.00    +0.000 C 
ATOM     29  C   UNL     1     109.623 130.927 138.096  0.00  0.00    +0.000 C 
ATOM     30  C   UNL     1     110.957 130.903 137.585  0.00  0.00    +0.000 C 
BRANCH  29  32
ATOM     31  O   UNL     1     108.968 129.848 138.768  0.00  0.00    +0.000 OA
ATOM     32  C   UNL     1     108.931 130.530 138.304  0.00  0.00    +0.000 C 
ENDBRANCH  29  32
ENDBRANCH  21  30
ENDBRANCH   6  21
TORSDOF 6
ENDMDL
MODEL 7
REMARK VINA RESULT:      -8.3      3.816      5.523
REMARK  Name = 44257198
REMARK  6 active torsions:
REMARK  status: ('A' for Active; 'I' for Inactive)
REMARK    1  A    between atoms: O_2  and  C_14
REMARK    2  A    between atoms: O_2  and  C_20
REMARK    3  A    between atoms: O_8  and  C_25
REMARK    4  A    between atoms: O_9  and  C_30
REMARK    5  A    between atoms: C_13  and  C_15
REMARK    6  A    between atoms: C_19  and  C_22
REMARK                            x       y       z     vdW  Elec       q    Type
REMARK                         _______ _______ _______ _____ _____    ______ ____
ROOT
ATOM      1  O   UNL     1     104.544 130.034 141.940  0.00  0.00    +0.000 OA
ATOM      2  C   UNL     1     104.944 128.638 141.746  0.00  0.00    +0.000 A 
ATOM      3  C   UNL     1     104.136 128.421 141.552  0.00  0.00    +0.000 C 
ATOM      4  C   UNL     1     103.524 129.025 141.553  0.00  0.00    +0.000 C 
ATOM      5  C   UNL     1     103.729 129.837 141.748  0.00  0.00    +0.000 C 
ATOM      6  C   UNL     1     105.528 128.053 141.743  0.00  0.00    +0.000 A 
ATOM      7  C   UNL     1     105.141 129.417 141.933  0.00  0.00    +0.000 A 
ATOM      8  C   UNL     1     106.307 128.249 141.928  0.00  0.00    +0.000 A 
ATOM      9  C   UNL     1     105.922 129.611 142.118  0.00  0.00    +0.000 A 
ATOM     10  C   UNL     1     106.504 129.028 142.115  0.00  0.00    +0.000 A 
ENDROOT
BRANCH   5  11
ATOM     11  C   UNL     1     103.148 130.422 141.751  0.00  0.00    +0.000 A 
ATOM     12  C   UNL     1     102.908 130.769 141.043  0.00  0.00    +0.000 A 
ATOM     13  C   UNL     1     102.807 130.661 142.464  0.00  0.00    +0.000 A 
ATOM     14  C   UNL     1     102.328 131.355 141.045  0.00  0.00    +0.000 A 
ATOM     15  C   UNL     1     102.226 131.247 142.467  0.00  0.00    +0.000 A 
ATOM     16  C   UNL     1     101.986 131.594 141.758  0.00  0.00    +0.000 A 
BRANCH  16  17
ATOM     17  O   UNL     1     101.406 132.180 141.761  0.00  0.00    +0.000 OA
ATOM     18  C   UNL     1     100.788 132.144 142.306  0.00  0.00    +0.000 C 
ENDBRANCH  16  17
ENDBRANCH   5  11
BRANCH  10  19
ATOM     19  O   UNL     1     107.285 129.223 142.300  0.00  0.00    +0.000 OA
ATOM     20  C   UNL     1     107.785 129.519 141.715  0.00  0.00    +0.000 C 
ENDBRANCH  10  19
BRANCH   6  21
ATOM     21  O   UNL     1     105.331 127.275 141.556  0.00  0.00    +0.000 OA
BRANCH  21  30
ATOM     22  O   UNL     1     105.580 126.663 142.823  0.00  0.00    +0.000 OA
ATOM     23  O   UNL     1     106.689 124.764 141.688  0.00  0.00    +0.000 OA
ATOM     24  O   UNL     1     106.569 124.786 143.333  0.00  0.00    +0.000 OA
ATOM     25  O   UNL     1     106.070 126.008 140.799  0.00  0.00    +0.000 OA
ATOM     26  C   UNL     1     106.319 125.397 142.067  0.00  0.00    +0.000 C 
ATOM     27  C   UNL     1     106.259 125.409 142.889  0.00  0.00    +0.000 C 
ATOM     28  C   UNL     1     106.009 126.020 141.622  0.00  0.00    +0.000 C 
ATOM     29  C   UNL     1     105.890 126.042 143.267  0.00  0.00    +0.000 C 
ATOM     30  C   UNL     1     105.640 126.653 142.000  0.00  0.00    +0.000 C 
BRANCH  29  32
ATOM     31  O   UNL     1     105.120 126.269 144.450  0.00  0.00    +0.000 OA
ATOM     32  C   UNL     1     105.830 126.053 144.089  0.00  0.00    +0.000 C 
ENDBRANCH  29  32
ENDBRANCH  21  30
ENDBRANCH   6  21
TORSDOF 6
ENDMDL
MODEL 8
REMARK VINA RESULT:      -8.2      7.347      9.048
REMARK  Name = 44257198
REMARK  6 active torsions:
REMARK  status: ('A' for Active; 'I' for Inactive)
REMARK    1  A    between atoms: O_2  and  C_14
REMARK    2  A    between atoms: O_2  and  C_20
REMARK    3  A    between atoms: O_8  and  C_25
REMARK    4  A    between atoms: O_9  and  C_30
REMARK    5  A    between atoms: C_13  and  C_15
REMARK    6  A    between atoms: C_19  and  C_22
REMARK                            x       y       z     vdW  Elec       q    Type
REMARK                         _______ _______ _______ _____ _____    ______ ____
ROOT
ATOM      1  O   UNL     1     113.711 127.611 136.440  0.00  0.00    +0.000 OA
ATOM      2  C   UNL     1     112.600 127.258 137.328  0.00  0.00    +0.000 A 
ATOM      3  C   UNL     1     112.311 128.067 137.306  0.00  0.00    +0.000 C 
ATOM      4  C   UNL     1     112.733 128.655 136.842  0.00  0.00    +0.000 C 
ATOM      5  C   UNL     1     113.437 128.425 136.406  0.00  0.00    +0.000 C 
ATOM      6  C   UNL     1     112.190 126.698 137.775  0.00  0.00    +0.000 A 
ATOM      7  C   UNL     1     113.276 127.038 136.909  0.00  0.00    +0.000 A 
ATOM      8  C   UNL     1     112.458 125.918 137.804  0.00  0.00    +0.000 A 
ATOM      9  C   UNL     1     113.542 126.257 136.938  0.00  0.00    +0.000 A 
ATOM     10  C   UNL     1     113.134 125.698 137.385  0.00  0.00    +0.000 A 
ENDROOT
BRANCH   5  11
ATOM     11  C   UNL     1     113.848 128.983 135.958  0.00  0.00    +0.000 A 
ATOM     12  C   UNL     1     114.275 129.581 136.334  0.00  0.00    +0.000 A 
ATOM     13  C   UNL     1     113.833 128.943 135.134  0.00  0.00    +0.000 A 
ATOM     14  C   UNL     1     114.685 130.139 135.887  0.00  0.00    +0.000 A 
ATOM     15  C   UNL     1     114.245 129.501 134.687  0.00  0.00    +0.000 A 
ATOM     16  C   UNL     1     114.670 130.099 135.062  0.00  0.00    +0.000 A 
BRANCH  16  17
ATOM     17  O   UNL     1     115.081 130.657 134.616  0.00  0.00    +0.000 OA
ATOM     18  C   UNL     1     115.374 131.338 134.977  0.00  0.00    +0.000 C 
ENDBRANCH  16  17
ENDBRANCH   5  11
BRANCH  10  19
ATOM     19  O   UNL     1     113.400 124.917 137.414  0.00  0.00    +0.000 OA
ATOM     20  C   UNL     1     113.174 124.382 136.828  0.00  0.00    +0.000 C 
ENDBRANCH  10  19
BRANCH   6  21
ATOM     21  O   UNL     1     111.514 126.918 138.194  0.00  0.00    +0.000 OA
BRANCH  21  30
ATOM     22  O   UNL     1     112.038 126.907 139.523  0.00  0.00    +0.000 OA
ATOM     23  O   UNL     1     110.010 125.729 140.313  0.00  0.00    +0.000 OA
ATOM     24  O   UNL     1     111.209 126.111 141.378  0.00  0.00    +0.000 OA
ATOM     25  O   UNL     1     110.162 126.132 138.720  0.00  0.00    +0.000 OA
ATOM     26  C   UNL     1     110.686 126.122 140.050  0.00  0.00    +0.000 C 
ATOM     27  C   UNL     1     111.286 126.313 140.582  0.00  0.00    +0.000 C 
ATOM     28  C   UNL     1     110.762 126.324 139.253  0.00  0.00    +0.000 C 
ATOM     29  C   UNL     1     111.962 126.706 140.319  0.00  0.00    +0.000 C 
ATOM     30  C   UNL     1     111.438 126.716 138.989  0.00  0.00    +0.000 C 
BRANCH  29  32
ATOM     31  O   UNL     1     112.920 127.639 140.822  0.00  0.00    +0.000 OA
ATOM     32  C   UNL     1     112.561 126.896 140.852  0.00  0.00    +0.000 C 
ENDBRANCH  29  32
ENDBRANCH  21  30
ENDBRANCH   6  21
TORSDOF 6
ENDMDL
MODEL 9
REMARK VINA RESULT:      -8.2      6.209      7.940
REMARK  Name = 44257198
REMARK  6 active torsions:
REMARK  status: ('A' for Active; 'I' for Inactive)
REMARK    1  A    between atoms: O_2  and  C_14
REMARK    2  A    between atoms: O_2  and  C_20
REMARK    3  A    between atoms: O_8  and  C_25
REMARK    4  A    between atoms: O_9  and  C_30
REMARK    5  A    between atoms: C_13  and  C_15
REMARK    6  A    between atoms: C_19  and  C_22
REMARK                            x       y       z     vdW  Elec       q    Type
REMARK                         _______ _______ _______ _____ _____    ______ ____
ROOT
ATOM      1  O   UNL     1     107.365 127.018 146.622  0.00  0.00    +0.000 OA
ATOM      2  C   UNL     1     106.216 126.619 147.439  0.00  0.00    +0.000 A 
ATOM      3  C   UNL     1     105.782 127.318 147.191  0.00  0.00    +0.000 C 
ATOM      4  C   UNL     1     106.151 127.875 146.649  0.00  0.00    +0.000 C 
ATOM      5  C   UNL     1     106.948 127.723 146.362  0.00  0.00    +0.000 C 
ATOM      6  C   UNL     1     105.856 126.088 147.959  0.00  0.00    +0.000 A 
ATOM      7  C   UNL     1     106.980 126.474 147.164  0.00  0.00    +0.000 A 
ATOM      8  C   UNL     1     106.262 125.413 148.204  0.00  0.00    +0.000 A 
ATOM      9  C   UNL     1     107.385 125.798 147.410  0.00  0.00    +0.000 A 
ATOM     10  C   UNL     1     107.026 125.268 147.930  0.00  0.00    +0.000 A 
ENDROOT
BRANCH   5  11
ATOM     11  C   UNL     1     107.309 128.252 145.842  0.00  0.00    +0.000 A 
ATOM     12  C   UNL     1     107.898 128.761 146.115  0.00  0.00    +0.000 A 
ATOM     13  C   UNL     1     107.081 128.271 145.049  0.00  0.00    +0.000 A 
ATOM     14  C   UNL     1     108.260 129.289 145.596  0.00  0.00    +0.000 A 
ATOM     15  C   UNL     1     107.443 128.800 144.530  0.00  0.00    +0.000 A 
ATOM     16  C   UNL     1     108.032 129.309 144.802  0.00  0.00    +0.000 A 
BRANCH  16  17
ATOM     17  O   UNL     1     108.394 129.838 144.283  0.00  0.00    +0.000 OA
ATOM     18  C   UNL     1     108.061 130.582 144.155  0.00  0.00    +0.000 C 
ENDBRANCH  16  17
ENDBRANCH   5  11
BRANCH  10  19
ATOM     19  O   UNL     1     107.431 124.592 148.176  0.00  0.00    +0.000 OA
ATOM     20  C   UNL     1     107.896 124.616 148.857  0.00  0.00    +0.000 C 
ENDBRANCH  10  19
BRANCH   6  21
ATOM     21  O   UNL     1     105.092 126.233 148.234  0.00  0.00    +0.000 OA
BRANCH  21  30
ATOM     22  O   UNL     1     104.370 125.230 147.516  0.00  0.00    +0.000 OA
ATOM     23  O   UNL     1     103.149 124.630 149.584  0.00  0.00    +0.000 OA
ATOM     24  O   UNL     1     102.834 123.828 148.177  0.00  0.00    +0.000 OA
ATOM     25  O   UNL     1     104.278 125.833 149.612  0.00  0.00    +0.000 OA
ATOM     26  C   UNL     1     103.556 124.830 148.894  0.00  0.00    +0.000 C 
ATOM     27  C   UNL     1     103.399 124.429 148.191  0.00  0.00    +0.000 C 
ATOM     28  C   UNL     1     104.121 125.432 148.908  0.00  0.00    +0.000 C 
ATOM     29  C   UNL     1     103.806 124.629 147.502  0.00  0.00    +0.000 C 
ATOM     30  C   UNL     1     104.528 125.632 148.219  0.00  0.00    +0.000 C 
BRANCH  29  32
ATOM     31  O   UNL     1     103.605 124.643 146.087  0.00  0.00    +0.000 OA
ATOM     32  C   UNL     1     103.648 124.228 146.799  0.00  0.00    +0.000 C 
ENDBRANCH  29  32
ENDBRANCH  21  30
ENDBRANCH   6  21
TORSDOF 6
ENDMDL
MODEL 10
REMARK VINA RESULT:      -8.2      7.395      9.897
REMARK  Name = 44257198
REMARK  6 active torsions:
REMARK  status: ('A' for Active; 'I' for Inactive)
REMARK    1  A    between atoms: O_2  and  C_14
REMARK    2  A    between atoms: O_2  and  C_20
REMARK    3  A    between atoms: O_8  and  C_25
REMARK    4  A    between atoms: O_9  and  C_30
REMARK    5  A    between atoms: C_13  and  C_15
REMARK    6  A    between atoms: C_19  and  C_22
REMARK                            x       y       z     vdW  Elec       q    Type
REMARK                         _______ _______ _______ _____ _____    ______ ____
ROOT
ATOM      1  O   UNL     1     113.155 128.899 138.486  0.00  0.00    +0.000 OA
ATOM      2  C   UNL     1     112.621 127.559 138.232  0.00  0.00    +0.000 A 
ATOM      3  C   UNL     1     112.647 127.377 139.071  0.00  0.00    +0.000 C 
ATOM      4  C   UNL     1     112.934 127.970 139.624  0.00  0.00    +0.000 C 
ATOM      5  C   UNL     1     113.190 128.736 139.329  0.00  0.00    +0.000 C 
ATOM      6  C   UNL     1     112.344 126.985 137.706  0.00  0.00    +0.000 A 
ATOM      7  C   UNL     1     112.866 128.294 137.949  0.00  0.00    +0.000 A 
ATOM      8  C   UNL     1     112.314 127.148 136.898  0.00  0.00    +0.000 A 
ATOM      9  C   UNL     1     112.835 128.456 137.140  0.00  0.00    +0.000 A 
ATOM     10  C   UNL     1     112.559 127.883 136.615  0.00  0.00    +0.000 A 
ENDROOT
BRANCH   5  11
ATOM     11  C   UNL     1     113.467 129.311 139.852  0.00  0.00    +0.000 A 
ATOM     12  C   UNL     1     112.942 129.858 140.179  0.00  0.00    +0.000 A 
ATOM     13  C   UNL     1     114.268 129.339 140.049  0.00  0.00    +0.000 A 
ATOM     14  C   UNL     1     113.218 130.432 140.702  0.00  0.00    +0.000 A 
ATOM     15  C   UNL     1     114.544 129.914 140.572  0.00  0.00    +0.000 A 
ATOM     16  C   UNL     1     114.020 130.460 140.899  0.00  0.00    +0.000 A 
BRANCH  16  17
ATOM     17  O   UNL     1     114.295 131.035 141.422  0.00  0.00    +0.000 OA
ATOM     18  C   UNL     1     115.044 131.365 141.314  0.00  0.00    +0.000 C 
ENDBRANCH  16  17
ENDBRANCH   5  11
BRANCH  10  19
ATOM     19  O   UNL     1     112.528 128.045 135.807  0.00  0.00    +0.000 OA
ATOM     20  C   UNL     1     111.900 128.482 135.498  0.00  0.00    +0.000 C 
ENDBRANCH  10  19
BRANCH   6  21
ATOM     21  O   UNL     1     112.099 126.250 137.989  0.00  0.00    +0.000 OA
BRANCH  21  30
ATOM     22  O   UNL     1     113.173 125.426 137.533  0.00  0.00    +0.000 OA
ATOM     23  O   UNL     1     111.544 123.750 136.721  0.00  0.00    +0.000 OA
ATOM     24  O   UNL     1     113.161 123.485 136.536  0.00  0.00    +0.000 OA
ATOM     25  O   UNL     1     111.012 125.133 137.448  0.00  0.00    +0.000 OA
ATOM     26  C   UNL     1     112.087 124.309 136.992  0.00  0.00    +0.000 C 
ATOM     27  C   UNL     1     112.896 124.177 136.899  0.00  0.00    +0.000 C 
ATOM     28  C   UNL     1     111.821 125.001 137.355  0.00  0.00    +0.000 C 
ATOM     29  C   UNL     1     113.439 124.736 137.170  0.00  0.00    +0.000 C 
ATOM     30  C   UNL     1     112.364 125.560 137.626  0.00  0.00    +0.000 C 
BRANCH  29  32
ATOM     31  O   UNL     1     114.781 124.890 137.638  0.00  0.00    +0.000 OA
ATOM     32  C   UNL     1     114.247 124.603 137.077  0.00  0.00    +0.000 C 
ENDBRANCH  29  32
ENDBRANCH  21  30
ENDBRANCH   6  21
TORSDOF 6
ENDMDL
