MODEL 1
REMARK VINA RESULT:      -8.7      0.000      0.000
REMARK  Name = 73829938
REMARK  7 active torsions:
REMARK  status: ('A' for Active; 'I' for Inactive)
REMARK    1  A    between atoms: O_2  and  C_18
REMARK    2  A    between atoms: O_2  and  C_20
REMARK    3  A    between atoms: O_7  and  C_21
REMARK    4  A    between atoms: O_9  and  C_31
REMARK    5  A    between atoms: O_10  and  C_33
REMARK    6  A    between atoms: C_16  and  C_19
REMARK    7  A    between atoms: C_23  and  C_26
REMARK                            x       y       z     vdW  Elec       q    Type
REMARK                         _______ _______ _______ _____ _____    ______ ____
ROOT
ATOM      1  C   UNL     1     112.286 127.561 137.111  0.00  0.00    +0.000 A 
ATOM      2  C   UNL     1     111.923 128.025 137.688  0.00  0.00    +0.000 A 
ATOM      3  C   UNL     1     112.013 127.583 136.332  0.00  0.00    +0.000 A 
ATOM      4  C   UNL     1     111.016 128.534 136.710  0.00  0.00    +0.000 A 
ATOM      5  C   UNL     1     111.288 128.512 137.488  0.00  0.00    +0.000 A 
ATOM      6  C   UNL     1     111.378 128.070 136.132  0.00  0.00    +0.000 A 
ENDROOT
BRANCH   4  11
ATOM      7  O   UNL     1     110.486 129.874 136.464  0.00  0.00    +0.000 OA
ATOM      8  O   UNL     1     107.704 130.206 135.739  0.00  0.00    +0.000 OA
ATOM      9  O   UNL     1     108.210 128.877 135.978  0.00  0.00    +0.000 OA
ATOM     10  O   UNL     1     109.400 132.495 135.970  0.00  0.00    +0.000 OA
ATOM     11  C   UNL     1     110.380 129.021 136.510  0.00  0.00    +0.000 A 
ATOM     12  C   UNL     1     109.818 130.372 136.255  0.00  0.00    +0.000 A 
ATOM     13  C   UNL     1     109.078 130.045 136.097  0.00  0.00    +0.000 A 
ATOM     14  C   UNL     1     109.609 128.681 136.345  0.00  0.00    +0.000 A 
ATOM     15  C   UNL     1     108.954 129.196 136.137  0.00  0.00    +0.000 A 
ATOM     16  C   UNL     1     109.925 131.189 136.212  0.00  0.00    +0.000 A 
ATOM     17  C   UNL     1     108.445 130.534 135.897  0.00  0.00    +0.000 A 
ATOM     18  C   UNL     1     108.552 131.351 135.854  0.00  0.00    +0.000 A 
ATOM     19  C   UNL     1     109.292 131.679 136.012  0.00  0.00    +0.000 A 
BRANCH  16  20
ATOM     20  O   UNL     1     110.667 131.517 136.371  0.00  0.00    +0.000 OA
ATOM     21  C   UNL     1     110.748 132.084 136.964  0.00  0.00    +0.000 C 
ENDBRANCH  16  20
BRANCH  18  22
ATOM     22  O   UNL     1     107.918 131.840 135.654  0.00  0.00    +0.000 OA
ATOM     23  C   UNL     1     107.835 132.111 134.879  0.00  0.00    +0.000 C 
ENDBRANCH  18  22
ENDBRANCH   4  11
BRANCH   2  24
ATOM     24  O   UNL     1     112.197 128.002 138.467  0.00  0.00    +0.000 OA
ATOM     25  C   UNL     1     112.089 128.654 138.960  0.00  0.00    +0.000 C 
ENDBRANCH   2  24
BRANCH   1  26
ATOM     26  O   UNL     1     112.921 127.074 137.311  0.00  0.00    +0.000 OA
BRANCH  26  35
ATOM     27  O   UNL     1     112.255 125.810 137.301  0.00  0.00    +0.000 OA
ATOM     28  O   UNL     1     114.177 124.806 136.108  0.00  0.00    +0.000 OA
ATOM     29  O   UNL     1     112.871 123.877 136.495  0.00  0.00    +0.000 OA
ATOM     30  O   UNL     1     114.203 126.405 136.515  0.00  0.00    +0.000 OA
ATOM     31  C   UNL     1     113.537 125.141 136.505  0.00  0.00    +0.000 C 
ATOM     32  C   UNL     1     112.883 124.676 136.700  0.00  0.00    +0.000 C 
ATOM     33  C   UNL     1     112.242 125.011 137.097  0.00  0.00    +0.000 C 
ATOM     34  C   UNL     1     113.549 125.941 136.710  0.00  0.00    +0.000 C 
ATOM     35  C   UNL     1     112.908 126.275 137.107  0.00  0.00    +0.000 C 
BRANCH  33  37
ATOM     36  O   UNL     1     111.249 124.604 138.040  0.00  0.00    +0.000 OA
ATOM     37  C   UNL     1     111.590 124.546 137.291  0.00  0.00    +0.000 C 
ENDBRANCH  33  37
ENDBRANCH  26  35
ENDBRANCH   1  26
TORSDOF 7
ENDMDL
MODEL 2
REMARK VINA RESULT:      -8.7      1.338      6.100
REMARK  Name = 73829938
REMARK  7 active torsions:
REMARK  status: ('A' for Active; 'I' for Inactive)
REMARK    1  A    between atoms: O_2  and  C_18
REMARK    2  A    between atoms: O_2  and  C_20
REMARK    3  A    between atoms: O_7  and  C_21
REMARK    4  A    between atoms: O_9  and  C_31
REMARK    5  A    between atoms: O_10  and  C_33
REMARK    6  A    between atoms: C_16  and  C_19
REMARK    7  A    between atoms: C_23  and  C_26
REMARK                            x       y       z     vdW  Elec       q    Type
REMARK                         _______ _______ _______ _____ _____    ______ ____
ROOT
ATOM      1  C   UNL     1     112.081 129.738 136.478  0.00  0.00    +0.000 A 
ATOM      2  C   UNL     1     112.464 129.331 135.872  0.00  0.00    +0.000 A 
ATOM      3  C   UNL     1     111.657 129.321 137.052  0.00  0.00    +0.000 A 
ATOM      4  C   UNL     1     112.002 128.091 136.411  0.00  0.00    +0.000 A 
ATOM      5  C   UNL     1     112.425 128.507 135.838  0.00  0.00    +0.000 A 
ATOM      6  C   UNL     1     111.618 128.497 137.018  0.00  0.00    +0.000 A 
ENDROOT
BRANCH   4  11
ATOM      7  O   UNL     1     112.603 126.790 136.699  0.00  0.00    +0.000 OA
ATOM      8  O   UNL     1     111.211 124.368 135.942  0.00  0.00    +0.000 OA
ATOM      9  O   UNL     1     110.604 125.643 135.651  0.00  0.00    +0.000 OA
ATOM     10  O   UNL     1     113.749 124.206 137.246  0.00  0.00    +0.000 OA
ATOM     11  C   UNL     1     111.963 127.268 136.377  0.00  0.00    +0.000 A 
ATOM     12  C   UNL     1     112.553 125.934 136.659  0.00  0.00    +0.000 A 
ATOM     13  C   UNL     1     111.900 125.563 136.317  0.00  0.00    +0.000 A 
ATOM     14  C   UNL     1     111.284 126.881 136.021  0.00  0.00    +0.000 A 
ATOM     15  C   UNL     1     111.252 126.023 135.991  0.00  0.00    +0.000 A 
ATOM     16  C   UNL     1     113.169 125.481 136.969  0.00  0.00    +0.000 A 
ATOM     17  C   UNL     1     111.864 124.739 136.285  0.00  0.00    +0.000 A 
ATOM     18  C   UNL     1     112.480 124.287 136.594  0.00  0.00    +0.000 A 
ATOM     19  C   UNL     1     113.133 124.658 136.937  0.00  0.00    +0.000 A 
BRANCH  16  20
ATOM     20  O   UNL     1     113.822 125.853 137.311  0.00  0.00    +0.000 OA
ATOM     21  C   UNL     1     114.004 125.718 138.104  0.00  0.00    +0.000 C 
ENDBRANCH  16  20
BRANCH  18  22
ATOM     22  O   UNL     1     112.444 123.463 136.562  0.00  0.00    +0.000 OA
ATOM     23  C   UNL     1     112.070 123.043 137.165  0.00  0.00    +0.000 C 
ENDBRANCH  18  22
ENDBRANCH   4  11
BRANCH   2  24
ATOM     24  O   UNL     1     112.887 129.748 135.299  0.00  0.00    +0.000 OA
ATOM     25  C   UNL     1     113.521 129.388 134.912  0.00  0.00    +0.000 C 
ENDBRANCH   2  24
BRANCH   1  26
ATOM     26  O   UNL     1     112.120 130.561 136.512  0.00  0.00    +0.000 OA
BRANCH  26  35
ATOM     27  O   UNL     1     110.769 130.887 136.178  0.00  0.00    +0.000 OA
ATOM     28  O   UNL     1     110.717 132.549 138.012  0.00  0.00    +0.000 OA
ATOM     29  O   UNL     1     109.385 132.321 137.068  0.00  0.00    +0.000 OA
ATOM     30  O   UNL     1     112.085 131.669 137.734  0.00  0.00    +0.000 OA
ATOM     31  C   UNL     1     110.735 131.995 137.401  0.00  0.00    +0.000 C 
ATOM     32  C   UNL     1     110.068 131.881 136.928  0.00  0.00    +0.000 C 
ATOM     33  C   UNL     1     110.085 131.327 136.317  0.00  0.00    +0.000 C 
ATOM     34  C   UNL     1     111.419 131.555 137.262  0.00  0.00    +0.000 C 
ATOM     35  C   UNL     1     111.436 131.001 136.650  0.00  0.00    +0.000 C 
BRANCH  33  37
ATOM     36  O   UNL     1     109.501 131.123 135.029  0.00  0.00    +0.000 OA
ATOM     37  C   UNL     1     109.419 131.213 135.845  0.00  0.00    +0.000 C 
ENDBRANCH  33  37
ENDBRANCH  26  35
ENDBRANCH   1  26
TORSDOF 7
ENDMDL
MODEL 3
REMARK VINA RESULT:      -8.6      1.371      2.380
REMARK  Name = 73829938
REMARK  7 active torsions:
REMARK  status: ('A' for Active; 'I' for Inactive)
REMARK    1  A    between atoms: O_2  and  C_18
REMARK    2  A    between atoms: O_2  and  C_20
REMARK    3  A    between atoms: O_7  and  C_21
REMARK    4  A    between atoms: O_9  and  C_31
REMARK    5  A    between atoms: O_10  and  C_33
REMARK    6  A    between atoms: C_16  and  C_19
REMARK    7  A    between atoms: C_23  and  C_26
REMARK                            x       y       z     vdW  Elec       q    Type
REMARK                         _______ _______ _______ _____ _____    ______ ____
ROOT
ATOM      1  C   UNL     1     113.177 127.234 136.776  0.00  0.00    +0.000 A 
ATOM      2  C   UNL     1     113.396 127.895 136.334  0.00  0.00    +0.000 A 
ATOM      3  C   UNL     1     112.602 127.304 137.365  0.00  0.00    +0.000 A 
ATOM      4  C   UNL     1     112.468 128.695 137.068  0.00  0.00    +0.000 A 
ATOM      5  C   UNL     1     113.041 128.626 136.480  0.00  0.00    +0.000 A 
ATOM      6  C   UNL     1     112.248 128.034 137.511  0.00  0.00    +0.000 A 
ENDROOT
BRANCH   4  11
ATOM      7  O   UNL     1     111.528 129.740 136.668  0.00  0.00    +0.000 OA
ATOM      8  O   UNL     1     111.217 132.099 138.314  0.00  0.00    +0.000 OA
ATOM      9  O   UNL     1     112.149 131.078 138.725  0.00  0.00    +0.000 OA
ATOM     10  O   UNL     1     109.687 131.824 135.916  0.00  0.00    +0.000 OA
ATOM     11  C   UNL     1     112.113 129.426 137.214  0.00  0.00    +0.000 A 
ATOM     12  C   UNL     1     111.164 130.501 136.828  0.00  0.00    +0.000 A 
ATOM     13  C   UNL     1     111.369 130.935 137.499  0.00  0.00    +0.000 A 
ATOM     14  C   UNL     1     112.325 129.878 137.913  0.00  0.00    +0.000 A 
ATOM     15  C   UNL     1     111.951 130.638 138.057  0.00  0.00    +0.000 A 
ATOM     16  C   UNL     1     110.604 130.798 136.300  0.00  0.00    +0.000 A 
ATOM     17  C   UNL     1     111.013 131.665 137.643  0.00  0.00    +0.000 A 
ATOM     18  C   UNL     1     110.452 131.962 137.115  0.00  0.00    +0.000 A 
ATOM     19  C   UNL     1     110.248 131.528 136.444  0.00  0.00    +0.000 A 
BRANCH  16  20
ATOM     20  O   UNL     1     110.400 130.363 135.629  0.00  0.00    +0.000 OA
ATOM     21  C   UNL     1     109.620 130.118 135.518  0.00  0.00    +0.000 C 
ENDBRANCH  16  20
BRANCH  18  22
ATOM     22  O   UNL     1     110.096 132.692 137.259  0.00  0.00    +0.000 OA
ATOM     23  C   UNL     1     110.410 133.377 136.923  0.00  0.00    +0.000 C 
ENDBRANCH  18  22
ENDBRANCH   4  11
BRANCH   2  24
ATOM     24  O   UNL     1     113.970 127.825 135.745  0.00  0.00    +0.000 OA
ATOM     25  C   UNL     1     114.355 128.499 135.463  0.00  0.00    +0.000 C 
ENDBRANCH   2  24
BRANCH   1  26
ATOM     26  O   UNL     1     113.532 126.504 136.630  0.00  0.00    +0.000 OA
BRANCH  26  35
ATOM     27  O   UNL     1     112.336 125.842 136.214  0.00  0.00    +0.000 OA
ATOM     28  O   UNL     1     113.151 123.734 137.224  0.00  0.00    +0.000 OA
ATOM     29  O   UNL     1     111.684 123.775 136.471  0.00  0.00    +0.000 OA
ATOM     30  O   UNL     1     114.075 125.099 137.303  0.00  0.00    +0.000 OA
ATOM     31  C   UNL     1     112.879 124.437 136.887  0.00  0.00    +0.000 C 
ATOM     32  C   UNL     1     112.145 124.458 136.510  0.00  0.00    +0.000 C 
ATOM     33  C   UNL     1     111.874 125.160 136.174  0.00  0.00    +0.000 C 
ATOM     34  C   UNL     1     113.341 125.120 136.927  0.00  0.00    +0.000 C 
ATOM     35  C   UNL     1     113.070 125.822 136.590  0.00  0.00    +0.000 C 
BRANCH  33  37
ATOM     36  O   UNL     1     111.055 125.576 135.079  0.00  0.00    +0.000 OA
ATOM     37  C   UNL     1     111.140 125.180 135.798  0.00  0.00    +0.000 C 
ENDBRANCH  33  37
ENDBRANCH  26  35
ENDBRANCH   1  26
TORSDOF 7
ENDMDL
MODEL 4
REMARK VINA RESULT:      -8.6      1.593      6.132
REMARK  Name = 73829938
REMARK  7 active torsions:
REMARK  status: ('A' for Active; 'I' for Inactive)
REMARK    1  A    between atoms: O_2  and  C_18
REMARK    2  A    between atoms: O_2  and  C_20
REMARK    3  A    between atoms: O_7  and  C_21
REMARK    4  A    between atoms: O_9  and  C_31
REMARK    5  A    between atoms: O_10  and  C_33
REMARK    6  A    between atoms: C_16  and  C_19
REMARK    7  A    between atoms: C_23  and  C_26
REMARK                            x       y       z     vdW  Elec       q    Type
REMARK                         _______ _______ _______ _____ _____    ______ ____
ROOT
ATOM      1  C   UNL     1     109.943 129.530 135.372  0.00  0.00    +0.000 A 
ATOM      2  C   UNL     1     110.733 129.298 135.330  0.00  0.00    +0.000 A 
ATOM      3  C   UNL     1     109.361 128.977 135.569  0.00  0.00    +0.000 A 
ATOM      4  C   UNL     1     110.361 127.963 135.679  0.00  0.00    +0.000 A 
ATOM      5  C   UNL     1     110.942 128.515 135.483  0.00  0.00    +0.000 A 
ATOM      6  C   UNL     1     109.570 128.194 135.722  0.00  0.00    +0.000 A 
ENDROOT
BRANCH   4  11
ATOM      7  O   UNL     1     110.875 126.957 136.605  0.00  0.00    +0.000 OA
ATOM      8  O   UNL     1     111.138 124.209 135.738  0.00  0.00    +0.000 OA
ATOM      9  O   UNL     1     110.629 125.189 134.810  0.00  0.00    +0.000 OA
ATOM     10  O   UNL     1     111.884 124.941 138.398  0.00  0.00    +0.000 OA
ATOM     11  C   UNL     1     110.571 127.180 135.833  0.00  0.00    +0.000 A 
ATOM     12  C   UNL     1     111.091 126.139 136.755  0.00  0.00    +0.000 A 
ATOM     13  C   UNL     1     111.009 125.565 136.169  0.00  0.00    +0.000 A 
ATOM     14  C   UNL     1     110.486 126.582 135.222  0.00  0.00    +0.000 A 
ATOM     15  C   UNL     1     110.707 125.769 135.391  0.00  0.00    +0.000 A 
ATOM     16  C   UNL     1     111.382 125.931 137.499  0.00  0.00    +0.000 A 
ATOM     17  C   UNL     1     111.220 124.783 136.325  0.00  0.00    +0.000 A 
ATOM     18  C   UNL     1     111.511 124.574 137.068  0.00  0.00    +0.000 A 
ATOM     19  C   UNL     1     111.593 125.148 137.655  0.00  0.00    +0.000 A 
BRANCH  16  20
ATOM     20  O   UNL     1     111.464 126.506 138.085  0.00  0.00    +0.000 OA
ATOM     21  C   UNL     1     111.057 126.426 138.799  0.00  0.00    +0.000 C 
ENDBRANCH  16  20
BRANCH  18  22
ATOM     22  O   UNL     1     111.721 123.792 137.224  0.00  0.00    +0.000 OA
ATOM     23  C   UNL     1     112.485 123.529 137.057  0.00  0.00    +0.000 C 
ENDBRANCH  18  22
ENDBRANCH   4  11
BRANCH   2  24
ATOM     24  O   UNL     1     111.315 129.850 135.134  0.00  0.00    +0.000 OA
ATOM     25  C   UNL     1     112.090 129.602 135.001  0.00  0.00    +0.000 C 
ENDBRANCH   2  24
BRANCH   1  26
ATOM     26  O   UNL     1     109.733 130.313 135.219  0.00  0.00    +0.000 OA
BRANCH  26  35
ATOM     27  O   UNL     1     109.402 130.743 136.541  0.00  0.00    +0.000 OA
ATOM     28  O   UNL     1     107.370 131.856 135.669  0.00  0.00    +0.000 OA
ATOM     29  O   UNL     1     107.716 131.915 137.280  0.00  0.00    +0.000 OA
ATOM     30  O   UNL     1     108.379 131.054 134.638  0.00  0.00    +0.000 OA
ATOM     31  C   UNL     1     108.047 131.485 135.960  0.00  0.00    +0.000 C 
ATOM     32  C   UNL     1     108.221 131.514 136.766  0.00  0.00    +0.000 C 
ATOM     33  C   UNL     1     108.898 131.143 137.056  0.00  0.00    +0.000 C 
ATOM     34  C   UNL     1     108.552 131.084 135.444  0.00  0.00    +0.000 C 
ATOM     35  C   UNL     1     109.229 130.713 135.734  0.00  0.00    +0.000 C 
BRANCH  33  37
ATOM     36  O   UNL     1     109.846 131.302 138.114  0.00  0.00    +0.000 OA
ATOM     37  C   UNL     1     109.071 131.173 137.862  0.00  0.00    +0.000 C 
ENDBRANCH  33  37
ENDBRANCH  26  35
ENDBRANCH   1  26
TORSDOF 7
ENDMDL
MODEL 5
REMARK VINA RESULT:      -8.6      7.776      9.263
REMARK  Name = 73829938
REMARK  7 active torsions:
REMARK  status: ('A' for Active; 'I' for Inactive)
REMARK    1  A    between atoms: O_2  and  C_18
REMARK    2  A    between atoms: O_2  and  C_20
REMARK    3  A    between atoms: O_7  and  C_21
REMARK    4  A    between atoms: O_9  and  C_31
REMARK    5  A    between atoms: O_10  and  C_33
REMARK    6  A    between atoms: C_16  and  C_19
REMARK    7  A    between atoms: C_23  and  C_26
REMARK                            x       y       z     vdW  Elec       q    Type
REMARK                         _______ _______ _______ _____ _____    ______ ____
ROOT
ATOM      1  C   UNL     1     104.082 128.801 141.770  0.00  0.00    +0.000 A 
ATOM      2  C   UNL     1     103.640 129.012 141.106  0.00  0.00    +0.000 A 
ATOM      3  C   UNL     1     104.094 129.295 142.431  0.00  0.00    +0.000 A 
ATOM      4  C   UNL     1     103.223 130.209 141.763  0.00  0.00    +0.000 A 
ATOM      5  C   UNL     1     103.211 129.716 141.103  0.00  0.00    +0.000 A 
ATOM      6  C   UNL     1     103.665 130.000 142.428  0.00  0.00    +0.000 A 
ENDROOT
BRANCH   4  11
ATOM      7  O   UNL     1     103.156 131.640 141.476  0.00  0.00    +0.000 OA
ATOM      8  O   UNL     1     100.713 133.098 142.008  0.00  0.00    +0.000 OA
ATOM      9  O   UNL     1     100.761 131.686 142.297  0.00  0.00    +0.000 OA
ATOM     10  O   UNL     1     102.980 134.462 140.927  0.00  0.00    +0.000 OA
ATOM     11  C   UNL     1     102.793 130.914 141.759  0.00  0.00    +0.000 A 
ATOM     12  C   UNL     1     102.700 132.369 141.477  0.00  0.00    +0.000 A 
ATOM     13  C   UNL     1     101.920 132.381 141.745  0.00  0.00    +0.000 A 
ATOM     14  C   UNL     1     101.981 130.927 142.039  0.00  0.00    +0.000 A 
ATOM     15  C   UNL     1     101.542 131.665 142.031  0.00  0.00    +0.000 A 
ATOM     16  C   UNL     1     103.053 133.063 141.204  0.00  0.00    +0.000 A 
ATOM     17  C   UNL     1     101.493 133.086 141.740  0.00  0.00    +0.000 A 
ATOM     18  C   UNL     1     101.846 133.781 141.467  0.00  0.00    +0.000 A 
ATOM     19  C   UNL     1     102.626 133.769 141.199  0.00  0.00    +0.000 A 
BRANCH  16  20
ATOM     20  O   UNL     1     103.834 133.051 140.936  0.00  0.00    +0.000 OA
ATOM     21  C   UNL     1     104.005 133.258 140.156  0.00  0.00    +0.000 C 
ENDBRANCH  16  20
BRANCH  18  22
ATOM     22  O   UNL     1     101.419 134.486 141.463  0.00  0.00    +0.000 OA
ATOM     23  C   UNL     1     101.468 135.003 142.105  0.00  0.00    +0.000 C 
ENDBRANCH  18  22
ENDBRANCH   4  11
BRANCH   2  24
ATOM     24  O   UNL     1     103.628 128.517 140.445  0.00  0.00    +0.000 OA
ATOM     25  C   UNL     1     102.985 128.536 139.929  0.00  0.00    +0.000 C 
ENDBRANCH   2  24
BRANCH   1  26
ATOM     26  O   UNL     1     104.512 128.096 141.773  0.00  0.00    +0.000 OA
BRANCH  26  35
ATOM     27  O   UNL     1     105.827 128.654 141.748  0.00  0.00    +0.000 OA
ATOM     28  O   UNL     1     106.578 126.956 143.385  0.00  0.00    +0.000 OA
ATOM     29  O   UNL     1     107.643 128.079 142.813  0.00  0.00    +0.000 OA
ATOM     30  O   UNL     1     105.012 126.965 142.865  0.00  0.00    +0.000 OA
ATOM     31  C   UNL     1     106.328 127.522 142.839  0.00  0.00    +0.000 C 
ATOM     32  C   UNL     1     106.860 128.084 142.553  0.00  0.00    +0.000 C 
ATOM     33  C   UNL     1     106.610 128.649 142.007  0.00  0.00    +0.000 C 
ATOM     34  C   UNL     1     105.544 127.526 142.579  0.00  0.00    +0.000 C 
ATOM     35  C   UNL     1     105.294 128.092 142.033  0.00  0.00    +0.000 C 
BRANCH  33  37
ATOM     36  O   UNL     1     107.151 129.400 140.919  0.00  0.00    +0.000 OA
ATOM     37  C   UNL     1     107.142 129.210 141.722  0.00  0.00    +0.000 C 
ENDBRANCH  33  37
ENDBRANCH  26  35
ENDBRANCH   1  26
TORSDOF 7
ENDMDL
MODEL 6
REMARK VINA RESULT:      -8.5      1.051      6.308
REMARK  Name = 73829938
REMARK  7 active torsions:
REMARK  status: ('A' for Active; 'I' for Inactive)
REMARK    1  A    between atoms: O_2  and  C_18
REMARK    2  A    between atoms: O_2  and  C_20
REMARK    3  A    between atoms: O_7  and  C_21
REMARK    4  A    between atoms: O_9  and  C_31
REMARK    5  A    between atoms: O_10  and  C_33
REMARK    6  A    between atoms: C_16  and  C_19
REMARK    7  A    between atoms: C_23  and  C_26
REMARK                            x       y       z     vdW  Elec       q    Type
REMARK                         _______ _______ _______ _____ _____    ______ ____
ROOT
ATOM      1  C   UNL     1     109.430 129.408 136.800  0.00  0.00    +0.000 A 
ATOM      2  C   UNL     1     109.730 129.059 137.485  0.00  0.00    +0.000 A 
ATOM      3  C   UNL     1     109.790 129.263 136.072  0.00  0.00    +0.000 A 
ATOM      4  C   UNL     1     110.750 128.422 136.714  0.00  0.00    +0.000 A 
ATOM      5  C   UNL     1     110.390 128.567 137.442  0.00  0.00    +0.000 A 
ATOM      6  C   UNL     1     110.450 128.770 136.029  0.00  0.00    +0.000 A 
ENDROOT
BRANCH   4  11
ATOM      7  O   UNL     1     111.311 127.078 136.608  0.00  0.00    +0.000 OA
ATOM      8  O   UNL     1     114.183 126.720 136.555  0.00  0.00    +0.000 OA
ATOM      9  O   UNL     1     113.646 128.055 136.660  0.00  0.00    +0.000 OA
ATOM     10  O   UNL     1     112.460 124.445 136.399  0.00  0.00    +0.000 OA
ATOM     11  C   UNL     1     111.410 127.930 136.671  0.00  0.00    +0.000 A 
ATOM     12  C   UNL     1     112.005 126.572 136.564  0.00  0.00    +0.000 A 
ATOM     13  C   UNL     1     112.764 126.894 136.581  0.00  0.00    +0.000 A 
ATOM     14  C   UNL     1     112.202 128.263 136.689  0.00  0.00    +0.000 A 
ATOM     15  C   UNL     1     112.883 127.742 136.643  0.00  0.00    +0.000 A 
ATOM     16  C   UNL     1     111.904 125.756 136.503  0.00  0.00    +0.000 A 
ATOM     17  C   UNL     1     113.423 126.399 136.538  0.00  0.00    +0.000 A 
ATOM     18  C   UNL     1     113.322 125.582 136.477  0.00  0.00    +0.000 A 
ATOM     19  C   UNL     1     112.562 125.261 136.460  0.00  0.00    +0.000 A 
BRANCH  16  20
ATOM     20  O   UNL     1     111.143 125.435 136.486  0.00  0.00    +0.000 OA
ATOM     21  C   UNL     1     110.884 125.026 135.818  0.00  0.00    +0.000 C 
ENDBRANCH  16  20
BRANCH  18  22
ATOM     22  O   UNL     1     113.980 125.087 136.434  0.00  0.00    +0.000 OA
ATOM     23  C   UNL     1     114.295 124.758 137.122  0.00  0.00    +0.000 C 
ENDBRANCH  18  22
ENDBRANCH   4  11
BRANCH   2  24
ATOM     24  O   UNL     1     109.370 129.204 138.213  0.00  0.00    +0.000 OA
ATOM     25  C   UNL     1     109.671 128.856 138.898  0.00  0.00    +0.000 C 
ENDBRANCH   2  24
BRANCH   1  26
ATOM     26  O   UNL     1     108.769 129.901 136.843  0.00  0.00    +0.000 OA
BRANCH  26  35
ATOM     27  O   UNL     1     109.381 131.160 136.560  0.00  0.00    +0.000 OA
ATOM     28  O   UNL     1     107.529 131.712 135.014  0.00  0.00    +0.000 OA
ATOM     29  O   UNL     1     108.758 132.787 135.245  0.00  0.00    +0.000 OA
ATOM     30  O   UNL     1     107.534 130.269 135.813  0.00  0.00    +0.000 OA
ATOM     31  C   UNL     1     108.146 131.528 135.529  0.00  0.00    +0.000 C 
ATOM     32  C   UNL     1     108.761 132.066 135.645  0.00  0.00    +0.000 C 
ATOM     33  C   UNL     1     109.379 131.882 136.160  0.00  0.00    +0.000 C 
ATOM     34  C   UNL     1     108.149 130.806 135.929  0.00  0.00    +0.000 C 
ATOM     35  C   UNL     1     108.767 130.622 136.444  0.00  0.00    +0.000 C 
BRANCH  33  37
ATOM     36  O   UNL     1     110.286 132.555 137.035  0.00  0.00    +0.000 OA
ATOM     37  C   UNL     1     109.993 132.419 136.276  0.00  0.00    +0.000 C 
ENDBRANCH  33  37
ENDBRANCH  26  35
ENDBRANCH   1  26
TORSDOF 7
ENDMDL
MODEL 7
REMARK VINA RESULT:      -8.5      4.068      6.336
REMARK  Name = 73829938
REMARK  7 active torsions:
REMARK  status: ('A' for Active; 'I' for Inactive)
REMARK    1  A    between atoms: O_2  and  C_18
REMARK    2  A    between atoms: O_2  and  C_20
REMARK    3  A    between atoms: O_7  and  C_21
REMARK    4  A    between atoms: O_9  and  C_31
REMARK    5  A    between atoms: O_10  and  C_33
REMARK    6  A    between atoms: C_16  and  C_19
REMARK    7  A    between atoms: C_23  and  C_26
REMARK                            x       y       z     vdW  Elec       q    Type
REMARK                         _______ _______ _______ _____ _____    ______ ____
ROOT
ATOM      1  C   UNL     1     113.304 128.656 140.702  0.00  0.00    +0.000 A 
ATOM      2  C   UNL     1     113.701 127.934 140.669  0.00  0.00    +0.000 A 
ATOM      3  C   UNL     1     112.636 128.780 140.233  0.00  0.00    +0.000 A 
ATOM      4  C   UNL     1     112.765 127.461 139.700  0.00  0.00    +0.000 A 
ATOM      5  C   UNL     1     113.432 127.336 140.168  0.00  0.00    +0.000 A 
ATOM      6  C   UNL     1     112.366 128.183 139.732  0.00  0.00    +0.000 A 
ENDROOT
BRANCH   4  11
ATOM      7  O   UNL     1     112.931 126.669 138.484  0.00  0.00    +0.000 OA
ATOM      8  O   UNL     1     110.995 124.620 137.828  0.00  0.00    +0.000 OA
ATOM      9  O   UNL     1     110.815 125.393 139.033  0.00  0.00    +0.000 OA
ATOM     10  O   UNL     1     113.222 125.083 136.097  0.00  0.00    +0.000 OA
ATOM     11  C   UNL     1     112.495 126.864 139.199  0.00  0.00    +0.000 A 
ATOM     12  C   UNL     1     112.643 126.045 137.968  0.00  0.00    +0.000 A 
ATOM     13  C   UNL     1     111.953 125.631 138.150  0.00  0.00    +0.000 A 
ATOM     14  C   UNL     1     111.777 126.432 139.387  0.00  0.00    +0.000 A 
ATOM     15  C   UNL     1     111.504 125.812 138.859  0.00  0.00    +0.000 A 
ATOM     16  C   UNL     1     113.066 125.862 137.284  0.00  0.00    +0.000 A 
ATOM     17  C   UNL     1     111.686 125.034 137.647  0.00  0.00    +0.000 A 
ATOM     18  C   UNL     1     112.108 124.851 136.962  0.00  0.00    +0.000 A 
ATOM     19  C   UNL     1     112.799 125.265 136.781  0.00  0.00    +0.000 A 
BRANCH  16  20
ATOM     20  O   UNL     1     113.756 126.277 137.103  0.00  0.00    +0.000 OA
ATOM     21  C   UNL     1     113.788 126.749 136.427  0.00  0.00    +0.000 C 
ENDBRANCH  16  20
BRANCH  18  22
ATOM     22  O   UNL     1     111.841 124.255 136.459  0.00  0.00    +0.000 OA
ATOM     23  C   UNL     1     112.098 123.478 136.567  0.00  0.00    +0.000 C 
ENDBRANCH  18  22
ENDBRANCH   4  11
BRANCH   2  24
ATOM     24  O   UNL     1     114.369 127.809 141.138  0.00  0.00    +0.000 OA
ATOM     25  C   UNL     1     114.836 127.139 141.020  0.00  0.00    +0.000 C 
ENDBRANCH   2  24
BRANCH   1  26
ATOM     26  O   UNL     1     113.574 129.253 141.203  0.00  0.00    +0.000 OA
BRANCH  26  35
ATOM     27  O   UNL     1     112.525 129.205 142.173  0.00  0.00    +0.000 OA
ATOM     28  O   UNL     1     112.499 131.678 142.267  0.00  0.00    +0.000 OA
ATOM     29  O   UNL     1     111.460 130.806 143.205  0.00  0.00    +0.000 OA
ATOM     30  O   UNL     1     113.556 130.902 141.266  0.00  0.00    +0.000 OA
ATOM     31  C   UNL     1     112.508 130.854 142.236  0.00  0.00    +0.000 C 
ATOM     32  C   UNL     1     111.988 130.417 142.705  0.00  0.00    +0.000 C 
ATOM     33  C   UNL     1     111.997 129.593 142.674  0.00  0.00    +0.000 C 
ATOM     34  C   UNL     1     113.037 130.465 141.735  0.00  0.00    +0.000 C 
ATOM     35  C   UNL     1     113.045 129.641 141.704  0.00  0.00    +0.000 C 
BRANCH  33  37
ATOM     36  O   UNL     1     111.750 128.498 143.558  0.00  0.00    +0.000 OA
ATOM     37  C   UNL     1     111.478 129.157 143.143  0.00  0.00    +0.000 C 
ENDBRANCH  33  37
ENDBRANCH  26  35
ENDBRANCH   1  26
TORSDOF 7
ENDMDL
MODEL 8
REMARK VINA RESULT:      -8.5      0.915      1.799
REMARK  Name = 73829938
REMARK  7 active torsions:
REMARK  status: ('A' for Active; 'I' for Inactive)
REMARK    1  A    between atoms: O_2  and  C_18
REMARK    2  A    between atoms: O_2  and  C_20
REMARK    3  A    between atoms: O_7  and  C_21
REMARK    4  A    between atoms: O_9  and  C_31
REMARK    5  A    between atoms: O_10  and  C_33
REMARK    6  A    between atoms: C_16  and  C_19
REMARK    7  A    between atoms: C_23  and  C_26
REMARK                            x       y       z     vdW  Elec       q    Type
REMARK                         _______ _______ _______ _____ _____    ______ ____
ROOT
ATOM      1  C   UNL     1     112.628 127.187 138.092  0.00  0.00    +0.000 A 
ATOM      2  C   UNL     1     112.065 127.561 138.564  0.00  0.00    +0.000 A 
ATOM      3  C   UNL     1     112.717 127.409 137.301  0.00  0.00    +0.000 A 
ATOM      4  C   UNL     1     111.679 128.378 137.458  0.00  0.00    +0.000 A 
ATOM      5  C   UNL     1     111.590 128.157 138.247  0.00  0.00    +0.000 A 
ATOM      6  C   UNL     1     112.242 128.004 136.984  0.00  0.00    +0.000 A 
ENDROOT
BRANCH   4  11
ATOM      7  O   UNL     1     110.400 128.800 136.892  0.00  0.00    +0.000 OA
ATOM      8  O   UNL     1     110.025 131.553 136.084  0.00  0.00    +0.000 OA
ATOM      9  O   UNL     1     111.295 131.155 136.641  0.00  0.00    +0.000 OA
ATOM     10  O   UNL     1     107.894 129.674 135.773  0.00  0.00    +0.000 OA
ATOM     11  C   UNL     1     111.205 128.974 137.141  0.00  0.00    +0.000 A 
ATOM     12  C   UNL     1     109.913 129.427 136.563  0.00  0.00    +0.000 A 
ATOM     13  C   UNL     1     110.208 130.193 136.483  0.00  0.00    +0.000 A 
ATOM     14  C   UNL     1     111.510 129.772 137.056  0.00  0.00    +0.000 A 
ATOM     15  C   UNL     1     111.009 130.386 136.725  0.00  0.00    +0.000 A 
ATOM     16  C   UNL     1     109.142 129.254 136.326  0.00  0.00    +0.000 A 
ATOM     17  C   UNL     1     109.731 130.787 136.165  0.00  0.00    +0.000 A 
ATOM     18  C   UNL     1     108.959 130.614 135.928  0.00  0.00    +0.000 A 
ATOM     19  C   UNL     1     108.665 129.848 136.009  0.00  0.00    +0.000 A 
BRANCH  16  20
ATOM     20  O   UNL     1     108.848 128.487 136.408  0.00  0.00    +0.000 OA
ATOM     21  C   UNL     1     108.649 128.049 135.737  0.00  0.00    +0.000 C 
ENDBRANCH  16  20
BRANCH  18  22
ATOM     22  O   UNL     1     108.482 131.208 135.611  0.00  0.00    +0.000 OA
ATOM     23  C   UNL     1     107.958 131.619 136.097  0.00  0.00    +0.000 C 
ENDBRANCH  18  22
ENDBRANCH   4  11
BRANCH   2  24
ATOM     24  O   UNL     1     111.976 127.339 139.354  0.00  0.00    +0.000 OA
ATOM     25  C   UNL     1     111.648 127.867 139.896  0.00  0.00    +0.000 C 
ENDBRANCH   2  24
BRANCH   1  26
ATOM     26  O   UNL     1     113.103 126.591 138.409  0.00  0.00    +0.000 OA
BRANCH  26  35
ATOM     27  O   UNL     1     112.557 125.481 137.692  0.00  0.00    +0.000 OA
ATOM     28  O   UNL     1     114.836 124.574 137.362  0.00  0.00    +0.000 OA
ATOM     29  O   UNL     1     113.531 123.768 136.756  0.00  0.00    +0.000 OA
ATOM     30  O   UNL     1     114.622 125.986 138.188  0.00  0.00    +0.000 OA
ATOM     31  C   UNL     1     114.077 124.877 137.472  0.00  0.00    +0.000 C 
ATOM     32  C   UNL     1     113.424 124.474 137.169  0.00  0.00    +0.000 C 
ATOM     33  C   UNL     1     112.664 124.776 137.279  0.00  0.00    +0.000 C 
ATOM     34  C   UNL     1     113.969 125.583 137.886  0.00  0.00    +0.000 C 
ATOM     35  C   UNL     1     113.210 125.886 137.996  0.00  0.00    +0.000 C 
BRANCH  33  37
ATOM     36  O   UNL     1     111.357 124.226 137.456  0.00  0.00    +0.000 OA
ATOM     37  C   UNL     1     112.012 124.373 136.976  0.00  0.00    +0.000 C 
ENDBRANCH  33  37
ENDBRANCH  26  35
ENDBRANCH   1  26
TORSDOF 7
ENDMDL
MODEL 9
REMARK VINA RESULT:      -8.5      1.650      6.241
REMARK  Name = 73829938
REMARK  7 active torsions:
REMARK  status: ('A' for Active; 'I' for Inactive)
REMARK    1  A    between atoms: O_2  and  C_18
REMARK    2  A    between atoms: O_2  and  C_20
REMARK    3  A    between atoms: O_7  and  C_21
REMARK    4  A    between atoms: O_9  and  C_31
REMARK    5  A    between atoms: O_10  and  C_33
REMARK    6  A    between atoms: C_16  and  C_19
REMARK    7  A    between atoms: C_23  and  C_26
REMARK                            x       y       z     vdW  Elec       q    Type
REMARK                         _______ _______ _______ _____ _____    ______ ____
ROOT
ATOM      1  C   UNL     1     111.277 130.442 136.423  0.00  0.00    +0.000 A 
ATOM      2  C   UNL     1     111.159 129.865 135.845  0.00  0.00    +0.000 A 
ATOM      3  C   UNL     1     111.845 130.325 137.011  0.00  0.00    +0.000 A 
ATOM      4  C   UNL     1     112.174 129.057 136.441  0.00  0.00    +0.000 A 
ATOM      5  C   UNL     1     111.607 129.173 135.854  0.00  0.00    +0.000 A 
ATOM      6  C   UNL     1     112.294 129.633 137.020  0.00  0.00    +0.000 A 
ENDROOT
BRANCH   4  11
ATOM      7  O   UNL     1     112.307 127.649 136.809  0.00  0.00    +0.000 OA
ATOM      8  O   UNL     1     114.735 126.218 136.155  0.00  0.00    +0.000 OA
ATOM      9  O   UNL     1     114.622 127.607 135.784  0.00  0.00    +0.000 OA
ATOM     10  O   UNL     1     112.612 124.874 137.516  0.00  0.00    +0.000 OA
ATOM     11  C   UNL     1     112.622 128.365 136.451  0.00  0.00    +0.000 A 
ATOM     12  C   UNL     1     112.782 126.933 136.814  0.00  0.00    +0.000 A 
ATOM     13  C   UNL     1     113.535 126.922 136.479  0.00  0.00    +0.000 A 
ATOM     14  C   UNL     1     113.408 128.352 136.102  0.00  0.00    +0.000 A 
ATOM     15  C   UNL     1     113.867 127.627 136.117  0.00  0.00    +0.000 A 
ATOM     16  C   UNL     1     112.474 126.250 137.160  0.00  0.00    +0.000 A 
ATOM     17  C   UNL     1     113.982 126.228 136.490  0.00  0.00    +0.000 A 
ATOM     18  C   UNL     1     113.674 125.545 136.836  0.00  0.00    +0.000 A 
ATOM     19  C   UNL     1     112.920 125.556 137.171  0.00  0.00    +0.000 A 
BRANCH  16  20
ATOM     20  O   UNL     1     111.719 126.262 137.495  0.00  0.00    +0.000 OA
ATOM     21  C   UNL     1     111.140 125.740 137.224  0.00  0.00    +0.000 C 
ENDBRANCH  16  20
BRANCH  18  22
ATOM     22  O   UNL     1     114.120 124.852 136.847  0.00  0.00    +0.000 OA
ATOM     23  C   UNL     1     114.645 124.708 137.467  0.00  0.00    +0.000 C 
ENDBRANCH  18  22
ENDBRANCH   4  11
BRANCH   2  24
ATOM     24  O   UNL     1     110.591 129.982 135.257  0.00  0.00    +0.000 OA
ATOM     25  C   UNL     1     110.449 129.391 134.699  0.00  0.00    +0.000 C 
ENDBRANCH   2  24
BRANCH   1  26
ATOM     26  O   UNL     1     110.829 131.134 136.413  0.00  0.00    +0.000 OA
BRANCH  26  35
ATOM     27  O   UNL     1     110.007 130.886 137.555  0.00  0.00    +0.000 OA
ATOM     28  O   UNL     1     110.308 133.233 138.282  0.00  0.00    +0.000 OA
ATOM     29  O   UNL     1     109.386 132.203 139.181  0.00  0.00    +0.000 OA
ATOM     30  O   UNL     1     111.029 132.699 136.898  0.00  0.00    +0.000 OA
ATOM     31  C   UNL     1     110.207 132.451 138.040  0.00  0.00    +0.000 C 
ATOM     32  C   UNL     1     109.746 131.935 138.489  0.00  0.00    +0.000 C 
ATOM     33  C   UNL     1     109.646 131.153 138.247  0.00  0.00    +0.000 C 
ATOM     34  C   UNL     1     110.569 132.183 137.347  0.00  0.00    +0.000 C 
ATOM     35  C   UNL     1     110.468 131.401 137.105  0.00  0.00    +0.000 C 
BRANCH  33  37
ATOM     36  O   UNL     1     108.645 130.136 138.326  0.00  0.00    +0.000 OA
ATOM     37  C   UNL     1     109.185 130.638 138.697  0.00  0.00    +0.000 C 
ENDBRANCH  33  37
ENDBRANCH  26  35
ENDBRANCH   1  26
TORSDOF 7
ENDMDL
MODEL 10
REMARK VINA RESULT:      -8.4      1.490      6.263
REMARK  Name = 73829938
REMARK  7 active torsions:
REMARK  status: ('A' for Active; 'I' for Inactive)
REMARK    1  A    between atoms: O_2  and  C_18
REMARK    2  A    between atoms: O_2  and  C_20
REMARK    3  A    between atoms: O_7  and  C_21
REMARK    4  A    between atoms: O_9  and  C_31
REMARK    5  A    between atoms: O_10  and  C_33
REMARK    6  A    between atoms: C_16  and  C_19
REMARK    7  A    between atoms: C_23  and  C_26
REMARK                            x       y       z     vdW  Elec       q    Type
REMARK                         _______ _______ _______ _____ _____    ______ ____
ROOT
ATOM      1  C   UNL     1     111.097 130.711 137.846  0.00  0.00    +0.000 A 
ATOM      2  C   UNL     1     111.863 130.629 137.553  0.00  0.00    +0.000 A 
ATOM      3  C   UNL     1     110.725 130.070 138.212  0.00  0.00    +0.000 A 
ATOM      4  C   UNL     1     111.886 129.268 137.988  0.00  0.00    +0.000 A 
ATOM      5  C   UNL     1     112.258 129.907 137.624  0.00  0.00    +0.000 A 
ATOM      6  C   UNL     1     111.119 129.349 138.282  0.00  0.00    +0.000 A 
ENDROOT
BRANCH   4  11
ATOM      7  O   UNL     1     112.259 127.977 137.416  0.00  0.00    +0.000 OA
ATOM      8  O   UNL     1     113.902 126.150 138.944  0.00  0.00    +0.000 OA
ATOM      9  O   UNL     1     113.544 127.421 139.525  0.00  0.00    +0.000 OA
ATOM     10  O   UNL     1     113.017 125.421 136.326  0.00  0.00    +0.000 OA
ATOM     11  C   UNL     1     112.280 128.547 138.059  0.00  0.00    +0.000 A 
ATOM     12  C   UNL     1     112.673 127.229 137.499  0.00  0.00    +0.000 A 
ATOM     13  C   UNL     1     113.091 127.050 138.187  0.00  0.00    +0.000 A 
ATOM     14  C   UNL     1     112.716 128.361 138.775  0.00  0.00    +0.000 A 
ATOM     15  C   UNL     1     113.124 127.607 138.840  0.00  0.00    +0.000 A 
ATOM     16  C   UNL     1     112.648 126.685 136.878  0.00  0.00    +0.000 A 
ATOM     17  C   UNL     1     113.484 126.328 138.255  0.00  0.00    +0.000 A 
ATOM     18  C   UNL     1     113.460 125.785 137.635  0.00  0.00    +0.000 A 
ATOM     19  C   UNL     1     113.042 125.963 136.946  0.00  0.00    +0.000 A 
BRANCH  16  20
ATOM     20  O   UNL     1     112.230 126.865 136.190  0.00  0.00    +0.000 OA
ATOM     21  C   UNL     1     111.596 126.390 135.958  0.00  0.00    +0.000 C 
ENDBRANCH  16  20
BRANCH  18  22
ATOM     22  O   UNL     1     113.854 125.063 137.703  0.00  0.00    +0.000 OA
ATOM     23  C   UNL     1     114.621 124.982 137.410  0.00  0.00    +0.000 C 
ENDBRANCH  18  22
ENDBRANCH   4  11
BRANCH   2  24
ATOM     24  O   UNL     1     112.235 131.269 137.188  0.00  0.00    +0.000 OA
ATOM     25  C   UNL     1     113.044 131.239 137.028  0.00  0.00    +0.000 C 
ENDBRANCH   2  24
BRANCH   1  26
ATOM     26  O   UNL     1     110.702 131.432 137.776  0.00  0.00    +0.000 OA
BRANCH  26  35
ATOM     27  O   UNL     1     109.728 131.097 136.785  0.00  0.00    +0.000 OA
ATOM     28  O   UNL     1     107.977 132.214 138.132  0.00  0.00    +0.000 OA
ATOM     29  O   UNL     1     107.586 131.508 136.694  0.00  0.00    +0.000 OA
ATOM     30  O   UNL     1     109.535 132.176 138.673  0.00  0.00    +0.000 OA
ATOM     31  C   UNL     1     108.560 131.842 137.683  0.00  0.00    +0.000 C 
ATOM     32  C   UNL     1     108.365 131.488 136.964  0.00  0.00    +0.000 C 
ATOM     33  C   UNL     1     108.949 131.116 136.515  0.00  0.00    +0.000 C 
ATOM     34  C   UNL     1     109.340 131.823 137.954  0.00  0.00    +0.000 C 
ATOM     35  C   UNL     1     109.924 131.450 137.505  0.00  0.00    +0.000 C 
BRANCH  33  37
ATOM     36  O   UNL     1     109.245 130.862 135.140  0.00  0.00    +0.000 OA
ATOM     37  C   UNL     1     108.754 130.763 135.796  0.00  0.00    +0.000 C 
ENDBRANCH  33  37
ENDBRANCH  26  35
ENDBRANCH   1  26
TORSDOF 7
ENDMDL
