MODEL 1
REMARK VINA RESULT:      -9.9      0.000      0.000
REMARK  Name = 10769313
REMARK  7 active torsions:
REMARK  status: ('A' for Active; 'I' for Inactive)
REMARK    1  A    between atoms: O_2  and  C_15
REMARK    2  A    between atoms: O_2  and  C_20
REMARK    3  A    between atoms: O_3  and  C_17
REMARK    4  A    between atoms: O_3  and  C_19
REMARK    5  A    between atoms: O_9  and  C_27
REMARK    6  A    between atoms: C_20  and  C_23
REMARK    7  A    between atoms: C_30  and  C_34
REMARK                            x       y       z     vdW  Elec       q    Type
REMARK                         _______ _______ _______ _____ _____    ______ ____
ROOT
ATOM      1  O   UNL     1     112.270 129.147 137.373  0.00  0.00    +0.000 OA
ENDROOT
BRANCH   1   6
ATOM      2  O   UNL     1     110.044 130.854 136.589  0.00  0.00    +0.000 OA
ATOM      3  O   UNL     1     111.523 131.457 138.996  0.00  0.00    +0.000 OA
ATOM      4  O   UNL     1     110.415 132.280 138.577  0.00  0.00    +0.000 OA
ATOM      5  O   UNL     1     109.197 132.636 137.521  0.00  0.00    +0.000 OA
ATOM      6  C   UNL     1     111.786 129.801 137.511  0.00  0.00    +0.000 A 
ATOM      7  C   UNL     1     111.151 129.992 136.965  0.00  0.00    +0.000 A 
ATOM      8  C   UNL     1     111.915 130.297 138.201  0.00  0.00    +0.000 A 
ATOM      9  C   UNL     1     110.652 130.676 137.116  0.00  0.00    +0.000 A 
ATOM     10  C   UNL     1     110.776 131.151 137.779  0.00  0.00    +0.000 A 
ATOM     11  C   UNL     1     111.407 130.976 138.336  0.00  0.00    +0.000 A 
ATOM     12  C   UNL     1     110.291 131.804 137.914  0.00  0.00    +0.000 A 
ATOM     13  C   UNL     1     109.559 131.507 136.723  0.00  0.00    +0.000 A 
ATOM     14  C   UNL     1     109.682 131.983 137.386  0.00  0.00    +0.000 A 
BRANCH  13  16
ATOM     15  O   UNL     1     107.124 132.220 134.612  0.00  0.00    +0.000 OA
ATOM     16  C   UNL     1     108.950 131.685 136.195  0.00  0.00    +0.000 A 
ATOM     17  C   UNL     1     108.182 131.428 136.350  0.00  0.00    +0.000 A 
ATOM     18  C   UNL     1     109.110 132.120 135.513  0.00  0.00    +0.000 A 
ATOM     19  C   UNL     1     107.573 131.606 135.822  0.00  0.00    +0.000 A 
ATOM     20  C   UNL     1     108.502 132.299 134.985  0.00  0.00    +0.000 A 
ATOM     21  C   UNL     1     107.733 132.042 135.140  0.00  0.00    +0.000 A 
ENDBRANCH  13  16
ENDBRANCH   1   6
BRANCH   1  29
ATOM     22  O   UNL     1     113.371 129.894 136.852  0.00  0.00    +0.000 OA
ATOM     23  O   UNL     1     113.918 128.025 135.325  0.00  0.00    +0.000 OA
ATOM     24  O   UNL     1     114.836 129.396 135.314  0.00  0.00    +0.000 OA
ATOM     25  C   UNL     1     113.735 128.648 135.834  0.00  0.00    +0.000 C 
ATOM     26  C   UNL     1     114.194 129.333 135.828  0.00  0.00    +0.000 C 
ATOM     27  C   UNL     1     113.094 128.586 136.349  0.00  0.00    +0.000 C 
ATOM     28  C   UNL     1     114.012 129.956 136.337  0.00  0.00    +0.000 C 
ATOM     29  C   UNL     1     112.912 129.209 136.858  0.00  0.00    +0.000 C 
ATOM     30  C   UNL     1     114.472 130.642 136.332  0.00  0.00    +0.000 C 
BRANCH  27  31
ATOM     31  O   UNL     1     112.634 127.901 136.355  0.00  0.00    +0.000 OA
BRANCH  31  33
ATOM     32  O   UNL     1     113.662 127.220 137.077  0.00  0.00    +0.000 OA
ATOM     33  C   UNL     1     112.916 127.219 136.724  0.00  0.00    +0.000 C 
BRANCH  33  34
ATOM     34  C   UNL     1     112.453 126.537 136.740  0.00  0.00    +0.000 A 
ATOM     35  C   UNL     1     112.363 126.116 137.445  0.00  0.00    +0.000 A 
ATOM     36  C   UNL     1     112.078 126.276 136.053  0.00  0.00    +0.000 A 
ATOM     37  C   UNL     1     111.899 125.433 137.460  0.00  0.00    +0.000 A 
ATOM     38  C   UNL     1     111.614 125.595 136.069  0.00  0.00    +0.000 A 
ATOM     39  C   UNL     1     111.525 125.173 136.774  0.00  0.00    +0.000 A 
BRANCH  35  40
ATOM     40  O   UNL     1     112.738 126.376 138.131  0.00  0.00    +0.000 OA
ATOM     41  C   UNL     1     112.551 126.033 138.858  0.00  0.00    +0.000 C 
ENDBRANCH  35  40
ENDBRANCH  33  34
ENDBRANCH  31  33
ENDBRANCH  27  31
ENDBRANCH   1  29
TORSDOF 7
ENDMDL
MODEL 2
REMARK VINA RESULT:      -9.9      3.444      5.228
REMARK  Name = 10769313
REMARK  7 active torsions:
REMARK  status: ('A' for Active; 'I' for Inactive)
REMARK    1  A    between atoms: O_2  and  C_15
REMARK    2  A    between atoms: O_2  and  C_20
REMARK    3  A    between atoms: O_3  and  C_17
REMARK    4  A    between atoms: O_3  and  C_19
REMARK    5  A    between atoms: O_9  and  C_27
REMARK    6  A    between atoms: C_20  and  C_23
REMARK    7  A    between atoms: C_30  and  C_34
REMARK                            x       y       z     vdW  Elec       q    Type
REMARK                         _______ _______ _______ _____ _____    ______ ____
ROOT
ATOM      1  O   UNL     1     112.247 126.581 137.804  0.00  0.00    +0.000 OA
ENDROOT
BRANCH   1   6
ATOM      2  O   UNL     1     113.264 128.518 139.726  0.00  0.00    +0.000 OA
ATOM      3  O   UNL     1     111.721 126.261 140.659  0.00  0.00    +0.000 OA
ATOM      4  O   UNL     1     112.241 127.241 141.581  0.00  0.00    +0.000 OA
ATOM      5  O   UNL     1     113.086 128.623 141.898  0.00  0.00    +0.000 OA
ATOM      6  C   UNL     1     112.327 126.843 138.582  0.00  0.00    +0.000 A 
ATOM      7  C   UNL     1     112.765 127.562 138.754  0.00  0.00    +0.000 A 
ATOM      8  C   UNL     1     111.971 126.399 139.227  0.00  0.00    +0.000 A 
ATOM      9  C   UNL     1     112.843 127.828 139.567  0.00  0.00    +0.000 A 
ATOM     10  C   UNL     1     112.501 127.402 140.186  0.00  0.00    +0.000 A 
ATOM     11  C   UNL     1     112.059 126.680 140.034  0.00  0.00    +0.000 A 
ATOM     12  C   UNL     1     112.582 127.667 140.963  0.00  0.00    +0.000 A 
ATOM     13  C   UNL     1     113.346 128.783 140.502  0.00  0.00    +0.000 A 
ATOM     14  C   UNL     1     113.005 128.358 141.121  0.00  0.00    +0.000 A 
BRANCH  13  16
ATOM     15  O   UNL     1     115.035 131.547 141.136  0.00  0.00    +0.000 OA
ATOM     16  C   UNL     1     113.768 129.474 140.660  0.00  0.00    +0.000 A 
ATOM     17  C   UNL     1     113.368 130.158 140.891  0.00  0.00    +0.000 A 
ATOM     18  C   UNL     1     114.590 129.481 140.588  0.00  0.00    +0.000 A 
ATOM     19  C   UNL     1     113.791 130.849 141.050  0.00  0.00    +0.000 A 
ATOM     20  C   UNL     1     115.012 130.172 140.746  0.00  0.00    +0.000 A 
ATOM     21  C   UNL     1     114.612 130.856 140.978  0.00  0.00    +0.000 A 
ENDBRANCH  13  16
ENDBRANCH   1   6
BRANCH   1  29
ATOM     22  O   UNL     1     113.477 125.856 137.866  0.00  0.00    +0.000 OA
ATOM     23  O   UNL     1     112.748 124.456 135.960  0.00  0.00    +0.000 OA
ATOM     24  O   UNL     1     114.221 124.198 136.657  0.00  0.00    +0.000 OA
ATOM     25  C   UNL     1     112.991 124.922 136.595  0.00  0.00    +0.000 C 
ATOM     26  C   UNL     1     113.727 124.794 136.943  0.00  0.00    +0.000 C 
ATOM     27  C   UNL     1     112.498 125.518 136.882  0.00  0.00    +0.000 C 
ATOM     28  C   UNL     1     113.970 125.260 137.579  0.00  0.00    +0.000 C 
ATOM     29  C   UNL     1     112.741 125.984 137.517  0.00  0.00    +0.000 C 
ATOM     30  C   UNL     1     114.707 125.131 137.928  0.00  0.00    +0.000 C 
BRANCH  27  31
ATOM     31  O   UNL     1     111.761 125.647 136.533  0.00  0.00    +0.000 OA
BRANCH  31  33
ATOM     32  O   UNL     1     112.391 126.369 135.473  0.00  0.00    +0.000 OA
ATOM     33  C   UNL     1     111.709 126.060 135.821  0.00  0.00    +0.000 C 
BRANCH  33  34
ATOM     34  C   UNL     1     110.977 126.165 135.458  0.00  0.00    +0.000 A 
ATOM     35  C   UNL     1     110.768 126.904 135.154  0.00  0.00    +0.000 A 
ATOM     36  C   UNL     1     110.451 125.531 135.398  0.00  0.00    +0.000 A 
ATOM     37  C   UNL     1     110.034 127.007 134.790  0.00  0.00    +0.000 A 
ATOM     38  C   UNL     1     109.718 125.635 135.035  0.00  0.00    +0.000 A 
ATOM     39  C   UNL     1     109.510 126.374 134.730  0.00  0.00    +0.000 A 
BRANCH  35  40
ATOM     40  O   UNL     1     111.293 127.537 135.213  0.00  0.00    +0.000 OA
ATOM     41  C   UNL     1     111.064 128.287 134.956  0.00  0.00    +0.000 C 
ENDBRANCH  35  40
ENDBRANCH  33  34
ENDBRANCH  31  33
ENDBRANCH  27  31
ENDBRANCH   1  29
TORSDOF 7
ENDMDL
MODEL 3
REMARK VINA RESULT:      -9.9      1.593      2.875
REMARK  Name = 10769313
REMARK  7 active torsions:
REMARK  status: ('A' for Active; 'I' for Inactive)
REMARK    1  A    between atoms: O_2  and  C_15
REMARK    2  A    between atoms: O_2  and  C_20
REMARK    3  A    between atoms: O_3  and  C_17
REMARK    4  A    between atoms: O_3  and  C_19
REMARK    5  A    between atoms: O_9  and  C_27
REMARK    6  A    between atoms: C_20  and  C_23
REMARK    7  A    between atoms: C_30  and  C_34
REMARK                            x       y       z     vdW  Elec       q    Type
REMARK                         _______ _______ _______ _____ _____    ______ ____
ROOT
ATOM      1  O   UNL     1     111.807 127.959 138.057  0.00  0.00    +0.000 OA
ENDROOT
BRANCH   1   6
ATOM      2  O   UNL     1     110.236 130.110 136.879  0.00  0.00    +0.000 OA
ATOM      3  O   UNL     1     112.805 130.703 138.061  0.00  0.00    +0.000 OA
ATOM      4  O   UNL     1     111.999 131.743 137.468  0.00  0.00    +0.000 OA
ATOM      5  O   UNL     1     110.633 132.248 136.691  0.00  0.00    +0.000 OA
ATOM      6  C   UNL     1     111.715 128.756 137.866  0.00  0.00    +0.000 A 
ATOM      7  C   UNL     1     111.006 129.025 137.462  0.00  0.00    +0.000 A 
ATOM      8  C   UNL     1     112.327 129.324 138.071  0.00  0.00    +0.000 A 
ATOM      9  C   UNL     1     110.918 129.857 137.267  0.00  0.00    +0.000 A 
ATOM     10  C   UNL     1     111.506 130.402 137.463  0.00  0.00    +0.000 A 
ATOM     11  C   UNL     1     112.222 130.152 137.868  0.00  0.00    +0.000 A 
ATOM     12  C   UNL     1     111.411 131.198 137.271  0.00  0.00    +0.000 A 
ATOM     13  C   UNL     1     110.140 130.905 136.687  0.00  0.00    +0.000 A 
ATOM     14  C   UNL     1     110.728 131.451 136.883  0.00  0.00    +0.000 A 
BRANCH  13  16
ATOM     15  O   UNL     1     107.409 131.915 135.134  0.00  0.00    +0.000 OA
ATOM     16  C   UNL     1     109.457 131.158 136.299  0.00  0.00    +0.000 A 
ATOM     17  C   UNL     1     109.426 131.154 135.474  0.00  0.00    +0.000 A 
ATOM     18  C   UNL     1     108.806 131.414 136.735  0.00  0.00    +0.000 A 
ATOM     19  C   UNL     1     108.744 131.406 135.086  0.00  0.00    +0.000 A 
ATOM     20  C   UNL     1     108.123 131.666 136.346  0.00  0.00    +0.000 A 
ATOM     21  C   UNL     1     108.092 131.662 135.522  0.00  0.00    +0.000 A 
ENDBRANCH  13  16
ENDBRANCH   1   6
BRANCH   1  29
ATOM     22  O   UNL     1     111.088 128.066 139.287  0.00  0.00    +0.000 OA
ATOM     23  O   UNL     1     112.405 126.191 140.221  0.00  0.00    +0.000 OA
ATOM     24  O   UNL     1     111.246 126.923 141.140  0.00  0.00    +0.000 OA
ATOM     25  C   UNL     1     111.966 126.816 139.910  0.00  0.00    +0.000 C 
ATOM     26  C   UNL     1     111.387 127.182 140.369  0.00  0.00    +0.000 C 
ATOM     27  C   UNL     1     112.106 127.074 139.139  0.00  0.00    +0.000 C 
ATOM     28  C   UNL     1     110.948 127.807 140.057  0.00  0.00    +0.000 C 
ATOM     29  C   UNL     1     111.667 127.699 138.828  0.00  0.00    +0.000 C 
ATOM     30  C   UNL     1     110.368 128.174 140.517  0.00  0.00    +0.000 C 
BRANCH  27  31
ATOM     31  O   UNL     1     112.685 126.708 138.679  0.00  0.00    +0.000 OA
BRANCH  31  33
ATOM     32  O   UNL     1     111.824 125.583 138.494  0.00  0.00    +0.000 OA
ATOM     33  C   UNL     1     112.540 125.967 138.348  0.00  0.00    +0.000 C 
BRANCH  33  34
ATOM     34  C   UNL     1     113.110 125.611 137.870  0.00  0.00    +0.000 A 
ATOM     35  C   UNL     1     112.882 125.210 137.185  0.00  0.00    +0.000 A 
ATOM     36  C   UNL     1     113.907 125.653 138.077  0.00  0.00    +0.000 A 
ATOM     37  C   UNL     1     113.453 124.854 136.707  0.00  0.00    +0.000 A 
ATOM     38  C   UNL     1     114.477 125.297 137.600  0.00  0.00    +0.000 A 
ATOM     39  C   UNL     1     114.250 124.896 136.914  0.00  0.00    +0.000 A 
BRANCH  35  40
ATOM     40  O   UNL     1     112.085 125.168 136.978  0.00  0.00    +0.000 OA
ATOM     41  C   UNL     1     111.862 124.802 136.273  0.00  0.00    +0.000 C 
ENDBRANCH  35  40
ENDBRANCH  33  34
ENDBRANCH  31  33
ENDBRANCH  27  31
ENDBRANCH   1  29
TORSDOF 7
ENDMDL
MODEL 4
REMARK VINA RESULT:      -9.8      7.960      9.262
REMARK  Name = 10769313
REMARK  7 active torsions:
REMARK  status: ('A' for Active; 'I' for Inactive)
REMARK    1  A    between atoms: O_2  and  C_15
REMARK    2  A    between atoms: O_2  and  C_20
REMARK    3  A    between atoms: O_3  and  C_17
REMARK    4  A    between atoms: O_3  and  C_19
REMARK    5  A    between atoms: O_9  and  C_27
REMARK    6  A    between atoms: C_20  and  C_23
REMARK    7  A    between atoms: C_30  and  C_34
REMARK                            x       y       z     vdW  Elec       q    Type
REMARK                         _______ _______ _______ _____ _____    ______ ____
ROOT
ATOM      1  O   UNL     1     105.276 128.189 142.981  0.00  0.00    +0.000 OA
ENDROOT
BRANCH   1   6
ATOM      2  O   UNL     1     103.332 130.149 142.055  0.00  0.00    +0.000 OA
ATOM      3  O   UNL     1     103.903 127.831 140.428  0.00  0.00    +0.000 OA
ATOM      4  O   UNL     1     102.947 128.824 140.002  0.00  0.00    +0.000 OA
ATOM      5  O   UNL     1     102.122 130.233 140.240  0.00  0.00    +0.000 OA
ATOM      6  C   UNL     1     104.736 128.449 142.414  0.00  0.00    +0.000 A 
ATOM      7  C   UNL     1     104.304 129.182 142.532  0.00  0.00    +0.000 A 
ATOM      8  C   UNL     1     104.602 127.988 141.700  0.00  0.00    +0.000 A 
ATOM      9  C   UNL     1     103.743 129.445 141.936  0.00  0.00    +0.000 A 
ATOM     10  C   UNL     1     103.615 129.003 141.252  0.00  0.00    +0.000 A 
ATOM     11  C   UNL     1     104.038 128.267 141.115  0.00  0.00    +0.000 A 
ATOM     12  C   UNL     1     103.075 129.266 140.686  0.00  0.00    +0.000 A 
ATOM     13  C   UNL     1     102.792 130.412 141.490  0.00  0.00    +0.000 A 
ATOM     14  C   UNL     1     102.663 129.971 140.805  0.00  0.00    +0.000 A 
BRANCH  13  16
ATOM     15  O   UNL     1     101.143 133.232 141.967  0.00  0.00    +0.000 OA
ATOM     16  C   UNL     1     102.380 131.117 141.609  0.00  0.00    +0.000 A 
ATOM     17  C   UNL     1     101.642 131.107 141.979  0.00  0.00    +0.000 A 
ATOM     18  C   UNL     1     102.705 131.833 141.359  0.00  0.00    +0.000 A 
ATOM     19  C   UNL     1     101.230 131.811 142.098  0.00  0.00    +0.000 A 
ATOM     20  C   UNL     1     102.293 132.538 141.479  0.00  0.00    +0.000 A 
ATOM     21  C   UNL     1     101.555 132.527 141.848  0.00  0.00    +0.000 A 
ENDBRANCH  13  16
ENDBRANCH   1   6
BRANCH   1  29
ATOM     22  O   UNL     1     106.421 128.828 142.413  0.00  0.00    +0.000 OA
ATOM     23  O   UNL     1     107.832 126.917 143.108  0.00  0.00    +0.000 OA
ATOM     24  O   UNL     1     108.507 128.194 142.309  0.00  0.00    +0.000 OA
ATOM     25  C   UNL     1     107.362 127.554 142.876  0.00  0.00    +0.000 C 
ATOM     26  C   UNL     1     107.699 128.192 142.477  0.00  0.00    +0.000 C 
ATOM     27  C   UNL     1     106.555 127.553 143.044  0.00  0.00    +0.000 C 
ATOM     28  C   UNL     1     107.228 128.829 142.246  0.00  0.00    +0.000 C 
ATOM     29  C   UNL     1     106.084 128.190 142.813  0.00  0.00    +0.000 C 
ATOM     30  C   UNL     1     107.566 129.468 141.846  0.00  0.00    +0.000 C 
BRANCH  27  31
ATOM     31  O   UNL     1     106.217 126.915 143.444  0.00  0.00    +0.000 OA
BRANCH  31  33
ATOM     32  O   UNL     1     106.838 127.346 144.656  0.00  0.00    +0.000 OA
ATOM     33  C   UNL     1     106.344 126.821 144.253  0.00  0.00    +0.000 C 
BRANCH  33  34
ATOM     34  C   UNL     1     105.979 126.204 144.660  0.00  0.00    +0.000 A 
ATOM     35  C   UNL     1     105.609 126.349 145.384  0.00  0.00    +0.000 A 
ATOM     36  C   UNL     1     105.982 125.442 144.344  0.00  0.00    +0.000 A 
ATOM     37  C   UNL     1     105.243 125.731 145.790  0.00  0.00    +0.000 A 
ATOM     38  C   UNL     1     105.617 124.825 144.750  0.00  0.00    +0.000 A 
ATOM     39  C   UNL     1     105.247 124.969 145.474  0.00  0.00    +0.000 A 
BRANCH  35  40
ATOM     40  O   UNL     1     105.605 127.110 145.700  0.00  0.00    +0.000 OA
ATOM     41  C   UNL     1     105.192 127.265 146.397  0.00  0.00    +0.000 C 
ENDBRANCH  35  40
ENDBRANCH  33  34
ENDBRANCH  31  33
ENDBRANCH  27  31
ENDBRANCH   1  29
TORSDOF 7
ENDMDL
MODEL 5
REMARK VINA RESULT:      -9.8      2.351      3.671
REMARK  Name = 10769313
REMARK  7 active torsions:
REMARK  status: ('A' for Active; 'I' for Inactive)
REMARK    1  A    between atoms: O_2  and  C_15
REMARK    2  A    between atoms: O_2  and  C_20
REMARK    3  A    between atoms: O_3  and  C_17
REMARK    4  A    between atoms: O_3  and  C_19
REMARK    5  A    between atoms: O_9  and  C_27
REMARK    6  A    between atoms: C_20  and  C_23
REMARK    7  A    between atoms: C_30  and  C_34
REMARK                            x       y       z     vdW  Elec       q    Type
REMARK                         _______ _______ _______ _____ _____    ______ ____
ROOT
ATOM      1  O   UNL     1     110.703 127.026 137.544  0.00  0.00    +0.000 OA
ENDROOT
BRANCH   1   6
ATOM      2  O   UNL     1     110.141 129.849 137.101  0.00  0.00    +0.000 OA
ATOM      3  O   UNL     1     108.405 127.852 135.942  0.00  0.00    +0.000 OA
ATOM      4  O   UNL     1     108.158 129.260 135.744  0.00  0.00    +0.000 OA
ATOM      5  O   UNL     1     108.551 130.844 135.984  0.00  0.00    +0.000 OA
ATOM      6  C   UNL     1     110.236 127.620 137.211  0.00  0.00    +0.000 A 
ATOM      7  C   UNL     1     110.436 128.446 137.332  0.00  0.00    +0.000 A 
ATOM      8  C   UNL     1     109.547 127.415 136.739  0.00  0.00    +0.000 A 
ATOM      9  C   UNL     1     109.945 129.058 136.981  0.00  0.00    +0.000 A 
ATOM     10  C   UNL     1     109.284 128.861 136.529  0.00  0.00    +0.000 A 
ATOM     11  C   UNL     1     109.068 128.040 136.396  0.00  0.00    +0.000 A 
ATOM     12  C   UNL     1     108.819 129.456 136.196  0.00  0.00    +0.000 A 
ATOM     13  C   UNL     1     109.677 130.445 136.770  0.00  0.00    +0.000 A 
ATOM     14  C   UNL     1     109.016 130.249 136.317  0.00  0.00    +0.000 A 
BRANCH  13  16
ATOM     15  O   UNL     1     110.464 133.614 137.251  0.00  0.00    +0.000 OA
ATOM     16  C   UNL     1     109.874 131.237 136.890  0.00  0.00    +0.000 A 
ATOM     17  C   UNL     1     110.389 131.618 136.370  0.00  0.00    +0.000 A 
ATOM     18  C   UNL     1     109.556 131.648 137.530  0.00  0.00    +0.000 A 
ATOM     19  C   UNL     1     110.585 132.410 136.490  0.00  0.00    +0.000 A 
ATOM     20  C   UNL     1     109.752 132.441 137.651  0.00  0.00    +0.000 A 
ATOM     21  C   UNL     1     110.267 132.822 137.131  0.00  0.00    +0.000 A 
ENDBRANCH  13  16
ENDBRANCH   1   6
BRANCH   1  29
ATOM     22  O   UNL     1     110.023 127.108 138.799  0.00  0.00    +0.000 OA
ATOM     23  O   UNL     1     111.988 126.114 139.928  0.00  0.00    +0.000 OA
ATOM     24  O   UNL     1     110.653 126.527 140.806  0.00  0.00    +0.000 OA
ATOM     25  C   UNL     1     111.333 126.445 139.552  0.00  0.00    +0.000 C 
ATOM     26  C   UNL     1     110.666 126.651 139.991  0.00  0.00    +0.000 C 
ATOM     27  C   UNL     1     111.346 126.570 138.737  0.00  0.00    +0.000 C 
ATOM     28  C   UNL     1     110.011 126.983 139.614  0.00  0.00    +0.000 C 
ATOM     29  C   UNL     1     110.690 126.901 138.361  0.00  0.00    +0.000 C 
ATOM     30  C   UNL     1     109.343 127.189 140.053  0.00  0.00    +0.000 C 
BRANCH  27  31
ATOM     31  O   UNL     1     112.013 126.364 138.298  0.00  0.00    +0.000 OA
BRANCH  31  33
ATOM     32  O   UNL     1     111.630 124.989 138.365  0.00  0.00    +0.000 OA
ATOM     33  C   UNL     1     112.154 125.573 138.110  0.00  0.00    +0.000 C 
BRANCH  33  34
ATOM     34  C   UNL     1     112.818 125.367 137.667  0.00  0.00    +0.000 A 
ATOM     35  C   UNL     1     112.761 124.786 137.082  0.00  0.00    +0.000 A 
ATOM     36  C   UNL     1     113.541 125.740 137.807  0.00  0.00    +0.000 A 
ATOM     37  C   UNL     1     113.426 124.580 136.639  0.00  0.00    +0.000 A 
ATOM     38  C   UNL     1     114.205 125.534 137.365  0.00  0.00    +0.000 A 
ATOM     39  C   UNL     1     114.147 124.953 136.780  0.00  0.00    +0.000 A 
BRANCH  35  40
ATOM     40  O   UNL     1     112.039 124.413 136.941  0.00  0.00    +0.000 OA
ATOM     41  C   UNL     1     111.968 123.873 136.322  0.00  0.00    +0.000 C 
ENDBRANCH  35  40
ENDBRANCH  33  34
ENDBRANCH  31  33
ENDBRANCH  27  31
ENDBRANCH   1  29
TORSDOF 7
ENDMDL
MODEL 6
REMARK VINA RESULT:      -9.7      9.315     11.340
REMARK  Name = 10769313
REMARK  7 active torsions:
REMARK  status: ('A' for Active; 'I' for Inactive)
REMARK    1  A    between atoms: O_2  and  C_15
REMARK    2  A    between atoms: O_2  and  C_20
REMARK    3  A    between atoms: O_3  and  C_17
REMARK    4  A    between atoms: O_3  and  C_19
REMARK    5  A    between atoms: O_9  and  C_27
REMARK    6  A    between atoms: C_20  and  C_23
REMARK    7  A    between atoms: C_30  and  C_34
REMARK                            x       y       z     vdW  Elec       q    Type
REMARK                         _______ _______ _______ _____ _____    ______ ____
ROOT
ATOM      1  O   UNL     1     105.876 126.916 143.586  0.00  0.00    +0.000 OA
ENDROOT
BRANCH   1   6
ATOM      2  O   UNL     1     104.545 125.031 145.363  0.00  0.00    +0.000 OA
ATOM      3  O   UNL     1     107.252 125.862 145.937  0.00  0.00    +0.000 OA
ATOM      4  O   UNL     1     106.561 124.930 146.794  0.00  0.00    +0.000 OA
ATOM      5  O   UNL     1     105.228 124.039 147.183  0.00  0.00    +0.000 OA
ATOM      6  C   UNL     1     105.884 126.438 144.258  0.00  0.00    +0.000 A 
ATOM      7  C   UNL     1     105.194 125.971 144.467  0.00  0.00    +0.000 A 
ATOM      8  C   UNL     1     106.585 126.403 144.756  0.00  0.00    +0.000 A 
ATOM      9  C   UNL     1     105.211 125.476 145.168  0.00  0.00    +0.000 A 
ATOM     10  C   UNL     1     105.883 125.443 145.645  0.00  0.00    +0.000 A 
ATOM     11  C   UNL     1     106.584 125.902 145.454  0.00  0.00    +0.000 A 
ATOM     12  C   UNL     1     105.889 124.964 146.317  0.00  0.00    +0.000 A 
ATOM     13  C   UNL     1     104.550 124.552 146.034  0.00  0.00    +0.000 A 
ATOM     14  C   UNL     1     105.222 124.518 146.512  0.00  0.00    +0.000 A 
BRANCH  13  16
ATOM     15  O   UNL     1     101.883 122.770 146.812  0.00  0.00    +0.000 OA
ATOM     16  C   UNL     1     103.883 124.107 146.228  0.00  0.00    +0.000 A 
ATOM     17  C   UNL     1     103.785 123.351 145.911  0.00  0.00    +0.000 A 
ATOM     18  C   UNL     1     103.315 124.416 146.740  0.00  0.00    +0.000 A 
ATOM     19  C   UNL     1     103.118 122.906 146.106  0.00  0.00    +0.000 A 
ATOM     20  C   UNL     1     102.648 123.971 146.935  0.00  0.00    +0.000 A 
ATOM     21  C   UNL     1     102.550 123.215 146.618  0.00  0.00    +0.000 A 
ENDBRANCH  13  16
ENDBRANCH   1   6
BRANCH   1  29
ATOM     22  O   UNL     1     106.406 125.922 142.707  0.00  0.00    +0.000 OA
ATOM     23  O   UNL     1     105.066 126.853 140.846  0.00  0.00    +0.000 OA
ATOM     24  O   UNL     1     106.043 125.549 140.587  0.00  0.00    +0.000 OA
ATOM     25  C   UNL     1     105.513 126.543 141.466  0.00  0.00    +0.000 C 
ATOM     26  C   UNL     1     106.001 125.891 141.337  0.00  0.00    +0.000 C 
ATOM     27  C   UNL     1     105.471 126.884 142.215  0.00  0.00    +0.000 C 
ATOM     28  C   UNL     1     106.448 125.581 141.957  0.00  0.00    +0.000 C 
ATOM     29  C   UNL     1     105.918 126.574 142.836  0.00  0.00    +0.000 C 
ATOM     30  C   UNL     1     106.937 124.928 141.827  0.00  0.00    +0.000 C 
BRANCH  27  31
ATOM     31  O   UNL     1     104.982 127.537 142.346  0.00  0.00    +0.000 OA
BRANCH  31  33
ATOM     32  O   UNL     1     105.922 128.374 141.669  0.00  0.00    +0.000 OA
ATOM     33  C   UNL     1     105.200 128.278 142.058  0.00  0.00    +0.000 C 
BRANCH  33  34
ATOM     34  C   UNL     1     104.697 128.924 142.159  0.00  0.00    +0.000 A 
ATOM     35  C   UNL     1     104.977 129.612 142.520  0.00  0.00    +0.000 A 
ATOM     36  C   UNL     1     103.915 128.882 141.901  0.00  0.00    +0.000 A 
ATOM     37  C   UNL     1     104.473 130.258 142.621  0.00  0.00    +0.000 A 
ATOM     38  C   UNL     1     103.412 129.527 142.002  0.00  0.00    +0.000 A 
ATOM     39  C   UNL     1     103.691 130.216 142.362  0.00  0.00    +0.000 A 
BRANCH  35  40
ATOM     40  O   UNL     1     105.758 129.654 142.778  0.00  0.00    +0.000 OA
ATOM     41  C   UNL     1     106.026 130.327 143.174  0.00  0.00    +0.000 C 
ENDBRANCH  35  40
ENDBRANCH  33  34
ENDBRANCH  31  33
ENDBRANCH  27  31
ENDBRANCH   1  29
TORSDOF 7
ENDMDL
MODEL 7
REMARK VINA RESULT:      -9.7      9.543     10.891
REMARK  Name = 10769313
REMARK  7 active torsions:
REMARK  status: ('A' for Active; 'I' for Inactive)
REMARK    1  A    between atoms: O_2  and  C_15
REMARK    2  A    between atoms: O_2  and  C_20
REMARK    3  A    between atoms: O_3  and  C_17
REMARK    4  A    between atoms: O_3  and  C_19
REMARK    5  A    between atoms: O_9  and  C_27
REMARK    6  A    between atoms: C_20  and  C_23
REMARK    7  A    between atoms: C_30  and  C_34
REMARK                            x       y       z     vdW  Elec       q    Type
REMARK                         _______ _______ _______ _____ _____    ______ ____
ROOT
ATOM      1  O   UNL     1     105.711 125.702 144.831  0.00  0.00    +0.000 OA
ENDROOT
BRANCH   1   6
ATOM      2  O   UNL     1     104.867 127.822 143.021  0.00  0.00    +0.000 OA
ATOM      3  O   UNL     1     107.464 126.604 142.676  0.00  0.00    +0.000 OA
ATOM      4  O   UNL     1     107.012 127.657 141.799  0.00  0.00    +0.000 OA
ATOM      5  O   UNL     1     105.874 128.753 141.323  0.00  0.00    +0.000 OA
ATOM      6  C   UNL     1     105.860 126.194 144.185  0.00  0.00    +0.000 A 
ATOM      7  C   UNL     1     105.272 126.767 143.932  0.00  0.00    +0.000 A 
ATOM      8  C   UNL     1     106.605 126.137 143.760  0.00  0.00    +0.000 A 
ATOM      9  C   UNL     1     105.435 127.275 143.259  0.00  0.00    +0.000 A 
ATOM     10  C   UNL     1     106.150 127.219 142.851  0.00  0.00    +0.000 A 
ATOM     11  C   UNL     1     106.751 126.653 143.089  0.00  0.00    +0.000 A 
ATOM     12  C   UNL     1     106.296 127.712 142.206  0.00  0.00    +0.000 A 
ATOM     13  C   UNL     1     105.012 128.315 142.376  0.00  0.00    +0.000 A 
ATOM     14  C   UNL     1     105.727 128.260 141.968  0.00  0.00    +0.000 A 
BRANCH  13  16
ATOM     15  O   UNL     1     102.736 130.507 141.424  0.00  0.00    +0.000 OA
ATOM     16  C   UNL     1     104.443 128.863 142.138  0.00  0.00    +0.000 A 
ATOM     17  C   UNL     1     103.969 128.707 141.482  0.00  0.00    +0.000 A 
ATOM     18  C   UNL     1     104.348 129.567 142.557  0.00  0.00    +0.000 A 
ATOM     19  C   UNL     1     103.400 129.255 141.244  0.00  0.00    +0.000 A 
ATOM     20  C   UNL     1     103.779 130.116 142.319  0.00  0.00    +0.000 A 
ATOM     21  C   UNL     1     103.305 129.959 141.662  0.00  0.00    +0.000 A 
ENDBRANCH  13  16
ENDBRANCH   1   6
BRANCH   1  29
ATOM     22  O   UNL     1     106.529 126.412 145.763  0.00  0.00    +0.000 OA
ATOM     23  O   UNL     1     104.905 125.917 147.564  0.00  0.00    +0.000 OA
ATOM     24  O   UNL     1     106.264 126.792 147.896  0.00  0.00    +0.000 OA
ATOM     25  C   UNL     1     105.446 126.082 146.964  0.00  0.00    +0.000 C 
ATOM     26  C   UNL     1     106.125 126.519 147.130  0.00  0.00    +0.000 C 
ATOM     27  C   UNL     1     105.308 125.810 146.198  0.00  0.00    +0.000 C 
ATOM     28  C   UNL     1     106.666 126.684 146.530  0.00  0.00    +0.000 C 
ATOM     29  C   UNL     1     105.849 125.975 145.598  0.00  0.00    +0.000 C 
ATOM     30  C   UNL     1     107.346 127.122 146.696  0.00  0.00    +0.000 C 
BRANCH  27  31
ATOM     31  O   UNL     1     104.628 125.372 146.031  0.00  0.00    +0.000 OA
BRANCH  31  33
ATOM     32  O   UNL     1     105.260 124.179 146.498  0.00  0.00    +0.000 OA
ATOM     33  C   UNL     1     104.579 124.583 146.265  0.00  0.00    +0.000 C 
BRANCH  33  34
ATOM     34  C   UNL     1     103.850 124.198 146.266  0.00  0.00    +0.000 A 
ATOM     35  C   UNL     1     103.721 123.556 145.762  0.00  0.00    +0.000 A 
ATOM     36  C   UNL     1     103.249 124.453 146.771  0.00  0.00    +0.000 A 
ATOM     37  C   UNL     1     102.991 123.172 145.764  0.00  0.00    +0.000 A 
ATOM     38  C   UNL     1     102.520 124.068 146.772  0.00  0.00    +0.000 A 
ATOM     39  C   UNL     1     102.391 123.427 146.268  0.00  0.00    +0.000 A 
BRANCH  35  40
ATOM     40  O   UNL     1     104.321 123.301 145.258  0.00  0.00    +0.000 OA
ATOM     41  C   UNL     1     104.157 122.749 144.668  0.00  0.00    +0.000 C 
ENDBRANCH  35  40
ENDBRANCH  33  34
ENDBRANCH  31  33
ENDBRANCH  27  31
ENDBRANCH   1  29
TORSDOF 7
ENDMDL
MODEL 8
REMARK VINA RESULT:      -9.6      9.339     11.150
REMARK  Name = 10769313
REMARK  7 active torsions:
REMARK  status: ('A' for Active; 'I' for Inactive)
REMARK    1  A    between atoms: O_2  and  C_15
REMARK    2  A    between atoms: O_2  and  C_20
REMARK    3  A    between atoms: O_3  and  C_17
REMARK    4  A    between atoms: O_3  and  C_19
REMARK    5  A    between atoms: O_9  and  C_27
REMARK    6  A    between atoms: C_20  and  C_23
REMARK    7  A    between atoms: C_30  and  C_34
REMARK                            x       y       z     vdW  Elec       q    Type
REMARK                         _______ _______ _______ _____ _____    ______ ____
ROOT
ATOM      1  O   UNL     1     106.666 127.226 146.629  0.00  0.00    +0.000 OA
ENDROOT
BRANCH   1   6
ATOM      2  O   UNL     1     108.721 128.927 145.458  0.00  0.00    +0.000 OA
ATOM      3  O   UNL     1     106.251 130.106 146.383  0.00  0.00    +0.000 OA
ATOM      4  O   UNL     1     107.291 130.917 145.798  0.00  0.00    +0.000 OA
ATOM      5  O   UNL     1     108.781 131.080 145.109  0.00  0.00    +0.000 OA
ATOM      6  C   UNL     1     106.932 127.973 146.399  0.00  0.00    +0.000 A 
ATOM      7  C   UNL     1     107.707 128.064 146.039  0.00  0.00    +0.000 A 
ATOM      8  C   UNL     1     106.435 128.665 146.517  0.00  0.00    +0.000 A 
ATOM      9  C   UNL     1     107.976 128.845 145.803  0.00  0.00    +0.000 A 
ATOM     10  C   UNL     1     107.499 129.509 145.916  0.00  0.00    +0.000 A 
ATOM     11  C   UNL     1     106.721 129.438 146.274  0.00  0.00    +0.000 A 
ATOM     12  C   UNL     1     107.768 130.254 145.685  0.00  0.00    +0.000 A 
ATOM     13  C   UNL     1     108.989 129.671 145.227  0.00  0.00    +0.000 A 
ATOM     14  C   UNL     1     108.513 130.335 145.340  0.00  0.00    +0.000 A 
BRANCH  13  16
ATOM     15  O   UNL     1     111.970 129.997 143.849  0.00  0.00    +0.000 OA
ATOM     16  C   UNL     1     109.735 129.752 144.883  0.00  0.00    +0.000 A 
ATOM     17  C   UNL     1     110.397 129.879 145.358  0.00  0.00    +0.000 A 
ATOM     18  C   UNL     1     109.817 129.707 144.063  0.00  0.00    +0.000 A 
ATOM     19  C   UNL     1     111.142 129.960 145.013  0.00  0.00    +0.000 A 
ATOM     20  C   UNL     1     110.563 129.789 143.718  0.00  0.00    +0.000 A 
ATOM     21  C   UNL     1     111.225 129.915 144.193  0.00  0.00    +0.000 A 
ENDBRANCH  13  16
ENDBRANCH   1   6
BRANCH   1  29
ATOM     22  O   UNL     1     106.042 126.949 145.374  0.00  0.00    +0.000 OA
ATOM     23  O   UNL     1     106.412 124.527 145.725  0.00  0.00    +0.000 OA
ATOM     24  O   UNL     1     105.665 125.057 144.353  0.00  0.00    +0.000 OA
ATOM     25  C   UNL     1     106.289 125.334 145.608  0.00  0.00    +0.000 C 
ATOM     26  C   UNL     1     105.915 125.599 144.922  0.00  0.00    +0.000 C 
ATOM     27  C   UNL     1     106.539 125.876 146.177  0.00  0.00    +0.000 C 
ATOM     28  C   UNL     1     105.792 126.406 144.805  0.00  0.00    +0.000 C 
ATOM     29  C   UNL     1     106.416 126.683 146.059  0.00  0.00    +0.000 C 
ATOM     30  C   UNL     1     105.418 126.671 144.118  0.00  0.00    +0.000 C 
BRANCH  27  31
ATOM     31  O   UNL     1     106.913 125.612 146.863  0.00  0.00    +0.000 OA
BRANCH  31  33
ATOM     32  O   UNL     1     105.659 125.146 147.366  0.00  0.00    +0.000 OA
ATOM     33  C   UNL     1     106.469 125.269 147.468  0.00  0.00    +0.000 C 
BRANCH  33  34
ATOM     34  C   UNL     1     106.834 125.050 148.174  0.00  0.00    +0.000 A 
ATOM     35  C   UNL     1     106.423 125.111 148.888  0.00  0.00    +0.000 A 
ATOM     36  C   UNL     1     107.610 124.769 148.168  0.00  0.00    +0.000 A 
ATOM     37  C   UNL     1     106.789 124.891 149.594  0.00  0.00    +0.000 A 
ATOM     38  C   UNL     1     107.975 124.550 148.874  0.00  0.00    +0.000 A 
ATOM     39  C   UNL     1     107.564 124.611 149.588  0.00  0.00    +0.000 A 
BRANCH  35  40
ATOM     40  O   UNL     1     105.648 125.391 148.894  0.00  0.00    +0.000 OA
ATOM     41  C   UNL     1     105.264 125.527 149.612  0.00  0.00    +0.000 C 
ENDBRANCH  35  40
ENDBRANCH  33  34
ENDBRANCH  31  33
ENDBRANCH  27  31
ENDBRANCH   1  29
TORSDOF 7
ENDMDL
MODEL 9
REMARK VINA RESULT:      -9.5      8.401      9.721
REMARK  Name = 10769313
REMARK  7 active torsions:
REMARK  status: ('A' for Active; 'I' for Inactive)
REMARK    1  A    between atoms: O_2  and  C_15
REMARK    2  A    between atoms: O_2  and  C_20
REMARK    3  A    between atoms: O_3  and  C_17
REMARK    4  A    between atoms: O_3  and  C_19
REMARK    5  A    between atoms: O_9  and  C_27
REMARK    6  A    between atoms: C_20  and  C_23
REMARK    7  A    between atoms: C_30  and  C_34
REMARK                            x       y       z     vdW  Elec       q    Type
REMARK                         _______ _______ _______ _____ _____    ______ ____
ROOT
ATOM      1  O   UNL     1     106.231 126.427 143.725  0.00  0.00    +0.000 OA
ENDROOT
BRANCH   1   6
ATOM      2  O   UNL     1     104.682 128.594 142.546  0.00  0.00    +0.000 OA
ATOM      3  O   UNL     1     107.567 128.751 142.566  0.00  0.00    +0.000 OA
ATOM      4  O   UNL     1     106.767 129.805 141.991  0.00  0.00    +0.000 OA
ATOM      5  O   UNL     1     105.304 130.459 141.599  0.00  0.00    +0.000 OA
ATOM      6  C   UNL     1     106.197 127.158 143.345  0.00  0.00    +0.000 A 
ATOM      7  C   UNL     1     105.439 127.505 143.138  0.00  0.00    +0.000 A 
ATOM      8  C   UNL     1     106.922 127.580 143.152  0.00  0.00    +0.000 A 
ATOM      9  C   UNL     1     105.413 128.266 142.742  0.00  0.00    +0.000 A 
ATOM     10  C   UNL     1     106.108 128.670 142.557  0.00  0.00    +0.000 A 
ATOM     11  C   UNL     1     106.877 128.340 142.755  0.00  0.00    +0.000 A 
ATOM     12  C   UNL     1     106.072 129.401 142.176  0.00  0.00    +0.000 A 
ATOM     13  C   UNL     1     104.645 129.324 142.166  0.00  0.00    +0.000 A 
ATOM     14  C   UNL     1     105.340 129.728 141.980  0.00  0.00    +0.000 A 
BRANCH  13  16
ATOM     15  O   UNL     1     101.718 130.633 141.382  0.00  0.00    +0.000 OA
ATOM     16  C   UNL     1     103.913 129.651 141.970  0.00  0.00    +0.000 A 
ATOM     17  C   UNL     1     103.567 129.481 141.241  0.00  0.00    +0.000 A 
ATOM     18  C   UNL     1     103.528 130.149 142.503  0.00  0.00    +0.000 A 
ATOM     19  C   UNL     1     102.835 129.808 141.045  0.00  0.00    +0.000 A 
ATOM     20  C   UNL     1     102.796 130.476 142.308  0.00  0.00    +0.000 A 
ATOM     21  C   UNL     1     102.450 130.306 141.578  0.00  0.00    +0.000 A 
ENDBRANCH  13  16
ENDBRANCH   1   6
BRANCH   1  29
ATOM     22  O   UNL     1     106.363 125.651 142.533  0.00  0.00    +0.000 OA
ATOM     23  O   UNL     1     105.057 123.826 143.576  0.00  0.00    +0.000 OA
ATOM     24  O   UNL     1     105.625 123.658 142.036  0.00  0.00    +0.000 OA
ATOM     25  C   UNL     1     105.492 124.434 143.228  0.00  0.00    +0.000 C 
ATOM     26  C   UNL     1     105.776 124.350 142.459  0.00  0.00    +0.000 C 
ATOM     27  C   UNL     1     105.643 125.126 143.651  0.00  0.00    +0.000 C 
ATOM     28  C   UNL     1     106.212 124.958 142.111  0.00  0.00    +0.000 C 
ATOM     29  C   UNL     1     106.079 125.734 143.303  0.00  0.00    +0.000 C 
ATOM     30  C   UNL     1     106.496 124.874 141.341  0.00  0.00    +0.000 C 
BRANCH  27  31
ATOM     31  O   UNL     1     105.359 125.211 144.421  0.00  0.00    +0.000 OA
BRANCH  31  33
ATOM     32  O   UNL     1     106.401 124.357 144.898  0.00  0.00    +0.000 OA
ATOM     33  C   UNL     1     105.724 124.807 145.041  0.00  0.00    +0.000 C 
BRANCH  33  34
ATOM     34  C   UNL     1     105.412 124.853 145.802  0.00  0.00    +0.000 A 
ATOM     35  C   UNL     1     105.916 124.953 146.450  0.00  0.00    +0.000 A 
ATOM     36  C   UNL     1     104.597 124.799 145.919  0.00  0.00    +0.000 A 
ATOM     37  C   UNL     1     105.603 125.000 147.212  0.00  0.00    +0.000 A 
ATOM     38  C   UNL     1     104.285 124.846 146.681  0.00  0.00    +0.000 A 
ATOM     39  C   UNL     1     104.788 124.946 147.328  0.00  0.00    +0.000 A 
BRANCH  35  40
ATOM     40  O   UNL     1     106.730 125.007 146.333  0.00  0.00    +0.000 OA
ATOM     41  C   UNL     1     107.223 125.217 146.961  0.00  0.00    +0.000 C 
ENDBRANCH  35  40
ENDBRANCH  33  34
ENDBRANCH  31  33
ENDBRANCH  27  31
ENDBRANCH   1  29
TORSDOF 7
ENDMDL
MODEL 10
REMARK VINA RESULT:      -9.5      2.025      3.245
REMARK  Name = 10769313
REMARK  7 active torsions:
REMARK  status: ('A' for Active; 'I' for Inactive)
REMARK    1  A    between atoms: O_2  and  C_15
REMARK    2  A    between atoms: O_2  and  C_20
REMARK    3  A    between atoms: O_3  and  C_17
REMARK    4  A    between atoms: O_3  and  C_19
REMARK    5  A    between atoms: O_9  and  C_27
REMARK    6  A    between atoms: C_20  and  C_23
REMARK    7  A    between atoms: C_30  and  C_34
REMARK                            x       y       z     vdW  Elec       q    Type
REMARK                         _______ _______ _______ _____ _____    ______ ____
ROOT
ATOM      1  O   UNL     1     111.045 127.171 137.204  0.00  0.00    +0.000 OA
ENDROOT
BRANCH   1   6
ATOM      2  O   UNL     1     110.449 130.019 137.328  0.00  0.00    +0.000 OA
ATOM      3  O   UNL     1     109.299 128.236 139.289  0.00  0.00    +0.000 OA
ATOM      4  O   UNL     1     109.026 129.652 139.319  0.00  0.00    +0.000 OA
ATOM      5  O   UNL     1     109.213 131.174 138.708  0.00  0.00    +0.000 OA
ATOM      6  C   UNL     1     110.663 127.808 137.564  0.00  0.00    +0.000 A 
ATOM      7  C   UNL     1     110.757 128.602 137.251  0.00  0.00    +0.000 A 
ATOM      8  C   UNL     1     110.169 127.680 138.256  0.00  0.00    +0.000 A 
ATOM      9  C   UNL     1     110.355 129.259 137.633  0.00  0.00    +0.000 A 
ATOM     10  C   UNL     1     109.881 129.137 138.297  0.00  0.00    +0.000 A 
ATOM     11  C   UNL     1     109.775 128.349 138.625  0.00  0.00    +0.000 A 
ATOM     12  C   UNL     1     109.501 129.775 138.655  0.00  0.00    +0.000 A 
ATOM     13  C   UNL     1     110.069 130.657 137.686  0.00  0.00    +0.000 A 
ATOM     14  C   UNL     1     109.594 130.535 138.350  0.00  0.00    +0.000 A 
BRANCH  13  16
ATOM     15  O   UNL     1     110.443 133.700 136.464  0.00  0.00    +0.000 OA
ATOM     16  C   UNL     1     110.162 131.418 137.380  0.00  0.00    +0.000 A 
ATOM     17  C   UNL     1     110.806 131.879 137.612  0.00  0.00    +0.000 A 
ATOM     18  C   UNL     1     109.612 131.718 136.844  0.00  0.00    +0.000 A 
ATOM     19  C   UNL     1     110.900 132.640 137.306  0.00  0.00    +0.000 A 
ATOM     20  C   UNL     1     109.706 132.479 136.538  0.00  0.00    +0.000 A 
ATOM     21  C   UNL     1     110.349 132.940 136.770  0.00  0.00    +0.000 A 
ENDBRANCH  13  16
ENDBRANCH   1   6
BRANCH   1  29
ATOM     22  O   UNL     1     109.980 127.043 136.260  0.00  0.00    +0.000 OA
ATOM     23  O   UNL     1     110.880 124.852 135.542  0.00  0.00    +0.000 OA
ATOM     24  O   UNL     1     109.515 125.454 134.837  0.00  0.00    +0.000 OA
ATOM     25  C   UNL     1     110.580 125.583 135.781  0.00  0.00    +0.000 C 
ATOM     26  C   UNL     1     109.898 125.883 135.429  0.00  0.00    +0.000 C 
ATOM     27  C   UNL     1     110.963 126.011 136.372  0.00  0.00    +0.000 C 
ATOM     28  C   UNL     1     109.598 126.614 135.668  0.00  0.00    +0.000 C 
ATOM     29  C   UNL     1     110.663 126.742 136.612  0.00  0.00    +0.000 C 
ATOM     30  C   UNL     1     108.915 126.915 135.316  0.00  0.00    +0.000 C 
BRANCH  27  31
ATOM     31  O   UNL     1     111.645 125.711 136.725  0.00  0.00    +0.000 OA
BRANCH  31  33
ATOM     32  O   UNL     1     112.400 126.069 135.566  0.00  0.00    +0.000 OA
ATOM     33  C   UNL     1     112.362 125.729 136.317  0.00  0.00    +0.000 C 
BRANCH  33  34
ATOM     34  C   UNL     1     113.039 125.407 136.659  0.00  0.00    +0.000 A 
ATOM     35  C   UNL     1     113.742 125.840 136.670  0.00  0.00    +0.000 A 
ATOM     36  C   UNL     1     113.016 124.652 136.991  0.00  0.00    +0.000 A 
ATOM     37  C   UNL     1     114.420 125.517 137.012  0.00  0.00    +0.000 A 
ATOM     38  C   UNL     1     113.693 124.330 137.333  0.00  0.00    +0.000 A 
ATOM     39  C   UNL     1     114.396 124.763 137.344  0.00  0.00    +0.000 A 
BRANCH  35  40
ATOM     40  O   UNL     1     113.766 126.594 136.338  0.00  0.00    +0.000 OA
ATOM     41  C   UNL     1     114.463 127.036 136.368  0.00  0.00    +0.000 C 
ENDBRANCH  35  40
ENDBRANCH  33  34
ENDBRANCH  31  33
ENDBRANCH  27  31
ENDBRANCH   1  29
TORSDOF 7
ENDMDL
