MODEL 1
REMARK VINA RESULT:      -8.0      0.000      0.000
REMARK  Name = 14077832
REMARK  3 active torsions:
REMARK  status: ('A' for Active; 'I' for Inactive)
REMARK    1  A    between atoms: O_2  and  C_13
REMARK    2  A    between atoms: O_4  and  C_15
REMARK    3  A    between atoms: C_7  and  C_9
REMARK                            x       y       z     vdW  Elec       q    Type
REMARK                         _______ _______ _______ _____ _____    ______ ____
ROOT
ATOM      1  O   UNL     1     106.008 125.331 146.380  0.00  0.00    +0.000 OA
ATOM      2  O   UNL     1     104.977 124.322 148.391  0.00  0.00    +0.000 OA
ATOM      3  O   UNL     1     108.614 125.306 147.679  0.00  0.00    +0.000 OA
ATOM      4  C   UNL     1     104.855 124.835 147.063  0.00  0.00    +0.000 C 
ATOM      5  C   UNL     1     105.199 125.171 146.392  0.00  0.00    +0.000 C 
ATOM      6  C   UNL     1     105.321 124.659 147.721  0.00  0.00    +0.000 C 
ATOM      7  C   UNL     1     106.130 124.819 147.708  0.00  0.00    +0.000 A 
ATOM      8  C   UNL     1     106.474 125.155 147.037  0.00  0.00    +0.000 A 
ATOM      9  C   UNL     1     106.605 124.630 148.399  0.00  0.00    +0.000 A 
ATOM     10  C   UNL     1     107.316 125.327 147.012  0.00  0.00    +0.000 A 
ATOM     11  C   UNL     1     107.448 124.795 148.392  0.00  0.00    +0.000 A 
ATOM     12  C   UNL     1     107.806 125.145 147.694  0.00  0.00    +0.000 A 
ENDROOT
BRANCH   4  14
ATOM     13  O   UNL     1     101.619 124.192 147.114  0.00  0.00    +0.000 OA
ATOM     14  C   UNL     1     104.046 124.675 147.076  0.00  0.00    +0.000 A 
ATOM     15  C   UNL     1     103.747 124.030 146.656  0.00  0.00    +0.000 A 
ATOM     16  C   UNL     1     103.536 125.158 147.508  0.00  0.00    +0.000 A 
ATOM     17  C   UNL     1     102.938 123.870 146.669  0.00  0.00    +0.000 A 
ATOM     18  C   UNL     1     102.727 124.997 147.521  0.00  0.00    +0.000 A 
ATOM     19  C   UNL     1     102.428 124.353 147.101  0.00  0.00    +0.000 A 
BRANCH  15  20
ATOM     20  O   UNL     1     104.256 123.547 146.223  0.00  0.00    +0.000 OA
ATOM     21  C   UNL     1     104.021 123.250 145.491  0.00  0.00    +0.000 C 
ENDBRANCH  15  20
BRANCH  17  22
ATOM     22  O   UNL     1     102.638 123.225 146.249  0.00  0.00    +0.000 OA
ATOM     23  C   UNL     1     102.067 122.739 146.593  0.00  0.00    +0.000 C 
ENDBRANCH  17  22
ENDBRANCH   4  14
TORSDOF 3
ENDMDL
MODEL 2
REMARK VINA RESULT:      -8.0      0.882      4.291
REMARK  Name = 14077832
REMARK  3 active torsions:
REMARK  status: ('A' for Active; 'I' for Inactive)
REMARK    1  A    between atoms: O_2  and  C_13
REMARK    2  A    between atoms: O_4  and  C_15
REMARK    3  A    between atoms: C_7  and  C_9
REMARK                            x       y       z     vdW  Elec       q    Type
REMARK                         _______ _______ _______ _____ _____    ______ ____
ROOT
ATOM      1  O   UNL     1     103.137 124.978 147.032  0.00  0.00    +0.000 OA
ATOM      2  O   UNL     1     104.863 123.444 146.142  0.00  0.00    +0.000 OA
ATOM      3  O   UNL     1     101.039 123.155 146.163  0.00  0.00    +0.000 OA
ATOM      4  C   UNL     1     104.512 124.661 146.803  0.00  0.00    +0.000 C 
ATOM      5  C   UNL     1     103.936 125.173 147.099  0.00  0.00    +0.000 C 
ATOM      6  C   UNL     1     104.288 123.955 146.439  0.00  0.00    +0.000 C 
ATOM      7  C   UNL     1     103.489 123.761 146.372  0.00  0.00    +0.000 A 
ATOM      8  C   UNL     1     102.914 124.272 146.669  0.00  0.00    +0.000 A 
ATOM      9  C   UNL     1     103.268 123.022 145.991  0.00  0.00    +0.000 A 
ATOM     10  C   UNL     1     102.078 124.080 146.606  0.00  0.00    +0.000 A 
ATOM     11  C   UNL     1     102.438 122.814 145.919  0.00  0.00    +0.000 A 
ATOM     12  C   UNL     1     101.839 123.347 146.228  0.00  0.00    +0.000 A 
ENDROOT
BRANCH   4  14
ATOM     13  O   UNL     1     107.708 125.437 147.071  0.00  0.00    +0.000 OA
ATOM     14  C   UNL     1     105.310 124.856 146.869  0.00  0.00    +0.000 A 
ATOM     15  C   UNL     1     105.683 124.823 147.605  0.00  0.00    +0.000 A 
ATOM     16  C   UNL     1     105.737 125.082 146.200  0.00  0.00    +0.000 A 
ATOM     17  C   UNL     1     106.482 125.017 147.671  0.00  0.00    +0.000 A 
ATOM     18  C   UNL     1     106.537 125.276 146.268  0.00  0.00    +0.000 A 
ATOM     19  C   UNL     1     106.909 125.243 147.003  0.00  0.00    +0.000 A 
BRANCH  15  20
ATOM     20  O   UNL     1     105.256 124.596 148.274  0.00  0.00    +0.000 OA
ATOM     21  C   UNL     1     105.371 124.990 148.989  0.00  0.00    +0.000 C 
ENDBRANCH  15  20
BRANCH  17  22
ATOM     22  O   UNL     1     106.854 124.984 148.408  0.00  0.00    +0.000 OA
ATOM     23  C   UNL     1     107.605 124.650 148.475  0.00  0.00    +0.000 C 
ENDBRANCH  17  22
ENDBRANCH   4  14
TORSDOF 3
ENDMDL
MODEL 3
REMARK VINA RESULT:      -7.9      2.129      3.158
REMARK  Name = 14077832
REMARK  3 active torsions:
REMARK  status: ('A' for Active; 'I' for Inactive)
REMARK    1  A    between atoms: O_2  and  C_13
REMARK    2  A    between atoms: O_4  and  C_15
REMARK    3  A    between atoms: C_7  and  C_9
REMARK                            x       y       z     vdW  Elec       q    Type
REMARK                         _______ _______ _______ _____ _____    ______ ____
ROOT
ATOM      1  O   UNL     1     105.691 124.743 147.499  0.00  0.00    +0.000 OA
ATOM      2  O   UNL     1     107.471 125.939 146.263  0.00  0.00    +0.000 OA
ATOM      3  O   UNL     1     107.581 124.075 149.612  0.00  0.00    +0.000 OA
ATOM      4  C   UNL     1     106.113 125.503 146.365  0.00  0.00    +0.000 C 
ATOM      5  C   UNL     1     105.520 125.104 146.777  0.00  0.00    +0.000 C 
ATOM      6  C   UNL     1     106.878 125.540 146.675  0.00  0.00    +0.000 C 
ATOM      7  C   UNL     1     107.047 125.179 147.397  0.00  0.00    +0.000 A 
ATOM      8  C   UNL     1     106.454 124.781 147.809  0.00  0.00    +0.000 A 
ATOM      9  C   UNL     1     107.847 125.225 147.709  0.00  0.00    +0.000 A 
ATOM     10  C   UNL     1     106.620 124.401 148.562  0.00  0.00    +0.000 A 
ATOM     11  C   UNL     1     108.031 124.852 148.460  0.00  0.00    +0.000 A 
ATOM     12  C   UNL     1     107.413 124.437 148.890  0.00  0.00    +0.000 A 
ENDROOT
BRANCH   4  14
ATOM     13  O   UNL     1     105.433 126.945 143.475  0.00  0.00    +0.000 OA
ATOM     14  C   UNL     1     105.943 125.864 145.643  0.00  0.00    +0.000 A 
ATOM     15  C   UNL     1     105.873 125.406 144.960  0.00  0.00    +0.000 A 
ATOM     16  C   UNL     1     105.843 126.682 145.604  0.00  0.00    +0.000 A 
ATOM     17  C   UNL     1     105.703 125.767 144.238  0.00  0.00    +0.000 A 
ATOM     18  C   UNL     1     105.673 127.042 144.881  0.00  0.00    +0.000 A 
ATOM     19  C   UNL     1     105.603 126.585 144.198  0.00  0.00    +0.000 A 
BRANCH  15  20
ATOM     20  O   UNL     1     105.973 124.588 144.999  0.00  0.00    +0.000 OA
ATOM     21  C   UNL     1     105.448 124.089 144.605  0.00  0.00    +0.000 C 
ENDBRANCH  15  20
BRANCH  17  22
ATOM     22  O   UNL     1     105.633 125.309 143.554  0.00  0.00    +0.000 OA
ATOM     23  C   UNL     1     106.067 125.505 142.881  0.00  0.00    +0.000 C 
ENDBRANCH  17  22
ENDBRANCH   4  14
TORSDOF 3
ENDMDL
MODEL 4
REMARK VINA RESULT:      -7.9     11.551     12.831
REMARK  Name = 14077832
REMARK  3 active torsions:
REMARK  status: ('A' for Active; 'I' for Inactive)
REMARK    1  A    between atoms: O_2  and  C_13
REMARK    2  A    between atoms: O_4  and  C_15
REMARK    3  A    between atoms: C_7  and  C_9
REMARK                            x       y       z     vdW  Elec       q    Type
REMARK                         _______ _______ _______ _____ _____    ______ ____
ROOT
ATOM      1  O   UNL     1     112.193 124.278 137.063  0.00  0.00    +0.000 OA
ATOM      2  O   UNL     1     112.293 126.409 135.808  0.00  0.00    +0.000 OA
ATOM      3  O   UNL     1     115.065 124.396 137.530  0.00  0.00    +0.000 OA
ATOM      4  C   UNL     1     111.538 125.310 136.324  0.00  0.00    +0.000 C 
ATOM      5  C   UNL     1     111.504 124.600 136.742  0.00  0.00    +0.000 C 
ATOM      6  C   UNL     1     112.260 125.699 136.227  0.00  0.00    +0.000 C 
ATOM      7  C   UNL     1     112.948 125.376 136.548  0.00  0.00    +0.000 A 
ATOM      8  C   UNL     1     112.914 124.666 136.966  0.00  0.00    +0.000 A 
ATOM      9  C   UNL     1     113.693 125.790 136.440  0.00  0.00    +0.000 A 
ATOM     10  C   UNL     1     113.624 124.320 137.306  0.00  0.00    +0.000 A 
ATOM     11  C   UNL     1     114.413 125.460 136.773  0.00  0.00    +0.000 A 
ATOM     12  C   UNL     1     114.379 124.720 137.208  0.00  0.00    +0.000 A 
ENDROOT
BRANCH   4  14
ATOM     13  O   UNL     1     108.786 126.602 135.040  0.00  0.00    +0.000 OA
ATOM     14  C   UNL     1     110.850 125.633 136.002  0.00  0.00    +0.000 A 
ATOM     15  C   UNL     1     110.339 126.072 136.479  0.00  0.00    +0.000 A 
ATOM     16  C   UNL     1     110.673 125.517 135.205  0.00  0.00    +0.000 A 
ATOM     17  C   UNL     1     109.651 126.395 136.158  0.00  0.00    +0.000 A 
ATOM     18  C   UNL     1     109.985 125.840 134.885  0.00  0.00    +0.000 A 
ATOM     19  C   UNL     1     109.474 126.279 135.361  0.00  0.00    +0.000 A 
BRANCH  15  20
ATOM     20  O   UNL     1     110.516 126.188 137.277  0.00  0.00    +0.000 OA
ATOM     21  C   UNL     1     109.916 126.157 137.841  0.00  0.00    +0.000 C 
ENDBRANCH  15  20
BRANCH  17  22
ATOM     22  O   UNL     1     109.140 126.834 136.635  0.00  0.00    +0.000 OA
ATOM     23  C   UNL     1     108.903 127.588 136.399  0.00  0.00    +0.000 C 
ENDBRANCH  17  22
ENDBRANCH   4  14
TORSDOF 3
ENDMDL
MODEL 5
REMARK VINA RESULT:      -7.6      6.441      8.340
REMARK  Name = 14077832
REMARK  3 active torsions:
REMARK  status: ('A' for Active; 'I' for Inactive)
REMARK    1  A    between atoms: O_2  and  C_13
REMARK    2  A    between atoms: O_4  and  C_15
REMARK    3  A    between atoms: C_7  and  C_9
REMARK                            x       y       z     vdW  Elec       q    Type
REMARK                         _______ _______ _______ _____ _____    ______ ____
ROOT
ATOM      1  O   UNL     1     104.338 124.471 138.491  0.00  0.00    +0.000 OA
ATOM      2  O   UNL     1     104.330 123.195 140.611  0.00  0.00    +0.000 OA
ATOM      3  O   UNL     1     101.611 123.611 137.939  0.00  0.00    +0.000 OA
ATOM      4  C   UNL     1     105.003 124.047 139.681  0.00  0.00    +0.000 C 
ATOM      5  C   UNL     1     105.006 124.473 138.975  0.00  0.00    +0.000 C 
ATOM      6  C   UNL     1     104.332 123.620 139.904  0.00  0.00    +0.000 C 
ATOM      7  C   UNL     1     103.665 123.620 139.419  0.00  0.00    +0.000 A 
ATOM      8  C   UNL     1     103.668 124.045 138.712  0.00  0.00    +0.000 A 
ATOM      9  C   UNL     1     102.972 123.172 139.662  0.00  0.00    +0.000 A 
ATOM     10  C   UNL     1     102.978 124.052 138.199  0.00  0.00    +0.000 A 
ATOM     11  C   UNL     1     102.274 123.167 139.161  0.00  0.00    +0.000 A 
ATOM     12  C   UNL     1     102.277 123.610 138.425  0.00  0.00    +0.000 A 
ENDROOT
BRANCH   4  14
ATOM     13  O   UNL     1     107.673 124.051 141.622  0.00  0.00    +0.000 OA
ATOM     14  C   UNL     1     105.670 124.047 140.166  0.00  0.00    +0.000 A 
ATOM     15  C   UNL     1     105.928 124.751 140.513  0.00  0.00    +0.000 A 
ATOM     16  C   UNL     1     106.081 123.345 140.305  0.00  0.00    +0.000 A 
ATOM     17  C   UNL     1     106.595 124.752 140.998  0.00  0.00    +0.000 A 
ATOM     18  C   UNL     1     106.748 123.347 140.790  0.00  0.00    +0.000 A 
ATOM     19  C   UNL     1     107.005 124.049 141.136  0.00  0.00    +0.000 A 
BRANCH  15  20
ATOM     20  O   UNL     1     105.518 125.454 140.374  0.00  0.00    +0.000 OA
ATOM     21  C   UNL     1     105.388 125.984 140.992  0.00  0.00    +0.000 C 
ENDBRANCH  15  20
BRANCH  17  22
ATOM     22  O   UNL     1     106.852 125.456 141.344  0.00  0.00    +0.000 OA
ATOM     23  C   UNL     1     107.641 125.686 141.271  0.00  0.00    +0.000 C 
ENDBRANCH  17  22
ENDBRANCH   4  14
TORSDOF 3
ENDMDL
MODEL 6
REMARK VINA RESULT:      -7.6      8.093      9.021
REMARK  Name = 14077832
REMARK  3 active torsions:
REMARK  status: ('A' for Active; 'I' for Inactive)
REMARK    1  A    between atoms: O_2  and  C_13
REMARK    2  A    between atoms: O_4  and  C_15
REMARK    3  A    between atoms: C_7  and  C_9
REMARK                            x       y       z     vdW  Elec       q    Type
REMARK                         _______ _______ _______ _____ _____    ______ ____
ROOT
ATOM      1  O   UNL     1     103.188 129.577 140.708  0.00  0.00    +0.000 OA
ATOM      2  O   UNL     1     103.081 130.707 142.907  0.00  0.00    +0.000 OA
ATOM      3  O   UNL     1     104.918 127.519 141.828  0.00  0.00    +0.000 OA
ATOM      4  C   UNL     1     102.710 130.645 141.528  0.00  0.00    +0.000 C 
ATOM      5  C   UNL     1     102.746 130.268 140.795  0.00  0.00    +0.000 C 
ATOM      6  C   UNL     1     103.116 130.331 142.174  0.00  0.00    +0.000 C 
ATOM      7  C   UNL     1     103.558 129.640 142.086  0.00  0.00    +0.000 A 
ATOM      8  C   UNL     1     103.594 129.263 141.353  0.00  0.00    +0.000 A 
ATOM      9  C   UNL     1     103.977 129.322 142.766  0.00  0.00    +0.000 A 
ATOM     10  C   UNL     1     104.051 128.542 141.249  0.00  0.00    +0.000 A 
ATOM     11  C   UNL     1     104.439 128.603 142.681  0.00  0.00    +0.000 A 
ATOM     12  C   UNL     1     104.476 128.210 141.918  0.00  0.00    +0.000 A 
ENDROOT
BRANCH   4  14
ATOM     13  O   UNL     1     100.944 133.411 141.878  0.00  0.00    +0.000 OA
ATOM     14  C   UNL     1     102.268 131.336 141.616  0.00  0.00    +0.000 A 
ATOM     15  C   UNL     1     102.579 132.059 141.365  0.00  0.00    +0.000 A 
ATOM     16  C   UNL     1     101.516 131.305 141.953  0.00  0.00    +0.000 A 
ATOM     17  C   UNL     1     102.137 132.750 141.453  0.00  0.00    +0.000 A 
ATOM     18  C   UNL     1     101.075 131.997 142.041  0.00  0.00    +0.000 A 
ATOM     19  C   UNL     1     101.385 132.719 141.791  0.00  0.00    +0.000 A 
BRANCH  15  20
ATOM     20  O   UNL     1     103.331 132.089 141.028  0.00  0.00    +0.000 OA
ATOM     21  C   UNL     1     103.469 132.570 140.372  0.00  0.00    +0.000 C 
ENDBRANCH  15  20
BRANCH  17  22
ATOM     22  O   UNL     1     102.449 133.472 141.203  0.00  0.00    +0.000 OA
ATOM     23  C   UNL     1     102.456 134.117 141.717  0.00  0.00    +0.000 C 
ENDBRANCH  17  22
ENDBRANCH   4  14
TORSDOF 3
ENDMDL
MODEL 7
REMARK VINA RESULT:      -7.5     11.487     13.003
REMARK  Name = 14077832
REMARK  3 active torsions:
REMARK  status: ('A' for Active; 'I' for Inactive)
REMARK    1  A    between atoms: O_2  and  C_13
REMARK    2  A    between atoms: O_4  and  C_15
REMARK    3  A    between atoms: C_7  and  C_9
REMARK                            x       y       z     vdW  Elec       q    Type
REMARK                         _______ _______ _______ _____ _____    ______ ____
ROOT
ATOM      1  O   UNL     1     109.824 126.301 137.344  0.00  0.00    +0.000 OA
ATOM      2  O   UNL     1     111.292 125.921 135.387  0.00  0.00    +0.000 OA
ATOM      3  O   UNL     1     108.165 128.107 135.773  0.00  0.00    +0.000 OA
ATOM      4  C   UNL     1     110.962 125.669 136.755  0.00  0.00    +0.000 C 
ATOM      5  C   UNL     1     110.473 125.795 137.407  0.00  0.00    +0.000 C 
ATOM      6  C   UNL     1     110.803 126.048 136.039  0.00  0.00    +0.000 C 
ATOM      7  C   UNL     1     110.154 126.553 135.977  0.00  0.00    +0.000 A 
ATOM      8  C   UNL     1     109.665 126.680 136.629  0.00  0.00    +0.000 A 
ATOM      9  C   UNL     1     109.998 126.942 135.226  0.00  0.00    +0.000 A 
ATOM     10  C   UNL     1     108.986 127.205 136.576  0.00  0.00    +0.000 A 
ATOM     11  C   UNL     1     109.324 127.470 135.155  0.00  0.00    +0.000 A 
ATOM     12  C   UNL     1     108.815 127.602 135.834  0.00  0.00    +0.000 A 
ENDROOT
BRANCH   4  14
ATOM     13  O   UNL     1     113.559 123.648 137.007  0.00  0.00    +0.000 OA
ATOM     14  C   UNL     1     111.611 125.163 136.818  0.00  0.00    +0.000 A 
ATOM     15  C   UNL     1     112.283 125.405 137.231  0.00  0.00    +0.000 A 
ATOM     16  C   UNL     1     111.588 124.416 136.468  0.00  0.00    +0.000 A 
ATOM     17  C   UNL     1     112.932 124.899 137.294  0.00  0.00    +0.000 A 
ATOM     18  C   UNL     1     112.238 123.912 136.531  0.00  0.00    +0.000 A 
ATOM     19  C   UNL     1     112.909 124.153 136.944  0.00  0.00    +0.000 A 
BRANCH  15  20
ATOM     20  O   UNL     1     112.306 126.151 137.582  0.00  0.00    +0.000 OA
ATOM     21  C   UNL     1     112.627 126.243 138.335  0.00  0.00    +0.000 C 
ENDBRANCH  15  20
BRANCH  17  22
ATOM     22  O   UNL     1     113.605 125.141 137.708  0.00  0.00    +0.000 OA
ATOM     23  C   UNL     1     114.351 125.054 137.367  0.00  0.00    +0.000 C 
ENDBRANCH  17  22
ENDBRANCH   4  14
TORSDOF 3
ENDMDL
MODEL 8
REMARK VINA RESULT:      -7.5     12.277     13.250
REMARK  Name = 14077832
REMARK  3 active torsions:
REMARK  status: ('A' for Active; 'I' for Inactive)
REMARK    1  A    between atoms: O_2  and  C_13
REMARK    2  A    between atoms: O_4  and  C_15
REMARK    3  A    between atoms: C_7  and  C_9
REMARK                            x       y       z     vdW  Elec       q    Type
REMARK                         _______ _______ _______ _____ _____    ______ ____
ROOT
ATOM      1  O   UNL     1     110.751 125.173 135.365  0.00  0.00    +0.000 OA
ATOM      2  O   UNL     1     111.743 127.193 136.396  0.00  0.00    +0.000 OA
ATOM      3  O   UNL     1     112.550 123.479 136.905  0.00  0.00    +0.000 OA
ATOM      4  C   UNL     1     110.803 126.594 135.500  0.00  0.00    +0.000 C 
ATOM      5  C   UNL     1     110.472 125.921 135.156  0.00  0.00    +0.000 C 
ATOM      6  C   UNL     1     111.412 126.519 136.053  0.00  0.00    +0.000 C 
ATOM      7  C   UNL     1     111.690 125.771 136.260  0.00  0.00    +0.000 A 
ATOM      8  C   UNL     1     111.359 125.098 135.916  0.00  0.00    +0.000 A 
ATOM      9  C   UNL     1     112.324 125.705 136.836  0.00  0.00    +0.000 A 
ATOM     10  C   UNL     1     111.640 124.313 136.125  0.00  0.00    +0.000 A 
ATOM     11  C   UNL     1     112.618 124.929 137.057  0.00  0.00    +0.000 A 
ATOM     12  C   UNL     1     112.274 124.228 136.699  0.00  0.00    +0.000 A 
ENDROOT
BRANCH   4  14
ATOM     13  O   UNL     1     109.690 129.589 134.671  0.00  0.00    +0.000 OA
ATOM     14  C   UNL     1     110.525 127.343 135.293  0.00  0.00    +0.000 A 
ATOM     15  C   UNL     1     109.786 127.596 135.558  0.00  0.00    +0.000 A 
ATOM     16  C   UNL     1     110.986 127.838 134.820  0.00  0.00    +0.000 A 
ATOM     17  C   UNL     1     109.508 128.345 135.350  0.00  0.00    +0.000 A 
ATOM     18  C   UNL     1     110.707 128.587 134.613  0.00  0.00    +0.000 A 
ATOM     19  C   UNL     1     109.969 128.840 134.878  0.00  0.00    +0.000 A 
BRANCH  15  20
ATOM     20  O   UNL     1     109.325 127.101 136.030  0.00  0.00    +0.000 OA
ATOM     21  C   UNL     1     108.503 127.120 135.968  0.00  0.00    +0.000 C 
ENDBRANCH  15  20
BRANCH  17  22
ATOM     22  O   UNL     1     108.768 128.598 135.616  0.00  0.00    +0.000 OA
ATOM     23  C   UNL     1     108.659 129.384 135.843  0.00  0.00    +0.000 C 
ENDBRANCH  17  22
ENDBRANCH   4  14
TORSDOF 3
ENDMDL
MODEL 9
REMARK VINA RESULT:      -7.4     12.541     13.951
REMARK  Name = 14077832
REMARK  3 active torsions:
REMARK  status: ('A' for Active; 'I' for Inactive)
REMARK    1  A    between atoms: O_2  and  C_13
REMARK    2  A    between atoms: O_4  and  C_15
REMARK    3  A    between atoms: C_7  and  C_9
REMARK                            x       y       z     vdW  Elec       q    Type
REMARK                         _______ _______ _______ _____ _____    ______ ____
ROOT
ATOM      1  O   UNL     1     111.728 126.158 136.256  0.00  0.00    +0.000 OA
ATOM      2  O   UNL     1     114.106 126.541 136.823  0.00  0.00    +0.000 OA
ATOM      3  O   UNL     1     112.073 123.294 136.656  0.00  0.00    +0.000 OA
ATOM      4  C   UNL     1     112.827 127.052 136.440  0.00  0.00    +0.000 C 
ATOM      5  C   UNL     1     112.034 126.924 136.251  0.00  0.00    +0.000 C 
ATOM      6  C   UNL     1     113.314 126.413 136.634  0.00  0.00    +0.000 C 
ATOM      7  C   UNL     1     113.006 125.648 136.638  0.00  0.00    +0.000 A 
ATOM      8  C   UNL     1     112.213 125.520 136.449  0.00  0.00    +0.000 A 
ATOM      9  C   UNL     1     113.522 124.991 136.842  0.00  0.00    +0.000 A 
ATOM     10  C   UNL     1     111.881 124.727 136.451  0.00  0.00    +0.000 A 
ATOM     11  C   UNL     1     113.208 124.192 136.849  0.00  0.00    +0.000 A 
ATOM     12  C   UNL     1     112.382 124.059 136.652  0.00  0.00    +0.000 A 
ENDROOT
BRANCH   4  14
ATOM     13  O   UNL     1     114.057 130.114 136.424  0.00  0.00    +0.000 OA
ATOM     14  C   UNL     1     113.135 127.817 136.435  0.00  0.00    +0.000 A 
ATOM     15  C   UNL     1     112.946 128.341 137.045  0.00  0.00    +0.000 A 
ATOM     16  C   UNL     1     113.631 128.059 135.822  0.00  0.00    +0.000 A 
ATOM     17  C   UNL     1     113.254 129.106 137.040  0.00  0.00    +0.000 A 
ATOM     18  C   UNL     1     113.938 128.825 135.818  0.00  0.00    +0.000 A 
ATOM     19  C   UNL     1     113.750 129.348 136.427  0.00  0.00    +0.000 A 
BRANCH  15  20
ATOM     20  O   UNL     1     112.451 128.099 137.658  0.00  0.00    +0.000 OA
ATOM     21  C   UNL     1     111.869 128.608 137.944  0.00  0.00    +0.000 C 
ENDBRANCH  15  20
BRANCH  17  22
ATOM     22  O   UNL     1     113.065 129.630 137.650  0.00  0.00    +0.000 OA
ATOM     23  C   UNL     1     113.664 130.047 138.035  0.00  0.00    +0.000 C 
ENDBRANCH  17  22
ENDBRANCH   4  14
TORSDOF 3
ENDMDL
MODEL 10
REMARK VINA RESULT:      -7.4     11.720     13.119
REMARK  Name = 14077832
REMARK  3 active torsions:
REMARK  status: ('A' for Active; 'I' for Inactive)
REMARK    1  A    between atoms: O_2  and  C_13
REMARK    2  A    between atoms: O_4  and  C_15
REMARK    3  A    between atoms: C_7  and  C_9
REMARK                            x       y       z     vdW  Elec       q    Type
REMARK                         _______ _______ _______ _____ _____    ______ ____
ROOT
ATOM      1  O   UNL     1     108.457 128.122 136.073  0.00  0.00    +0.000 OA
ATOM      2  O   UNL     1     110.723 127.934 135.095  0.00  0.00    +0.000 OA
ATOM      3  O   UNL     1     108.384 130.956 135.409  0.00  0.00    +0.000 OA
ATOM      4  C   UNL     1     109.603 127.332 135.750  0.00  0.00    +0.000 C 
ATOM      5  C   UNL     1     108.848 127.395 136.076  0.00  0.00    +0.000 C 
ATOM      6  C   UNL     1     109.968 127.997 135.421  0.00  0.00    +0.000 C 
ATOM      7  C   UNL     1     109.576 128.722 135.420  0.00  0.00    +0.000 A 
ATOM      8  C   UNL     1     108.821 128.785 135.746  0.00  0.00    +0.000 A 
ATOM      9  C   UNL     1     109.966 129.407 135.075  0.00  0.00    +0.000 A 
ATOM     10  C   UNL     1     108.403 129.537 135.750  0.00  0.00    +0.000 A 
ATOM     11  C   UNL     1     109.563 130.166 135.070  0.00  0.00    +0.000 A 
ATOM     12  C   UNL     1     108.777 130.231 135.409  0.00  0.00    +0.000 A 
ENDROOT
BRANCH   4  14
ATOM     13  O   UNL     1     111.171 124.428 135.759  0.00  0.00    +0.000 OA
ATOM     14  C   UNL     1     109.995 126.606 135.751  0.00  0.00    +0.000 A 
ATOM     15  C   UNL     1     110.301 126.305 136.456  0.00  0.00    +0.000 A 
ATOM     16  C   UNL     1     110.081 126.182 135.049  0.00  0.00    +0.000 A 
ATOM     17  C   UNL     1     110.693 125.579 136.458  0.00  0.00    +0.000 A 
ATOM     18  C   UNL     1     110.473 125.455 135.052  0.00  0.00    +0.000 A 
ATOM     19  C   UNL     1     110.779 125.154 135.756  0.00  0.00    +0.000 A 
BRANCH  15  20
ATOM     20  O   UNL     1     110.216 126.730 137.158  0.00  0.00    +0.000 OA
ATOM     21  C   UNL     1     110.022 126.337 137.857  0.00  0.00    +0.000 C 
ENDBRANCH  15  20
BRANCH  17  22
ATOM     22  O   UNL     1     110.999 125.278 137.163  0.00  0.00    +0.000 OA
ATOM     23  C   UNL     1     111.782 125.019 137.195  0.00  0.00    +0.000 C 
ENDBRANCH  17  22
ENDBRANCH   4  14
TORSDOF 3
ENDMDL
