MODEL 1
REMARK VINA RESULT:     -10.7      0.000      0.000
REMARK  Name = 44258208
REMARK  13 active torsions:
REMARK  status: ('A' for Active; 'I' for Inactive)
REMARK    1  A    between atoms: O_2  and  C_16
REMARK    2  A    between atoms: O_2  and  C_23
REMARK    3  A    between atoms: O_4  and  C_20
REMARK    4  A    between atoms: O_4  and  C_22
REMARK    5  A    between atoms: O_6  and  C_21
REMARK    6  A    between atoms: O_6  and  C_26
REMARK    7  A    between atoms: O_12  and  C_44
REMARK    8  A    between atoms: C_18  and  C_21
REMARK    9  A    between atoms: C_23  and  C_27
REMARK   10  A    between atoms: C_26  and  C_31
REMARK   11  A    between atoms: C_32  and  C_36
REMARK   12  A    between atoms: C_34  and  C_38
REMARK   13  A    between atoms: C_37  and  C_39
REMARK                            x       y       z     vdW  Elec       q    Type
REMARK                         _______ _______ _______ _____ _____    ______ ____
ROOT
ATOM      1  O   UNL     1     111.038 127.913 135.165  0.00  0.00    +0.000 OA
ATOM      2  O   UNL     1     111.421 130.024 134.759  0.00  0.00    +0.000 OA
ATOM      3  O   UNL     1     108.968 128.568 134.941  0.00  0.00    +0.000 OA
ATOM      4  C   UNL     1     110.194 129.296 134.850  0.00  0.00    +0.000 C 
ATOM      5  C   UNL     1     111.019 129.314 134.884  0.00  0.00    +0.000 C 
ATOM      6  C   UNL     1     111.441 128.623 135.041  0.00  0.00    +0.000 C 
ATOM      7  C   UNL     1     109.793 128.586 134.975  0.00  0.00    +0.000 C 
ATOM      8  C   UNL     1     110.214 127.895 135.132  0.00  0.00    +0.000 C 
ENDROOT
BRANCH   4   9
ATOM      9  O   UNL     1     109.772 129.987 134.693  0.00  0.00    +0.000 OA
BRANCH   9  11
ATOM     10  O   UNL     1     108.497 130.119 135.324  0.00  0.00    +0.000 OA
ATOM     11  C   UNL     1     109.295 130.321 135.277  0.00  0.00    +0.000 C 
BRANCH  11  12
ATOM     12  C   UNL     1     109.617 130.856 135.816  0.00  0.00    +0.000 C 
ATOM     13  C   UNL     1     109.161 131.483 136.098  0.00  0.00    +0.000 C 
BRANCH  13  15
ATOM     14  O   UNL     1     110.450 133.626 138.252  0.00  0.00    +0.000 OA
ATOM     15  C   UNL     1     109.483 132.019 136.636  0.00  0.00    +0.000 A 
ATOM     16  C   UNL     1     109.929 132.657 136.366  0.00  0.00    +0.000 A 
ATOM     17  C   UNL     1     109.359 131.915 137.445  0.00  0.00    +0.000 A 
ATOM     18  C   UNL     1     110.252 133.193 136.904  0.00  0.00    +0.000 A 
ATOM     19  C   UNL     1     109.681 132.451 137.984  0.00  0.00    +0.000 A 
ATOM     20  C   UNL     1     110.128 133.090 137.713  0.00  0.00    +0.000 A 
ENDBRANCH  13  15
ENDBRANCH  11  12
ENDBRANCH   9  11
ENDBRANCH   4   9
BRANCH   8  21
ATOM     21  O   UNL     1     109.812 127.185 135.256  0.00  0.00    +0.000 OA
BRANCH  21  25
ATOM     22  O   UNL     1     110.339 126.405 138.012  0.00  0.00    +0.000 OA
ATOM     23  O   UNL     1     111.050 124.610 135.862  0.00  0.00    +0.000 OA
ATOM     24  O   UNL     1     111.296 124.257 137.240  0.00  0.00    +0.000 OA
ATOM     25  C   UNL     1     110.099 126.638 135.803  0.00  0.00    +0.000 A 
ATOM     26  C   UNL     1     110.069 126.810 136.644  0.00  0.00    +0.000 A 
ATOM     27  C   UNL     1     110.432 125.892 135.534  0.00  0.00    +0.000 A 
ATOM     28  C   UNL     1     110.371 126.234 137.205  0.00  0.00    +0.000 A 
ATOM     29  C   UNL     1     110.729 125.329 136.111  0.00  0.00    +0.000 A 
ATOM     30  C   UNL     1     110.690 125.518 136.948  0.00  0.00    +0.000 A 
ATOM     31  C   UNL     1     110.977 124.974 137.497  0.00  0.00    +0.000 A 
ATOM     32  C   UNL     1     110.626 125.860 138.561  0.00  0.00    +0.000 A 
ATOM     33  C   UNL     1     110.945 125.144 138.304  0.00  0.00    +0.000 A 
BRANCH  32  35
ATOM     34  O   UNL     1     110.498 126.544 141.787  0.00  0.00    +0.000 OA
ATOM     35  C   UNL     1     110.594 126.031 139.368  0.00  0.00    +0.000 A 
ATOM     36  C   UNL     1     109.991 125.712 139.833  0.00  0.00    +0.000 A 
ATOM     37  C   UNL     1     111.164 126.520 139.709  0.00  0.00    +0.000 A 
ATOM     38  C   UNL     1     109.960 125.884 140.639  0.00  0.00    +0.000 A 
ATOM     39  C   UNL     1     111.132 126.690 140.515  0.00  0.00    +0.000 A 
ATOM     40  C   UNL     1     110.530 126.373 140.981  0.00  0.00    +0.000 A 
BRANCH  38  41
ATOM     41  O   UNL     1     109.357 125.566 141.105  0.00  0.00    +0.000 OA
ATOM     42  C   UNL     1     108.576 125.586 140.840  0.00  0.00    +0.000 C 
ENDBRANCH  38  41
ENDBRANCH  32  35
ENDBRANCH  21  25
ENDBRANCH   8  21
BRANCH   6  43
ATOM     43  C   UNL     1     112.264 128.641 135.074  0.00  0.00    +0.000 C 
BRANCH  43  44
ATOM     44  O   UNL     1     112.655 128.428 135.769  0.00  0.00    +0.000 OA
BRANCH  44  46
ATOM     45  O   UNL     1     114.018 128.779 135.525  0.00  0.00    +0.000 OA
ATOM     46  C   UNL     1     113.453 128.221 135.748  0.00  0.00    +0.000 C 
BRANCH  46  47
ATOM     47  C   UNL     1     113.687 127.455 135.949  0.00  0.00    +0.000 C 
ATOM     48  C   UNL     1     113.957 127.293 136.711  0.00  0.00    +0.000 C 
BRANCH  48  50
ATOM     49  O   UNL     1     114.892 124.234 137.520  0.00  0.00    +0.000 OA
ATOM     50  C   UNL     1     114.191 126.528 136.913  0.00  0.00    +0.000 A 
ATOM     51  C   UNL     1     114.240 126.308 137.706  0.00  0.00    +0.000 A 
ATOM     52  C   UNL     1     114.375 125.984 136.322  0.00  0.00    +0.000 A 
ATOM     53  C   UNL     1     114.474 125.543 137.909  0.00  0.00    +0.000 A 
ATOM     54  C   UNL     1     114.609 125.219 136.524  0.00  0.00    +0.000 A 
ATOM     55  C   UNL     1     114.658 124.999 137.317  0.00  0.00    +0.000 A 
ENDBRANCH  48  50
ENDBRANCH  46  47
ENDBRANCH  44  46
ENDBRANCH  43  44
ENDBRANCH   6  43
TORSDOF 13
ENDMDL
MODEL 2
REMARK VINA RESULT:     -10.7      3.666      6.009
REMARK  Name = 44258208
REMARK  13 active torsions:
REMARK  status: ('A' for Active; 'I' for Inactive)
REMARK    1  A    between atoms: O_2  and  C_16
REMARK    2  A    between atoms: O_2  and  C_23
REMARK    3  A    between atoms: O_4  and  C_20
REMARK    4  A    between atoms: O_4  and  C_22
REMARK    5  A    between atoms: O_6  and  C_21
REMARK    6  A    between atoms: O_6  and  C_26
REMARK    7  A    between atoms: O_12  and  C_44
REMARK    8  A    between atoms: C_18  and  C_21
REMARK    9  A    between atoms: C_23  and  C_27
REMARK   10  A    between atoms: C_26  and  C_31
REMARK   11  A    between atoms: C_32  and  C_36
REMARK   12  A    between atoms: C_34  and  C_38
REMARK   13  A    between atoms: C_37  and  C_39
REMARK                            x       y       z     vdW  Elec       q    Type
REMARK                         _______ _______ _______ _____ _____    ______ ____
ROOT
ATOM      1  O   UNL     1     112.124 128.504 141.322  0.00  0.00    +0.000 OA
ATOM      2  O   UNL     1     112.679 130.357 142.335  0.00  0.00    +0.000 OA
ATOM      3  O   UNL     1     111.196 128.093 143.255  0.00  0.00    +0.000 OA
ATOM      4  C   UNL     1     111.938 129.225 142.795  0.00  0.00    +0.000 C 
ATOM      5  C   UNL     1     112.355 129.611 142.196  0.00  0.00    +0.000 C 
ATOM      6  C   UNL     1     112.449 129.251 141.460  0.00  0.00    +0.000 C 
ATOM      7  C   UNL     1     111.614 128.479 142.656  0.00  0.00    +0.000 C 
ATOM      8  C   UNL     1     111.707 128.119 141.920  0.00  0.00    +0.000 C 
ENDROOT
BRANCH   4   9
ATOM      9  O   UNL     1     111.844 129.585 143.531  0.00  0.00    +0.000 OA
BRANCH   9  11
ATOM     10  O   UNL     1     110.481 129.965 143.332  0.00  0.00    +0.000 OA
ATOM     11  C   UNL     1     111.224 130.116 143.655  0.00  0.00    +0.000 C 
BRANCH  11  12
ATOM     12  C   UNL     1     111.349 130.798 144.101  0.00  0.00    +0.000 C 
ATOM     13  C   UNL     1     110.876 130.953 144.759  0.00  0.00    +0.000 C 
BRANCH  13  15
ATOM     14  O   UNL     1     111.375 133.682 146.546  0.00  0.00    +0.000 OA
ATOM     15  C   UNL     1     111.001 131.636 145.206  0.00  0.00    +0.000 A 
ATOM     16  C   UNL     1     111.653 131.686 145.708  0.00  0.00    +0.000 A 
ATOM     17  C   UNL     1     110.473 132.267 145.149  0.00  0.00    +0.000 A 
ATOM     18  C   UNL     1     111.778 132.368 146.154  0.00  0.00    +0.000 A 
ATOM     19  C   UNL     1     110.598 132.949 145.596  0.00  0.00    +0.000 A 
ATOM     20  C   UNL     1     111.250 133.000 146.099  0.00  0.00    +0.000 A 
ENDBRANCH  13  15
ENDBRANCH  11  12
ENDBRANCH   9  11
ENDBRANCH   4   9
BRANCH   8  21
ATOM     21  O   UNL     1     111.383 127.372 141.782  0.00  0.00    +0.000 OA
BRANCH  21  25
ATOM     22  O   UNL     1     111.655 125.994 139.230  0.00  0.00    +0.000 OA
ATOM     23  O   UNL     1     109.299 127.585 139.746  0.00  0.00    +0.000 OA
ATOM     24  O   UNL     1     109.468 126.888 138.494  0.00  0.00    +0.000 OA
ATOM     25  C   UNL     1     111.087 127.183 141.035  0.00  0.00    +0.000 A 
ATOM     26  C   UNL     1     111.536 126.675 140.508  0.00  0.00    +0.000 A 
ATOM     27  C   UNL     1     110.327 127.494 140.780  0.00  0.00    +0.000 A 
ATOM     28  C   UNL     1     111.219 126.483 139.732  0.00  0.00    +0.000 A 
ATOM     29  C   UNL     1     110.027 127.292 140.001  0.00  0.00    +0.000 A 
ATOM     30  C   UNL     1     110.490 126.782 139.487  0.00  0.00    +0.000 A 
ATOM     31  C   UNL     1     110.197 126.590 138.740  0.00  0.00    +0.000 A 
ATOM     32  C   UNL     1     111.361 125.804 138.483  0.00  0.00    +0.000 A 
ATOM     33  C   UNL     1     110.633 126.101 138.238  0.00  0.00    +0.000 A 
BRANCH  32  35
ATOM     34  O   UNL     1     113.104 123.847 136.476  0.00  0.00    +0.000 OA
ATOM     35  C   UNL     1     111.797 125.314 137.981  0.00  0.00    +0.000 A 
ATOM     36  C   UNL     1     112.572 125.515 137.782  0.00  0.00    +0.000 A 
ATOM     37  C   UNL     1     111.458 124.625 137.680  0.00  0.00    +0.000 A 
ATOM     38  C   UNL     1     113.007 125.025 137.280  0.00  0.00    +0.000 A 
ATOM     39  C   UNL     1     111.893 124.137 137.178  0.00  0.00    +0.000 A 
ATOM     40  C   UNL     1     112.668 124.336 136.978  0.00  0.00    +0.000 A 
BRANCH  38  41
ATOM     41  O   UNL     1     113.782 125.225 137.079  0.00  0.00    +0.000 OA
ATOM     42  C   UNL     1     114.342 125.353 137.672  0.00  0.00    +0.000 C 
ENDBRANCH  38  41
ENDBRANCH  32  35
ENDBRANCH  21  25
ENDBRANCH   8  21
BRANCH   6  43
ATOM     43  C   UNL     1     112.866 129.636 140.863  0.00  0.00    +0.000 C 
BRANCH  43  44
ATOM     44  O   UNL     1     112.516 129.755 140.125  0.00  0.00    +0.000 OA
BRANCH  44  46
ATOM     45  O   UNL     1     113.488 130.615 139.528  0.00  0.00    +0.000 OA
ATOM     46  C   UNL     1     112.980 129.967 139.477  0.00  0.00    +0.000 C 
BRANCH  46  47
ATOM     47  C   UNL     1     112.937 129.531 138.778  0.00  0.00    +0.000 C 
ATOM     48  C   UNL     1     112.608 129.868 138.101  0.00  0.00    +0.000 C 
BRANCH  48  50
ATOM     49  O   UNL     1     112.439 128.123 135.304  0.00  0.00    +0.000 OA
ATOM     50  C   UNL     1     112.565 129.432 137.402  0.00  0.00    +0.000 A 
ATOM     51  C   UNL     1     113.246 129.087 137.089  0.00  0.00    +0.000 A 
ATOM     52  C   UNL     1     111.842 129.340 137.016  0.00  0.00    +0.000 A 
ATOM     53  C   UNL     1     113.204 128.651 136.390  0.00  0.00    +0.000 A 
ATOM     54  C   UNL     1     111.800 128.905 136.317  0.00  0.00    +0.000 A 
ATOM     55  C   UNL     1     112.481 128.560 136.004  0.00  0.00    +0.000 A 
ENDBRANCH  48  50
ENDBRANCH  46  47
ENDBRANCH  44  46
ENDBRANCH  43  44
ENDBRANCH   6  43
TORSDOF 13
ENDMDL
MODEL 3
REMARK VINA RESULT:     -10.6      3.273      5.830
REMARK  Name = 44258208
REMARK  13 active torsions:
REMARK  status: ('A' for Active; 'I' for Inactive)
REMARK    1  A    between atoms: O_2  and  C_16
REMARK    2  A    between atoms: O_2  and  C_23
REMARK    3  A    between atoms: O_4  and  C_20
REMARK    4  A    between atoms: O_4  and  C_22
REMARK    5  A    between atoms: O_6  and  C_21
REMARK    6  A    between atoms: O_6  and  C_26
REMARK    7  A    between atoms: O_12  and  C_44
REMARK    8  A    between atoms: C_18  and  C_21
REMARK    9  A    between atoms: C_23  and  C_27
REMARK   10  A    between atoms: C_26  and  C_31
REMARK   11  A    between atoms: C_32  and  C_36
REMARK   12  A    between atoms: C_34  and  C_38
REMARK   13  A    between atoms: C_37  and  C_39
REMARK                            x       y       z     vdW  Elec       q    Type
REMARK                         _______ _______ _______ _____ _____    ______ ____
ROOT
ATOM      1  O   UNL     1     113.278 128.884 139.187  0.00  0.00    +0.000 OA
ATOM      2  O   UNL     1     113.010 128.594 141.334  0.00  0.00    +0.000 OA
ATOM      3  O   UNL     1     113.721 130.921 139.834  0.00  0.00    +0.000 OA
ATOM      4  C   UNL     1     113.366 129.758 140.584  0.00  0.00    +0.000 C 
ATOM      5  C   UNL     1     113.166 128.957 140.610  0.00  0.00    +0.000 C 
ATOM      6  C   UNL     1     113.122 128.520 139.911  0.00  0.00    +0.000 C 
ATOM      7  C   UNL     1     113.521 130.120 139.860  0.00  0.00    +0.000 C 
ATOM      8  C   UNL     1     113.478 129.683 139.161  0.00  0.00    +0.000 C 
ENDROOT
BRANCH   4   9
ATOM      9  O   UNL     1     113.410 130.195 141.283  0.00  0.00    +0.000 OA
BRANCH   9  11
ATOM     10  O   UNL     1     112.089 130.704 141.086  0.00  0.00    +0.000 OA
ATOM     11  C   UNL     1     112.736 130.567 141.578  0.00  0.00    +0.000 C 
BRANCH  11  12
ATOM     12  C   UNL     1     112.709 130.804 142.368  0.00  0.00    +0.000 C 
ATOM     13  C   UNL     1     112.120 131.321 142.625  0.00  0.00    +0.000 C 
BRANCH  13  15
ATOM     14  O   UNL     1     112.013 132.266 145.785  0.00  0.00    +0.000 OA
ATOM     15  C   UNL     1     112.093 131.557 143.415  0.00  0.00    +0.000 A 
ATOM     16  C   UNL     1     111.704 131.090 143.972  0.00  0.00    +0.000 A 
ATOM     17  C   UNL     1     112.456 132.261 143.647  0.00  0.00    +0.000 A 
ATOM     18  C   UNL     1     111.677 131.326 144.762  0.00  0.00    +0.000 A 
ATOM     19  C   UNL     1     112.429 132.497 144.437  0.00  0.00    +0.000 A 
ATOM     20  C   UNL     1     112.039 132.030 144.995  0.00  0.00    +0.000 A 
ENDBRANCH  13  15
ENDBRANCH  11  12
ENDBRANCH   9  11
ENDBRANCH   4   9
BRANCH   8  21
ATOM     21  O   UNL     1     113.633 130.047 138.437  0.00  0.00    +0.000 OA
BRANCH  21  25
ATOM     22  O   UNL     1     111.199 129.931 136.842  0.00  0.00    +0.000 OA
ATOM     23  O   UNL     1     113.604 128.662 135.866  0.00  0.00    +0.000 OA
ATOM     24  O   UNL     1     112.380 128.625 135.103  0.00  0.00    +0.000 OA
ATOM     25  C   UNL     1     113.233 129.802 137.759  0.00  0.00    +0.000 A 
ATOM     26  C   UNL     1     112.404 129.998 137.650  0.00  0.00    +0.000 A 
ATOM     27  C   UNL     1     113.644 129.348 137.154  0.00  0.00    +0.000 A 
ATOM     28  C   UNL     1     111.996 129.739 136.940  0.00  0.00    +0.000 A 
ATOM     29  C   UNL     1     113.219 129.098 136.451  0.00  0.00    +0.000 A 
ATOM     30  C   UNL     1     112.390 129.304 136.361  0.00  0.00    +0.000 A 
ATOM     31  C   UNL     1     111.986 129.060 135.683  0.00  0.00    +0.000 A 
ATOM     32  C   UNL     1     110.797 129.687 136.165  0.00  0.00    +0.000 A 
ATOM     33  C   UNL     1     111.190 129.252 135.585  0.00  0.00    +0.000 A 
BRANCH  32  35
ATOM     34  O   UNL     1     107.610 130.454 135.774  0.00  0.00    +0.000 OA
ATOM     35  C   UNL     1     110.000 129.879 136.067  0.00  0.00    +0.000 A 
ATOM     36  C   UNL     1     109.788 130.619 135.772  0.00  0.00    +0.000 A 
ATOM     37  C   UNL     1     109.416 129.330 136.265  0.00  0.00    +0.000 A 
ATOM     38  C   UNL     1     108.991 130.811 135.674  0.00  0.00    +0.000 A 
ATOM     39  C   UNL     1     108.620 129.522 136.167  0.00  0.00    +0.000 A 
ATOM     40  C   UNL     1     108.407 130.263 135.872  0.00  0.00    +0.000 A 
BRANCH  38  41
ATOM     41  O   UNL     1     108.778 131.551 135.379  0.00  0.00    +0.000 OA
ATOM     42  C   UNL     1     109.155 132.230 135.657  0.00  0.00    +0.000 C 
ENDBRANCH  38  41
ENDBRANCH  32  35
ENDBRANCH  21  25
ENDBRANCH   8  21
BRANCH   6  43
ATOM     43  C   UNL     1     112.923 127.721 139.937  0.00  0.00    +0.000 C 
BRANCH  43  44
ATOM     44  O   UNL     1     112.233 127.455 139.571  0.00  0.00    +0.000 OA
BRANCH  44  46
ATOM     45  O   UNL     1     112.181 126.091 139.992  0.00  0.00    +0.000 OA
ATOM     46  C   UNL     1     112.142 126.655 139.391  0.00  0.00    +0.000 C 
BRANCH  46  47
ATOM     47  C   UNL     1     112.013 126.419 138.611  0.00  0.00    +0.000 C 
ATOM     48  C   UNL     1     111.261 126.185 138.370  0.00  0.00    +0.000 C 
BRANCH  48  50
ATOM     49  O   UNL     1     110.748 125.238 135.250  0.00  0.00    +0.000 OA
ATOM     50  C   UNL     1     111.132 125.948 137.590  0.00  0.00    +0.000 A 
ATOM     51  C   UNL     1     111.748 125.617 137.152  0.00  0.00    +0.000 A 
ATOM     52  C   UNL     1     110.388 126.042 137.247  0.00  0.00    +0.000 A 
ATOM     53  C   UNL     1     111.621 125.380 136.373  0.00  0.00    +0.000 A 
ATOM     54  C   UNL     1     110.260 125.806 136.468  0.00  0.00    +0.000 A 
ATOM     55  C   UNL     1     110.876 125.475 136.031  0.00  0.00    +0.000 A 
ENDBRANCH  48  50
ENDBRANCH  46  47
ENDBRANCH  44  46
ENDBRANCH  43  44
ENDBRANCH   6  43
TORSDOF 13
ENDMDL
MODEL 4
REMARK VINA RESULT:     -10.6      3.769      6.069
REMARK  Name = 44258208
REMARK  13 active torsions:
REMARK  status: ('A' for Active; 'I' for Inactive)
REMARK    1  A    between atoms: O_2  and  C_16
REMARK    2  A    between atoms: O_2  and  C_23
REMARK    3  A    between atoms: O_4  and  C_20
REMARK    4  A    between atoms: O_4  and  C_22
REMARK    5  A    between atoms: O_6  and  C_21
REMARK    6  A    between atoms: O_6  and  C_26
REMARK    7  A    between atoms: O_12  and  C_44
REMARK    8  A    between atoms: C_18  and  C_21
REMARK    9  A    between atoms: C_23  and  C_27
REMARK   10  A    between atoms: C_26  and  C_31
REMARK   11  A    between atoms: C_32  and  C_36
REMARK   12  A    between atoms: C_34  and  C_38
REMARK   13  A    between atoms: C_37  and  C_39
REMARK                            x       y       z     vdW  Elec       q    Type
REMARK                         _______ _______ _______ _____ _____    ______ ____
ROOT
ATOM      1  O   UNL     1     111.776 129.006 140.939  0.00  0.00    +0.000 OA
ATOM      2  O   UNL     1     111.857 130.980 141.868  0.00  0.00    +0.000 OA
ATOM      3  O   UNL     1     112.103 128.367 143.000  0.00  0.00    +0.000 OA
ATOM      4  C   UNL     1     111.980 129.673 142.434  0.00  0.00    +0.000 C 
ATOM      5  C   UNL     1     111.867 130.160 141.777  0.00  0.00    +0.000 C 
ATOM      6  C   UNL     1     111.765 129.827 141.029  0.00  0.00    +0.000 C 
ATOM      7  C   UNL     1     111.991 128.854 142.343  0.00  0.00    +0.000 C 
ATOM      8  C   UNL     1     111.889 128.520 141.595  0.00  0.00    +0.000 C 
ENDROOT
BRANCH   4   9
ATOM      9  O   UNL     1     112.082 130.007 143.182  0.00  0.00    +0.000 OA
BRANCH   9  11
ATOM     10  O   UNL     1     110.755 129.722 143.630  0.00  0.00    +0.000 OA
ATOM     11  C   UNL     1     111.423 130.205 143.638  0.00  0.00    +0.000 C 
BRANCH  11  12
ATOM     12  C   UNL     1     111.433 130.887 144.102  0.00  0.00    +0.000 C 
ATOM     13  C   UNL     1     111.223 130.848 144.898  0.00  0.00    +0.000 C 
BRANCH  13  15
ATOM     14  O   UNL     1     111.264 133.577 146.753  0.00  0.00    +0.000 OA
ATOM     15  C   UNL     1     111.234 131.530 145.362  0.00  0.00    +0.000 A 
ATOM     16  C   UNL     1     110.568 132.016 145.395  0.00  0.00    +0.000 A 
ATOM     17  C   UNL     1     111.910 131.726 145.793  0.00  0.00    +0.000 A 
ATOM     18  C   UNL     1     110.579 132.699 145.859  0.00  0.00    +0.000 A 
ATOM     19  C   UNL     1     111.920 132.408 146.257  0.00  0.00    +0.000 A 
ATOM     20  C   UNL     1     111.254 132.895 146.290  0.00  0.00    +0.000 A 
ENDBRANCH  13  15
ENDBRANCH  11  12
ENDBRANCH   9  11
ENDBRANCH   4   9
BRANCH   8  21
ATOM     21  O   UNL     1     111.900 127.700 141.505  0.00  0.00    +0.000 OA
BRANCH  21  25
ATOM     22  O   UNL     1     111.963 126.418 138.890  0.00  0.00    +0.000 OA
ATOM     23  O   UNL     1     114.437 126.888 140.307  0.00  0.00    +0.000 OA
ATOM     24  O   UNL     1     114.430 126.256 139.010  0.00  0.00    +0.000 OA
ATOM     25  C   UNL     1     112.324 127.359 140.885  0.00  0.00    +0.000 A 
ATOM     26  C   UNL     1     111.913 127.058 140.193  0.00  0.00    +0.000 A 
ATOM     27  C   UNL     1     113.181 127.303 140.926  0.00  0.00    +0.000 A 
ATOM     28  C   UNL     1     112.364 126.705 139.552  0.00  0.00    +0.000 A 
ATOM     29  C   UNL     1     113.614 126.947 140.276  0.00  0.00    +0.000 A 
ATOM     30  C   UNL     1     113.186 126.652 139.592  0.00  0.00    +0.000 A 
ATOM     31  C   UNL     1     113.607 126.310 138.970  0.00  0.00    +0.000 A 
ATOM     32  C   UNL     1     112.385 126.077 138.269  0.00  0.00    +0.000 A 
ATOM     33  C   UNL     1     113.206 126.023 138.308  0.00  0.00    +0.000 A 
BRANCH  32  35
ATOM     34  O   UNL     1     110.781 124.930 135.622  0.00  0.00    +0.000 OA
ATOM     35  C   UNL     1     111.984 125.790 137.606  0.00  0.00    +0.000 A 
ATOM     36  C   UNL     1     111.985 124.982 137.443  0.00  0.00    +0.000 A 
ATOM     37  C   UNL     1     111.582 126.312 137.109  0.00  0.00    +0.000 A 
ATOM     38  C   UNL     1     111.584 124.695 136.781  0.00  0.00    +0.000 A 
ATOM     39  C   UNL     1     111.182 126.025 136.448  0.00  0.00    +0.000 A 
ATOM     40  C   UNL     1     111.182 125.216 136.284  0.00  0.00    +0.000 A 
BRANCH  38  41
ATOM     41  O   UNL     1     111.585 123.887 136.617  0.00  0.00    +0.000 OA
ATOM     42  C   UNL     1     111.981 123.364 137.117  0.00  0.00    +0.000 C 
ENDBRANCH  38  41
ENDBRANCH  32  35
ENDBRANCH  21  25
ENDBRANCH   8  21
BRANCH   6  43
ATOM     43  C   UNL     1     111.653 130.313 140.373  0.00  0.00    +0.000 C 
BRANCH  43  44
ATOM     44  O   UNL     1     112.164 130.260 139.727  0.00  0.00    +0.000 OA
BRANCH  44  46
ATOM     45  O   UNL     1     111.524 131.270 138.945  0.00  0.00    +0.000 OA
ATOM     46  C   UNL     1     111.933 130.555 138.993  0.00  0.00    +0.000 C 
BRANCH  46  47
ATOM     47  C   UNL     1     112.109 130.135 138.304  0.00  0.00    +0.000 C 
ATOM     48  C   UNL     1     112.756 130.353 137.842  0.00  0.00    +0.000 C 
BRANCH  48  50
ATOM     49  O   UNL     1     113.459 128.675 135.089  0.00  0.00    +0.000 OA
ATOM     50  C   UNL     1     112.932 129.934 137.154  0.00  0.00    +0.000 A 
ATOM     51  C   UNL     1     112.392 129.919 136.530  0.00  0.00    +0.000 A 
ATOM     52  C   UNL     1     113.647 129.529 137.089  0.00  0.00    +0.000 A 
ATOM     53  C   UNL     1     112.568 129.500 135.842  0.00  0.00    +0.000 A 
ATOM     54  C   UNL     1     113.823 129.110 136.402  0.00  0.00    +0.000 A 
ATOM     55  C   UNL     1     113.283 129.095 135.778  0.00  0.00    +0.000 A 
ENDBRANCH  48  50
ENDBRANCH  46  47
ENDBRANCH  44  46
ENDBRANCH  43  44
ENDBRANCH   6  43
TORSDOF 13
ENDMDL
MODEL 5
REMARK VINA RESULT:     -10.5      4.004      6.458
REMARK  Name = 44258208
REMARK  13 active torsions:
REMARK  status: ('A' for Active; 'I' for Inactive)
REMARK    1  A    between atoms: O_2  and  C_16
REMARK    2  A    between atoms: O_2  and  C_23
REMARK    3  A    between atoms: O_4  and  C_20
REMARK    4  A    between atoms: O_4  and  C_22
REMARK    5  A    between atoms: O_6  and  C_21
REMARK    6  A    between atoms: O_6  and  C_26
REMARK    7  A    between atoms: O_12  and  C_44
REMARK    8  A    between atoms: C_18  and  C_21
REMARK    9  A    between atoms: C_23  and  C_27
REMARK   10  A    between atoms: C_26  and  C_31
REMARK   11  A    between atoms: C_32  and  C_36
REMARK   12  A    between atoms: C_34  and  C_38
REMARK   13  A    between atoms: C_37  and  C_39
REMARK                            x       y       z     vdW  Elec       q    Type
REMARK                         _______ _______ _______ _____ _____    ______ ____
ROOT
ATOM      1  O   UNL     1     112.248 129.668 140.641  0.00  0.00    +0.000 OA
ATOM      2  O   UNL     1     112.160 129.203 142.772  0.00  0.00    +0.000 OA
ATOM      3  O   UNL     1     111.294 131.509 141.322  0.00  0.00    +0.000 OA
ATOM      4  C   UNL     1     111.727 130.356 142.047  0.00  0.00    +0.000 C 
ATOM      5  C   UNL     1     112.074 129.607 142.058  0.00  0.00    +0.000 C 
ATOM      6  C   UNL     1     112.335 129.263 141.355  0.00  0.00    +0.000 C 
ATOM      7  C   UNL     1     111.641 130.760 141.333  0.00  0.00    +0.000 C 
ATOM      8  C   UNL     1     111.902 130.416 140.630  0.00  0.00    +0.000 C 
ENDROOT
BRANCH   4   9
ATOM      9  O   UNL     1     111.466 130.700 142.750  0.00  0.00    +0.000 OA
BRANCH   9  11
ATOM     10  O   UNL     1     112.730 131.348 142.908  0.00  0.00    +0.000 OA
ATOM     11  C   UNL     1     111.952 131.231 143.155  0.00  0.00    +0.000 C 
BRANCH  11  12
ATOM     12  C   UNL     1     111.659 131.644 143.806  0.00  0.00    +0.000 C 
ATOM     13  C   UNL     1     112.160 132.129 144.246  0.00  0.00    +0.000 C 
BRANCH  13  15
ATOM     14  O   UNL     1     110.988 133.782 146.851  0.00  0.00    +0.000 OA
ATOM     15  C   UNL     1     111.867 132.542 144.898  0.00  0.00    +0.000 A 
ATOM     16  C   UNL     1     111.892 132.201 145.647  0.00  0.00    +0.000 A 
ATOM     17  C   UNL     1     111.549 133.297 144.798  0.00  0.00    +0.000 A 
ATOM     18  C   UNL     1     111.599 132.614 146.299  0.00  0.00    +0.000 A 
ATOM     19  C   UNL     1     111.256 133.710 145.449  0.00  0.00    +0.000 A 
ATOM     20  C   UNL     1     111.281 133.369 146.200  0.00  0.00    +0.000 A 
ENDBRANCH  13  15
ENDBRANCH  11  12
ENDBRANCH   9  11
ENDBRANCH   4   9
BRANCH   8  21
ATOM     21  O   UNL     1     111.816 130.821 139.916  0.00  0.00    +0.000 OA
BRANCH  21  25
ATOM     22  O   UNL     1     112.881 129.787 137.411  0.00  0.00    +0.000 OA
ATOM     23  O   UNL     1     110.124 129.274 138.106  0.00  0.00    +0.000 OA
ATOM     24  O   UNL     1     110.686 128.778 136.873  0.00  0.00    +0.000 OA
ATOM     25  C   UNL     1     111.713 130.401 139.214  0.00  0.00    +0.000 A 
ATOM     26  C   UNL     1     112.366 130.310 138.664  0.00  0.00    +0.000 A 
ATOM     27  C   UNL     1     110.950 130.050 139.027  0.00  0.00    +0.000 A 
ATOM     28  C   UNL     1     112.249 129.870 137.935  0.00  0.00    +0.000 A 
ATOM     29  C   UNL     1     110.852 129.614 138.294  0.00  0.00    +0.000 A 
ATOM     30  C   UNL     1     111.518 129.534 137.756  0.00  0.00    +0.000 A 
ATOM     31  C   UNL     1     111.418 129.114 137.053  0.00  0.00    +0.000 A 
ATOM     32  C   UNL     1     112.781 129.367 136.708  0.00  0.00    +0.000 A 
ATOM     33  C   UNL     1     112.050 129.031 136.529  0.00  0.00    +0.000 A 
BRANCH  32  35
ATOM     34  O   UNL     1     115.309 129.033 134.612  0.00  0.00    +0.000 OA
ATOM     35  C   UNL     1     113.413 129.283 136.183  0.00  0.00    +0.000 A 
ATOM     36  C   UNL     1     113.772 129.952 135.861  0.00  0.00    +0.000 A 
ATOM     37  C   UNL     1     113.686 128.531 135.982  0.00  0.00    +0.000 A 
ATOM     38  C   UNL     1     114.404 129.869 135.338  0.00  0.00    +0.000 A 
ATOM     39  C   UNL     1     114.317 128.448 135.459  0.00  0.00    +0.000 A 
ATOM     40  C   UNL     1     114.677 129.117 135.136  0.00  0.00    +0.000 A 
BRANCH  38  41
ATOM     41  O   UNL     1     114.764 130.537 135.015  0.00  0.00    +0.000 OA
ATOM     42  C   UNL     1     114.997 131.158 135.506  0.00  0.00    +0.000 C 
ENDBRANCH  38  41
ENDBRANCH  32  35
ENDBRANCH  21  25
ENDBRANCH   8  21
BRANCH   6  43
ATOM     43  C   UNL     1     112.681 128.515 141.366  0.00  0.00    +0.000 C 
BRANCH  43  44
ATOM     44  O   UNL     1     113.220 128.301 140.780  0.00  0.00    +0.000 OA
BRANCH  44  46
ATOM     45  O   UNL     1     113.976 127.189 141.262  0.00  0.00    +0.000 OA
ATOM     46  C   UNL     1     113.461 127.515 140.707  0.00  0.00    +0.000 C 
BRANCH  46  47
ATOM     47  C   UNL     1     113.187 127.056 140.079  0.00  0.00    +0.000 C 
ATOM     48  C   UNL     1     113.719 126.748 139.529  0.00  0.00    +0.000 C 
BRANCH  48  50
ATOM     49  O   UNL     1     112.625 124.908 137.017  0.00  0.00    +0.000 OA
ATOM     50  C   UNL     1     113.445 126.288 138.901  0.00  0.00    +0.000 A 
ATOM     51  C   UNL     1     113.982 125.933 138.386  0.00  0.00    +0.000 A 
ATOM     52  C   UNL     1     112.635 126.184 138.789  0.00  0.00    +0.000 A 
ATOM     53  C   UNL     1     113.709 125.473 137.758  0.00  0.00    +0.000 A 
ATOM     54  C   UNL     1     112.361 125.724 138.161  0.00  0.00    +0.000 A 
ATOM     55  C   UNL     1     112.898 125.369 137.646  0.00  0.00    +0.000 A 
ENDBRANCH  48  50
ENDBRANCH  46  47
ENDBRANCH  44  46
ENDBRANCH  43  44
ENDBRANCH   6  43
TORSDOF 13
ENDMDL
MODEL 6
REMARK VINA RESULT:     -10.5      4.155      8.011
REMARK  Name = 44258208
REMARK  13 active torsions:
REMARK  status: ('A' for Active; 'I' for Inactive)
REMARK    1  A    between atoms: O_2  and  C_16
REMARK    2  A    between atoms: O_2  and  C_23
REMARK    3  A    between atoms: O_4  and  C_20
REMARK    4  A    between atoms: O_4  and  C_22
REMARK    5  A    between atoms: O_6  and  C_21
REMARK    6  A    between atoms: O_6  and  C_26
REMARK    7  A    between atoms: O_12  and  C_44
REMARK    8  A    between atoms: C_18  and  C_21
REMARK    9  A    between atoms: C_23  and  C_27
REMARK   10  A    between atoms: C_26  and  C_31
REMARK   11  A    between atoms: C_32  and  C_36
REMARK   12  A    between atoms: C_34  and  C_38
REMARK   13  A    between atoms: C_37  and  C_39
REMARK                            x       y       z     vdW  Elec       q    Type
REMARK                         _______ _______ _______ _____ _____    ______ ____
ROOT
ATOM      1  O   UNL     1     111.262 127.648 141.790  0.00  0.00    +0.000 OA
ATOM      2  O   UNL     1     110.693 126.026 140.446  0.00  0.00    +0.000 OA
ATOM      3  O   UNL     1     113.208 127.320 140.855  0.00  0.00    +0.000 OA
ATOM      4  C   UNL     1     111.950 126.673 140.651  0.00  0.00    +0.000 C 
ATOM      5  C   UNL     1     111.149 126.593 140.833  0.00  0.00    +0.000 C 
ATOM      6  C   UNL     1     110.805 127.081 141.403  0.00  0.00    +0.000 C 
ATOM      7  C   UNL     1     112.406 127.241 141.038  0.00  0.00    +0.000 C 
ATOM      8  C   UNL     1     112.062 127.728 141.608  0.00  0.00    +0.000 C 
ENDROOT
BRANCH   4   9
ATOM      9  O   UNL     1     112.294 126.185 140.081  0.00  0.00    +0.000 OA
BRANCH   9  11
ATOM     10  O   UNL     1     111.747 126.917 138.982  0.00  0.00    +0.000 OA
ATOM     11  C   UNL     1     112.339 126.437 139.296  0.00  0.00    +0.000 C 
BRANCH  11  12
ATOM     12  C   UNL     1     112.977 126.207 138.826  0.00  0.00    +0.000 C 
ATOM     13  C   UNL     1     112.849 125.954 138.051  0.00  0.00    +0.000 C 
BRANCH  13  15
ATOM     14  O   UNL     1     115.400 125.036 136.170  0.00  0.00    +0.000 OA
ATOM     15  C   UNL     1     113.487 125.725 137.581  0.00  0.00    +0.000 A 
ATOM     16  C   UNL     1     113.737 126.208 136.961  0.00  0.00    +0.000 A 
ATOM     17  C   UNL     1     113.874 125.012 137.731  0.00  0.00    +0.000 A 
ATOM     18  C   UNL     1     114.374 125.978 136.491  0.00  0.00    +0.000 A 
ATOM     19  C   UNL     1     114.511 124.782 137.261  0.00  0.00    +0.000 A 
ATOM     20  C   UNL     1     114.762 125.265 136.640  0.00  0.00    +0.000 A 
ENDBRANCH  13  15
ENDBRANCH  11  12
ENDBRANCH   9  11
ENDBRANCH   4   9
BRANCH   8  21
ATOM     21  O   UNL     1     112.520 128.296 141.995  0.00  0.00    +0.000 OA
BRANCH  21  25
ATOM     22  O   UNL     1     111.526 130.487 143.635  0.00  0.00    +0.000 OA
ATOM     23  O   UNL     1     111.817 130.860 140.785  0.00  0.00    +0.000 OA
ATOM     24  O   UNL     1     111.328 131.923 141.630  0.00  0.00    +0.000 OA
ATOM     25  C   UNL     1     112.244 129.070 142.064  0.00  0.00    +0.000 A 
ATOM     26  C   UNL     1     112.023 129.384 142.832  0.00  0.00    +0.000 A 
ATOM     27  C   UNL     1     112.175 129.569 141.367  0.00  0.00    +0.000 A 
ATOM     28  C   UNL     1     111.737 130.192 142.894  0.00  0.00    +0.000 A 
ATOM     29  C   UNL     1     111.886 130.374 141.449  0.00  0.00    +0.000 A 
ATOM     30  C   UNL     1     111.671 130.670 142.226  0.00  0.00    +0.000 A 
ATOM     31  C   UNL     1     111.394 131.444 142.299  0.00  0.00    +0.000 A 
ATOM     32  C   UNL     1     111.250 131.261 143.708  0.00  0.00    +0.000 A 
ATOM     33  C   UNL     1     111.184 131.739 143.040  0.00  0.00    +0.000 A 
BRANCH  32  35
ATOM     34  O   UNL     1     110.408 132.442 146.673  0.00  0.00    +0.000 OA
ATOM     35  C   UNL     1     111.039 131.557 144.449  0.00  0.00    +0.000 A 
ATOM     36  C   UNL     1     111.612 131.899 144.934  0.00  0.00    +0.000 A 
ATOM     37  C   UNL     1     110.256 131.510 144.705  0.00  0.00    +0.000 A 
ATOM     38  C   UNL     1     111.401 132.194 145.675  0.00  0.00    +0.000 A 
ATOM     39  C   UNL     1     110.046 131.805 145.446  0.00  0.00    +0.000 A 
ATOM     40  C   UNL     1     110.619 132.147 145.931  0.00  0.00    +0.000 A 
BRANCH  38  41
ATOM     41  O   UNL     1     111.974 132.536 146.161  0.00  0.00    +0.000 OA
ATOM     42  C   UNL     1     112.713 132.179 146.241  0.00  0.00    +0.000 C 
ENDBRANCH  38  41
ENDBRANCH  32  35
ENDBRANCH  21  25
ENDBRANCH   8  21
BRANCH   6  43
ATOM     43  C   UNL     1     110.005 127.001 141.585  0.00  0.00    +0.000 C 
BRANCH  43  44
ATOM     44  O   UNL     1     109.660 127.488 142.155  0.00  0.00    +0.000 OA
BRANCH  44  46
ATOM     45  O   UNL     1     108.363 126.914 142.323  0.00  0.00    +0.000 OA
ATOM     46  C   UNL     1     108.841 127.573 142.185  0.00  0.00    +0.000 C 
BRANCH  46  47
ATOM     47  C   UNL     1     108.498 128.315 142.076  0.00  0.00    +0.000 C 
ATOM     48  C   UNL     1     108.325 128.790 142.728  0.00  0.00    +0.000 C 
BRANCH  48  50
ATOM     49  O   UNL     1     106.952 131.759 142.297  0.00  0.00    +0.000 OA
ATOM     50  C   UNL     1     107.982 129.532 142.620  0.00  0.00    +0.000 A 
ATOM     51  C   UNL     1     107.487 129.846 143.200  0.00  0.00    +0.000 A 
ATOM     52  C   UNL     1     108.134 129.961 141.932  0.00  0.00    +0.000 A 
ATOM     53  C   UNL     1     107.143 130.588 143.093  0.00  0.00    +0.000 A 
ATOM     54  C   UNL     1     107.791 130.702 141.824  0.00  0.00    +0.000 A 
ATOM     55  C   UNL     1     107.295 131.016 142.404  0.00  0.00    +0.000 A 
ENDBRANCH  48  50
ENDBRANCH  46  47
ENDBRANCH  44  46
ENDBRANCH  43  44
ENDBRANCH   6  43
TORSDOF 13
ENDMDL
MODEL 7
REMARK VINA RESULT:     -10.4      3.686      6.159
REMARK  Name = 44258208
REMARK  13 active torsions:
REMARK  status: ('A' for Active; 'I' for Inactive)
REMARK    1  A    between atoms: O_2  and  C_16
REMARK    2  A    between atoms: O_2  and  C_23
REMARK    3  A    between atoms: O_4  and  C_20
REMARK    4  A    between atoms: O_4  and  C_22
REMARK    5  A    between atoms: O_6  and  C_21
REMARK    6  A    between atoms: O_6  and  C_26
REMARK    7  A    between atoms: O_12  and  C_44
REMARK    8  A    between atoms: C_18  and  C_21
REMARK    9  A    between atoms: C_23  and  C_27
REMARK   10  A    between atoms: C_26  and  C_31
REMARK   11  A    between atoms: C_32  and  C_36
REMARK   12  A    between atoms: C_34  and  C_38
REMARK   13  A    between atoms: C_37  and  C_39
REMARK                            x       y       z     vdW  Elec       q    Type
REMARK                         _______ _______ _______ _____ _____    ______ ____
ROOT
ATOM      1  O   UNL     1     111.676 129.214 140.310  0.00  0.00    +0.000 OA
ATOM      2  O   UNL     1     110.569 130.382 141.785  0.00  0.00    +0.000 OA
ATOM      3  O   UNL     1     113.298 129.533 141.736  0.00  0.00    +0.000 OA
ATOM      4  C   UNL     1     111.934 129.957 141.760  0.00  0.00    +0.000 C 
ATOM      5  C   UNL     1     111.187 129.984 141.410  0.00  0.00    +0.000 C 
ATOM      6  C   UNL     1     111.058 129.612 140.684  0.00  0.00    +0.000 C 
ATOM      7  C   UNL     1     112.551 129.559 141.385  0.00  0.00    +0.000 C 
ATOM      8  C   UNL     1     112.422 129.188 140.660  0.00  0.00    +0.000 C 
ENDROOT
BRANCH   4   9
ATOM      9  O   UNL     1     112.062 130.329 142.486  0.00  0.00    +0.000 OA
BRANCH   9  11
ATOM     10  O   UNL     1     112.740 131.458 141.931  0.00  0.00    +0.000 OA
ATOM     11  C   UNL     1     112.252 131.131 142.510  0.00  0.00    +0.000 C 
BRANCH  11  12
ATOM     12  C   UNL     1     111.954 131.607 143.114  0.00  0.00    +0.000 C 
ATOM     13  C   UNL     1     112.448 132.143 143.499  0.00  0.00    +0.000 C 
BRANCH  13  15
ATOM     14  O   UNL     1     111.254 134.048 145.915  0.00  0.00    +0.000 OA
ATOM     15  C   UNL     1     112.149 132.620 144.103  0.00  0.00    +0.000 A 
ATOM     16  C   UNL     1     111.894 132.278 144.809  0.00  0.00    +0.000 A 
ATOM     17  C   UNL     1     112.106 133.437 144.000  0.00  0.00    +0.000 A 
ATOM     18  C   UNL     1     111.596 132.754 145.413  0.00  0.00    +0.000 A 
ATOM     19  C   UNL     1     111.808 133.913 144.604  0.00  0.00    +0.000 A 
ATOM     20  C   UNL     1     111.552 133.572 145.311  0.00  0.00    +0.000 A 
ENDBRANCH  13  15
ENDBRANCH  11  12
ENDBRANCH   9  11
ENDBRANCH   4   9
BRANCH   8  21
ATOM     21  O   UNL     1     113.041 128.790 140.285  0.00  0.00    +0.000 OA
BRANCH  21  25
ATOM     22  O   UNL     1     112.452 127.155 137.948  0.00  0.00    +0.000 OA
ATOM     23  O   UNL     1     113.559 129.800 137.594  0.00  0.00    +0.000 OA
ATOM     24  O   UNL     1     113.255 128.961 136.460  0.00  0.00    +0.000 OA
ATOM     25  C   UNL     1     113.030 128.689 139.467  0.00  0.00    +0.000 A 
ATOM     26  C   UNL     1     112.740 127.956 139.124  0.00  0.00    +0.000 A 
ATOM     27  C   UNL     1     113.308 129.317 138.949  0.00  0.00    +0.000 A 
ATOM     28  C   UNL     1     112.732 127.861 138.271  0.00  0.00    +0.000 A 
ATOM     29  C   UNL     1     113.293 129.203 138.098  0.00  0.00    +0.000 A 
ATOM     30  C   UNL     1     113.000 128.463 137.775  0.00  0.00    +0.000 A 
ATOM     31  C   UNL     1     112.987 128.359 136.956  0.00  0.00    +0.000 A 
ATOM     32  C   UNL     1     112.440 127.051 137.130  0.00  0.00    +0.000 A 
ATOM     33  C   UNL     1     112.708 127.653 136.634  0.00  0.00    +0.000 A 
BRANCH  32  35
ATOM     34  O   UNL     1     111.321 124.226 135.841  0.00  0.00    +0.000 OA
ATOM     35  C   UNL     1     112.160 126.344 136.807  0.00  0.00    +0.000 A 
ATOM     36  C   UNL     1     112.663 125.694 136.742  0.00  0.00    +0.000 A 
ATOM     37  C   UNL     1     111.378 126.290 136.550  0.00  0.00    +0.000 A 
ATOM     38  C   UNL     1     112.383 124.988 136.420  0.00  0.00    +0.000 A 
ATOM     39  C   UNL     1     111.099 125.584 136.229  0.00  0.00    +0.000 A 
ATOM     40  C   UNL     1     111.601 124.932 136.163  0.00  0.00    +0.000 A 
BRANCH  38  41
ATOM     41  O   UNL     1     112.885 124.336 136.355  0.00  0.00    +0.000 OA
ATOM     42  C   UNL     1     113.476 124.213 136.917  0.00  0.00    +0.000 C 
ENDBRANCH  38  41
ENDBRANCH  32  35
ENDBRANCH  21  25
ENDBRANCH   8  21
BRANCH   6  43
ATOM     43  C   UNL     1     110.312 129.639 140.334  0.00  0.00    +0.000 C 
BRANCH  43  44
ATOM     44  O   UNL     1     110.214 129.994 139.596  0.00  0.00    +0.000 OA
BRANCH  44  46
ATOM     45  O   UNL     1     108.794 129.904 139.471  0.00  0.00    +0.000 OA
ATOM     46  C   UNL     1     109.547 129.826 139.142  0.00  0.00    +0.000 C 
BRANCH  46  47
ATOM     47  C   UNL     1     109.631 129.580 138.359  0.00  0.00    +0.000 C 
ATOM     48  C   UNL     1     109.378 130.067 137.744  0.00  0.00    +0.000 C 
BRANCH  48  50
ATOM     49  O   UNL     1     109.712 129.080 134.612  0.00  0.00    +0.000 OA
ATOM     50  C   UNL     1     109.462 129.821 136.960  0.00  0.00    +0.000 A 
ATOM     51  C   UNL     1     109.062 129.150 136.695  0.00  0.00    +0.000 A 
ATOM     52  C   UNL     1     109.945 130.244 136.444  0.00  0.00    +0.000 A 
ATOM     53  C   UNL     1     109.145 128.902 135.912  0.00  0.00    +0.000 A 
ATOM     54  C   UNL     1     110.028 129.998 135.662  0.00  0.00    +0.000 A 
ATOM     55  C   UNL     1     109.629 129.327 135.396  0.00  0.00    +0.000 A 
ENDBRANCH  48  50
ENDBRANCH  46  47
ENDBRANCH  44  46
ENDBRANCH  43  44
ENDBRANCH   6  43
TORSDOF 13
ENDMDL
MODEL 8
REMARK VINA RESULT:     -10.4      3.849      6.206
REMARK  Name = 44258208
REMARK  13 active torsions:
REMARK  status: ('A' for Active; 'I' for Inactive)
REMARK    1  A    between atoms: O_2  and  C_16
REMARK    2  A    between atoms: O_2  and  C_23
REMARK    3  A    between atoms: O_4  and  C_20
REMARK    4  A    between atoms: O_4  and  C_22
REMARK    5  A    between atoms: O_6  and  C_21
REMARK    6  A    between atoms: O_6  and  C_26
REMARK    7  A    between atoms: O_12  and  C_44
REMARK    8  A    between atoms: C_18  and  C_21
REMARK    9  A    between atoms: C_23  and  C_27
REMARK   10  A    between atoms: C_26  and  C_31
REMARK   11  A    between atoms: C_32  and  C_36
REMARK   12  A    between atoms: C_34  and  C_38
REMARK   13  A    between atoms: C_37  and  C_39
REMARK                            x       y       z     vdW  Elec       q    Type
REMARK                         _______ _______ _______ _____ _____    ______ ____
ROOT
ATOM      1  O   UNL     1     112.151 129.370 140.742  0.00  0.00    +0.000 OA
ATOM      2  O   UNL     1     112.095 128.643 142.799  0.00  0.00    +0.000 OA
ATOM      3  O   UNL     1     112.215 131.301 141.756  0.00  0.00    +0.000 OA
ATOM      4  C   UNL     1     112.155 129.972 142.278  0.00  0.00    +0.000 C 
ATOM      5  C   UNL     1     112.124 129.156 142.154  0.00  0.00    +0.000 C 
ATOM      6  C   UNL     1     112.122 128.855 141.386  0.00  0.00    +0.000 C 
ATOM      7  C   UNL     1     112.184 130.486 141.633  0.00  0.00    +0.000 C 
ATOM      8  C   UNL     1     112.182 130.184 140.865  0.00  0.00    +0.000 C 
ENDROOT
BRANCH   4   9
ATOM      9  O   UNL     1     112.157 130.273 143.046  0.00  0.00    +0.000 OA
BRANCH   9  11
ATOM     10  O   UNL     1     110.734 130.242 143.175  0.00  0.00    +0.000 OA
ATOM     11  C   UNL     1     111.462 130.576 143.372  0.00  0.00    +0.000 C 
BRANCH  11  12
ATOM     12  C   UNL     1     111.495 131.212 143.895  0.00  0.00    +0.000 C 
ATOM     13  C   UNL     1     111.144 131.154 144.639  0.00  0.00    +0.000 C 
BRANCH  13  15
ATOM     14  O   UNL     1     111.276 133.701 146.733  0.00  0.00    +0.000 OA
ATOM     15  C   UNL     1     111.177 131.791 145.163  0.00  0.00    +0.000 A 
ATOM     16  C   UNL     1     110.604 132.382 145.129  0.00  0.00    +0.000 A 
ATOM     17  C   UNL     1     111.784 131.835 145.720  0.00  0.00    +0.000 A 
ATOM     18  C   UNL     1     110.637 133.019 145.653  0.00  0.00    +0.000 A 
ATOM     19  C   UNL     1     111.817 132.472 146.243  0.00  0.00    +0.000 A 
ATOM     20  C   UNL     1     111.243 133.064 146.210  0.00  0.00    +0.000 A 
ENDBRANCH  13  15
ENDBRANCH  11  12
ENDBRANCH   9  11
ENDBRANCH   4   9
BRANCH   8  21
ATOM     21  O   UNL     1     112.211 130.699 140.220  0.00  0.00    +0.000 OA
BRANCH  21  25
ATOM     22  O   UNL     1     110.835 129.618 137.892  0.00  0.00    +0.000 OA
ATOM     23  O   UNL     1     113.707 129.925 137.834  0.00  0.00    +0.000 OA
ATOM     24  O   UNL     1     112.992 129.393 136.700  0.00  0.00    +0.000 OA
ATOM     25  C   UNL     1     112.232 130.397 139.453  0.00  0.00    +0.000 A 
ATOM     26  C   UNL     1     111.505 130.158 139.061  0.00  0.00    +0.000 A 
ATOM     27  C   UNL     1     112.981 130.319 139.038  0.00  0.00    +0.000 A 
ATOM     28  C   UNL     1     111.537 129.845 138.262  0.00  0.00    +0.000 A 
ATOM     29  C   UNL     1     112.993 130.004 138.239  0.00  0.00    +0.000 A 
ATOM     30  C   UNL     1     112.256 129.770 137.865  0.00  0.00    +0.000 A 
ATOM     31  C   UNL     1     112.273 129.468 137.098  0.00  0.00    +0.000 A 
ATOM     32  C   UNL     1     110.853 129.315 137.124  0.00  0.00    +0.000 A 
ATOM     33  C   UNL     1     111.572 129.241 136.727  0.00  0.00    +0.000 A 
BRANCH  32  35
ATOM     34  O   UNL     1     108.047 128.405 135.645  0.00  0.00    +0.000 OA
ATOM     35  C   UNL     1     110.151 129.088 136.754  0.00  0.00    +0.000 A 
ATOM     36  C   UNL     1     109.671 129.656 136.398  0.00  0.00    +0.000 A 
ATOM     37  C   UNL     1     109.931 128.293 136.741  0.00  0.00    +0.000 A 
ATOM     38  C   UNL     1     108.969 129.428 136.028  0.00  0.00    +0.000 A 
ATOM     39  C   UNL     1     109.230 128.066 136.371  0.00  0.00    +0.000 A 
ATOM     40  C   UNL     1     108.748 128.633 136.015  0.00  0.00    +0.000 A 
BRANCH  38  41
ATOM     41  O   UNL     1     108.487 129.995 135.672  0.00  0.00    +0.000 OA
ATOM     42  C   UNL     1     108.365 130.723 136.041  0.00  0.00    +0.000 C 
ENDBRANCH  38  41
ENDBRANCH  32  35
ENDBRANCH  21  25
ENDBRANCH   8  21
BRANCH   6  43
ATOM     43  C   UNL     1     112.092 128.041 141.263  0.00  0.00    +0.000 C 
BRANCH  43  44
ATOM     44  O   UNL     1     112.607 127.684 140.727  0.00  0.00    +0.000 OA
BRANCH  44  46
ATOM     45  O   UNL     1     112.531 126.311 141.115  0.00  0.00    +0.000 OA
ATOM     46  C   UNL     1     112.511 126.890 140.527  0.00  0.00    +0.000 C 
BRANCH  46  47
ATOM     47  C   UNL     1     112.395 126.673 139.740  0.00  0.00    +0.000 C 
ATOM     48  C   UNL     1     113.010 126.330 139.311  0.00  0.00    +0.000 C 
BRANCH  48  50
ATOM     49  O   UNL     1     112.548 125.463 136.161  0.00  0.00    +0.000 OA
ATOM     50  C   UNL     1     112.894 126.113 138.523  0.00  0.00    +0.000 A 
ATOM     51  C   UNL     1     113.515 126.174 137.984  0.00  0.00    +0.000 A 
ATOM     52  C   UNL     1     112.158 125.835 138.276  0.00  0.00    +0.000 A 
ATOM     53  C   UNL     1     113.400 125.957 137.196  0.00  0.00    +0.000 A 
ATOM     54  C   UNL     1     112.043 125.619 137.489  0.00  0.00    +0.000 A 
ATOM     55  C   UNL     1     112.664 125.680 136.949  0.00  0.00    +0.000 A 
ENDBRANCH  48  50
ENDBRANCH  46  47
ENDBRANCH  44  46
ENDBRANCH  43  44
ENDBRANCH   6  43
TORSDOF 13
ENDMDL
MODEL 9
REMARK VINA RESULT:     -10.4      2.984      5.872
REMARK  Name = 44258208
REMARK  13 active torsions:
REMARK  status: ('A' for Active; 'I' for Inactive)
REMARK    1  A    between atoms: O_2  and  C_16
REMARK    2  A    between atoms: O_2  and  C_23
REMARK    3  A    between atoms: O_4  and  C_20
REMARK    4  A    between atoms: O_4  and  C_22
REMARK    5  A    between atoms: O_6  and  C_21
REMARK    6  A    between atoms: O_6  and  C_26
REMARK    7  A    between atoms: O_12  and  C_44
REMARK    8  A    between atoms: C_18  and  C_21
REMARK    9  A    between atoms: C_23  and  C_27
REMARK   10  A    between atoms: C_26  and  C_31
REMARK   11  A    between atoms: C_32  and  C_36
REMARK   12  A    between atoms: C_34  and  C_38
REMARK   13  A    between atoms: C_37  and  C_39
REMARK                            x       y       z     vdW  Elec       q    Type
REMARK                         _______ _______ _______ _____ _____    ______ ____
ROOT
ATOM      1  O   UNL     1     109.744 127.878 140.513  0.00  0.00    +0.000 OA
ATOM      2  O   UNL     1     108.070 129.235 140.856  0.00  0.00    +0.000 OA
ATOM      3  O   UNL     1     108.886 126.880 142.254  0.00  0.00    +0.000 OA
ATOM      4  C   UNL     1     108.478 128.058 141.555  0.00  0.00    +0.000 C 
ATOM      5  C   UNL     1     108.591 128.602 140.945  0.00  0.00    +0.000 C 
ATOM      6  C   UNL     1     109.224 128.512 140.424  0.00  0.00    +0.000 C 
ATOM      7  C   UNL     1     108.999 127.424 141.644  0.00  0.00    +0.000 C 
ATOM      8  C   UNL     1     109.632 127.334 141.123  0.00  0.00    +0.000 C 
ENDROOT
BRANCH   4   9
ATOM      9  O   UNL     1     107.845 128.148 142.076  0.00  0.00    +0.000 OA
BRANCH   9  11
ATOM     10  O   UNL     1     107.004 127.125 141.538  0.00  0.00    +0.000 OA
ATOM     11  C   UNL     1     107.094 127.877 141.864  0.00  0.00    +0.000 C 
BRANCH  11  12
ATOM     12  C   UNL     1     106.435 128.359 141.977  0.00  0.00    +0.000 C 
ATOM     13  C   UNL     1     105.713 128.027 142.198  0.00  0.00    +0.000 C 
BRANCH  13  15
ATOM     14  O   UNL     1     103.075 129.957 142.652  0.00  0.00    +0.000 OA
ATOM     15  C   UNL     1     105.053 128.509 142.311  0.00  0.00    +0.000 A 
ATOM     16  C   UNL     1     104.925 128.866 143.043  0.00  0.00    +0.000 A 
ATOM     17  C   UNL     1     104.523 128.634 141.692  0.00  0.00    +0.000 A 
ATOM     18  C   UNL     1     104.266 129.349 143.156  0.00  0.00    +0.000 A 
ATOM     19  C   UNL     1     103.863 129.116 141.805  0.00  0.00    +0.000 A 
ATOM     20  C   UNL     1     103.734 129.474 142.538  0.00  0.00    +0.000 A 
ENDBRANCH  13  15
ENDBRANCH  11  12
ENDBRANCH   9  11
ENDBRANCH   4   9
BRANCH   8  21
ATOM     21  O   UNL     1     110.152 126.700 141.212  0.00  0.00    +0.000 OA
BRANCH  21  25
ATOM     22  O   UNL     1     112.236 126.089 139.272  0.00  0.00    +0.000 OA
ATOM     23  O   UNL     1     112.864 127.727 141.568  0.00  0.00    +0.000 OA
ATOM     24  O   UNL     1     113.870 127.404 140.586  0.00  0.00    +0.000 OA
ATOM     25  C   UNL     1     110.933 126.768 140.955  0.00  0.00    +0.000 A 
ATOM     26  C   UNL     1     111.185 126.384 140.230  0.00  0.00    +0.000 A 
ATOM     27  C   UNL     1     111.501 127.225 141.412  0.00  0.00    +0.000 A 
ATOM     28  C   UNL     1     112.000 126.461 139.970  0.00  0.00    +0.000 A 
ATOM     29  C   UNL     1     112.312 127.291 141.136  0.00  0.00    +0.000 A 
ATOM     30  C   UNL     1     112.545 126.899 140.408  0.00  0.00    +0.000 A 
ATOM     31  C   UNL     1     113.325 126.965 140.148  0.00  0.00    +0.000 A 
ATOM     32  C   UNL     1     113.017 126.156 139.012  0.00  0.00    +0.000 A 
ATOM     33  C   UNL     1     113.561 126.594 139.450  0.00  0.00    +0.000 A 
BRANCH  32  35
ATOM     34  O   UNL     1     113.959 124.669 136.220  0.00  0.00    +0.000 OA
ATOM     35  C   UNL     1     113.252 125.784 138.314  0.00  0.00    +0.000 A 
ATOM     36  C   UNL     1     112.686 125.474 137.801  0.00  0.00    +0.000 A 
ATOM     37  C   UNL     1     114.054 125.723 138.129  0.00  0.00    +0.000 A 
ATOM     38  C   UNL     1     112.922 125.102 137.103  0.00  0.00    +0.000 A 
ATOM     39  C   UNL     1     114.289 125.352 137.431  0.00  0.00    +0.000 A 
ATOM     40  C   UNL     1     113.723 125.041 136.918  0.00  0.00    +0.000 A 
BRANCH  38  41
ATOM     41  O   UNL     1     112.356 124.791 136.590  0.00  0.00    +0.000 OA
ATOM     42  C   UNL     1     111.749 124.315 136.884  0.00  0.00    +0.000 C 
ENDBRANCH  38  41
ENDBRANCH  32  35
ENDBRANCH  21  25
ENDBRANCH   8  21
BRANCH   6  43
ATOM     43  C   UNL     1     109.337 129.055 139.814  0.00  0.00    +0.000 C 
BRANCH  43  44
ATOM     44  O   UNL     1     109.626 128.803 139.084  0.00  0.00    +0.000 OA
BRANCH  44  46
ATOM     45  O   UNL     1     109.329 129.920 138.244  0.00  0.00    +0.000 OA
ATOM     46  C   UNL     1     109.864 129.356 138.521  0.00  0.00    +0.000 C 
BRANCH  46  47
ATOM     47  C   UNL     1     110.638 129.346 138.233  0.00  0.00    +0.000 C 
ATOM     48  C   UNL     1     110.790 129.084 137.467  0.00  0.00    +0.000 C 
BRANCH  48  50
ATOM     49  O   UNL     1     113.882 129.043 136.314  0.00  0.00    +0.000 OA
ATOM     50  C   UNL     1     111.563 129.074 137.179  0.00  0.00    +0.000 A 
ATOM     51  C   UNL     1     111.736 128.678 136.476  0.00  0.00    +0.000 A 
ATOM     52  C   UNL     1     112.163 129.459 137.593  0.00  0.00    +0.000 A 
ATOM     53  C   UNL     1     112.509 128.668 136.188  0.00  0.00    +0.000 A 
ATOM     54  C   UNL     1     112.935 129.449 137.306  0.00  0.00    +0.000 A 
ATOM     55  C   UNL     1     113.108 129.053 136.603  0.00  0.00    +0.000 A 
ENDBRANCH  48  50
ENDBRANCH  46  47
ENDBRANCH  44  46
ENDBRANCH  43  44
ENDBRANCH   6  43
TORSDOF 13
ENDMDL
MODEL 10
REMARK VINA RESULT:     -10.3      7.819     12.222
REMARK  Name = 44258208
REMARK  13 active torsions:
REMARK  status: ('A' for Active; 'I' for Inactive)
REMARK    1  A    between atoms: O_2  and  C_16
REMARK    2  A    between atoms: O_2  and  C_23
REMARK    3  A    between atoms: O_4  and  C_20
REMARK    4  A    between atoms: O_4  and  C_22
REMARK    5  A    between atoms: O_6  and  C_21
REMARK    6  A    between atoms: O_6  and  C_26
REMARK    7  A    between atoms: O_12  and  C_44
REMARK    8  A    between atoms: C_18  and  C_21
REMARK    9  A    between atoms: C_23  and  C_27
REMARK   10  A    between atoms: C_26  and  C_31
REMARK   11  A    between atoms: C_32  and  C_36
REMARK   12  A    between atoms: C_34  and  C_38
REMARK   13  A    between atoms: C_37  and  C_39
REMARK                            x       y       z     vdW  Elec       q    Type
REMARK                         _______ _______ _______ _____ _____    ______ ____
ROOT
ATOM      1  O   UNL     1     105.823 124.878 145.124  0.00  0.00    +0.000 OA
ATOM      2  O   UNL     1     104.842 124.194 143.298  0.00  0.00    +0.000 OA
ATOM      3  O   UNL     1     106.836 126.199 143.711  0.00  0.00    +0.000 OA
ATOM      4  C   UNL     1     105.839 125.196 143.505  0.00  0.00    +0.000 C 
ATOM      5  C   UNL     1     105.336 124.615 143.806  0.00  0.00    +0.000 C 
ATOM      6  C   UNL     1     105.328 124.456 144.616  0.00  0.00    +0.000 C 
ATOM      7  C   UNL     1     106.333 125.618 144.013  0.00  0.00    +0.000 C 
ATOM      8  C   UNL     1     106.325 125.459 144.823  0.00  0.00    +0.000 C 
ENDROOT
BRANCH   4   9
ATOM      9  O   UNL     1     105.847 125.355 142.695  0.00  0.00    +0.000 OA
BRANCH   9  11
ATOM     10  O   UNL     1     106.963 124.555 142.300  0.00  0.00    +0.000 OA
ATOM     11  C   UNL     1     106.192 124.817 142.173  0.00  0.00    +0.000 C 
BRANCH  11  12
ATOM     12  C   UNL     1     105.765 124.542 141.523  0.00  0.00    +0.000 C 
ATOM     13  C   UNL     1     106.045 124.673 140.759  0.00  0.00    +0.000 C 
BRANCH  13  15
ATOM     14  O   UNL     1     104.336 123.570 138.160  0.00  0.00    +0.000 OA
ATOM     15  C   UNL     1     105.618 124.397 140.109  0.00  0.00    +0.000 A 
ATOM     16  C   UNL     1     105.219 124.930 139.622  0.00  0.00    +0.000 A 
ATOM     17  C   UNL     1     105.590 123.589 139.947  0.00  0.00    +0.000 A 
ATOM     18  C   UNL     1     104.792 124.654 138.973  0.00  0.00    +0.000 A 
ATOM     19  C   UNL     1     105.163 123.313 139.298  0.00  0.00    +0.000 A 
ATOM     20  C   UNL     1     104.763 123.846 138.810  0.00  0.00    +0.000 A 
ENDBRANCH  13  15
ENDBRANCH  11  12
ENDBRANCH   9  11
ENDBRANCH   4   9
BRANCH   8  21
ATOM     21  O   UNL     1     106.820 125.881 145.330  0.00  0.00    +0.000 OA
BRANCH  21  25
ATOM     22  O   UNL     1     105.180 127.293 147.280  0.00  0.00    +0.000 OA
ATOM     23  O   UNL     1     107.053 125.287 148.181  0.00  0.00    +0.000 OA
ATOM     24  O   UNL     1     106.225 126.007 149.117  0.00  0.00    +0.000 OA
ATOM     25  C   UNL     1     106.592 126.013 146.112  0.00  0.00    +0.000 A 
ATOM     26  C   UNL     1     105.990 126.599 146.294  0.00  0.00    +0.000 A 
ATOM     27  C   UNL     1     106.955 125.566 146.751  0.00  0.00    +0.000 A 
ATOM     28  C   UNL     1     105.759 126.730 147.111  0.00  0.00    +0.000 A 
ATOM     29  C   UNL     1     106.711 125.711 147.562  0.00  0.00    +0.000 A 
ATOM     30  C   UNL     1     106.107 126.301 147.724  0.00  0.00    +0.000 A 
ATOM     31  C   UNL     1     105.877 126.436 148.504  0.00  0.00    +0.000 A 
ATOM     32  C   UNL     1     104.950 127.428 148.060  0.00  0.00    +0.000 A 
ATOM     33  C   UNL     1     105.298 127.000 148.672  0.00  0.00    +0.000 A 
BRANCH  32  35
ATOM     34  O   UNL     1     102.635 129.683 148.732  0.00  0.00    +0.000 OA
ATOM     35  C   UNL     1     104.371 127.992 148.228  0.00  0.00    +0.000 A 
ATOM     36  C   UNL     1     104.573 128.791 148.265  0.00  0.00    +0.000 A 
ATOM     37  C   UNL     1     103.592 127.756 148.359  0.00  0.00    +0.000 A 
ATOM     38  C   UNL     1     103.994 129.354 148.433  0.00  0.00    +0.000 A 
ATOM     39  C   UNL     1     103.014 128.320 148.527  0.00  0.00    +0.000 A 
ATOM     40  C   UNL     1     103.214 129.119 148.564  0.00  0.00    +0.000 A 
BRANCH  38  41
ATOM     41  O   UNL     1     104.195 130.154 148.470  0.00  0.00    +0.000 OA
ATOM     42  C   UNL     1     104.920 130.383 148.791  0.00  0.00    +0.000 C 
ENDBRANCH  38  41
ENDBRANCH  32  35
ENDBRANCH  21  25
ENDBRANCH   8  21
BRANCH   6  43
ATOM     43  C   UNL     1     104.826 123.876 144.917  0.00  0.00    +0.000 C 
BRANCH  43  44
ATOM     44  O   UNL     1     104.207 124.085 145.421  0.00  0.00    +0.000 OA
BRANCH  44  46
ATOM     45  O   UNL     1     104.140 122.741 145.899  0.00  0.00    +0.000 OA
ATOM     46  C   UNL     1     103.859 123.517 145.906  0.00  0.00    +0.000 C 
BRANCH  46  47
ATOM     47  C   UNL     1     103.229 123.723 146.398  0.00  0.00    +0.000 C 
ATOM     48  C   UNL     1     103.375 124.037 147.146  0.00  0.00    +0.000 C 
BRANCH  48  50
ATOM     49  O   UNL     1     100.859 124.860 149.116  0.00  0.00    +0.000 OA
ATOM     50  C   UNL     1     102.746 124.243 147.638  0.00  0.00    +0.000 A 
ATOM     51  C   UNL     1     102.810 124.141 148.454  0.00  0.00    +0.000 A 
ATOM     52  C   UNL     1     102.053 124.551 147.315  0.00  0.00    +0.000 A 
ATOM     53  C   UNL     1     102.181 124.346 148.947  0.00  0.00    +0.000 A 
ATOM     54  C   UNL     1     101.424 124.756 147.807  0.00  0.00    +0.000 A 
ATOM     55  C   UNL     1     101.488 124.654 148.623  0.00  0.00    +0.000 A 
ENDBRANCH  48  50
ENDBRANCH  46  47
ENDBRANCH  44  46
ENDBRANCH  43  44
ENDBRANCH   6  43
TORSDOF 13
ENDMDL
