MODEL 1
REMARK VINA RESULT:      -7.8      0.000      0.000
REMARK  Name = 44258044
REMARK  5 active torsions:
REMARK  status: ('A' for Active; 'I' for Inactive)
REMARK    1  A    between atoms: O_2  and  C_14
REMARK    2  A    between atoms: O_3  and  C_18
REMARK    3  A    between atoms: O_6  and  C_22
REMARK    4  A    between atoms: O_7  and  C_23
REMARK    5  A    between atoms: C_11  and  C_13
REMARK                            x       y       z     vdW  Elec       q    Type
REMARK                         _______ _______ _______ _____ _____    ______ ____
ROOT
ATOM      1  O   UNL     1     104.711 124.856 146.960  0.00  0.00    +0.000 OA
ATOM      2  O   UNL     1     103.327 123.026 145.203  0.00  0.00    +0.000 OA
ATOM      3  O   UNL     1     104.577 123.630 144.814  0.00  0.00    +0.000 OA
ATOM      4  O   UNL     1     102.190 123.675 147.815  0.00  0.00    +0.000 OA
ATOM      5  C   UNL     1     104.026 123.951 146.092  0.00  0.00    +0.000 A 
ATOM      6  C   UNL     1     105.308 124.944 146.397  0.00  0.00    +0.000 A 
ATOM      7  C   UNL     1     104.070 124.359 146.807  0.00  0.00    +0.000 A 
ATOM      8  C   UNL     1     105.263 124.535 145.681  0.00  0.00    +0.000 A 
ATOM      9  C   UNL     1     104.622 124.039 145.529  0.00  0.00    +0.000 A 
ATOM     10  C   UNL     1     103.363 123.431 145.922  0.00  0.00    +0.000 A 
ATOM     11  C   UNL     1     103.455 124.276 147.402  0.00  0.00    +0.000 A 
ATOM     12  C   UNL     1     102.738 123.335 146.504  0.00  0.00    +0.000 A 
ATOM     13  C   UNL     1     102.785 123.760 147.249  0.00  0.00    +0.000 A 
ENDROOT
BRANCH   6  15
ATOM     14  O   UNL     1     107.870 126.932 147.007  0.00  0.00    +0.000 OA
ATOM     15  C   UNL     1     105.948 125.440 146.549  0.00  0.00    +0.000 A 
ATOM     16  C   UNL     1     105.904 126.241 146.355  0.00  0.00    +0.000 A 
ATOM     17  C   UNL     1     106.633 125.136 146.896  0.00  0.00    +0.000 A 
ATOM     18  C   UNL     1     107.273 125.634 147.048  0.00  0.00    +0.000 A 
ATOM     19  C   UNL     1     106.545 126.738 146.508  0.00  0.00    +0.000 A 
ATOM     20  C   UNL     1     107.229 126.434 146.855  0.00  0.00    +0.000 A 
BRANCH  18  21
ATOM     21  O   UNL     1     107.958 125.331 147.395  0.00  0.00    +0.000 OA
ATOM     22  C   UNL     1     107.911 124.917 148.108  0.00  0.00    +0.000 C 
ENDBRANCH  18  21
BRANCH  19  23
ATOM     23  O   UNL     1     106.501 127.539 146.314  0.00  0.00    +0.000 OA
ATOM     24  C   UNL     1     105.810 127.964 146.468  0.00  0.00    +0.000 C 
ENDBRANCH  19  23
ENDBRANCH   6  15
BRANCH   8  25
ATOM     25  O   UNL     1     105.859 124.623 145.119  0.00  0.00    +0.000 OA
ATOM     26  C   UNL     1     105.693 124.504 144.319  0.00  0.00    +0.000 C 
ENDBRANCH   8  25
BRANCH  12  27
ATOM     27  O   UNL     1     102.099 122.838 146.349  0.00  0.00    +0.000 OA
ATOM     28  C   UNL     1     101.379 123.157 146.101  0.00  0.00    +0.000 C 
ENDBRANCH  12  27
TORSDOF 5
ENDMDL
MODEL 2
REMARK VINA RESULT:      -7.7      1.178      2.447
REMARK  Name = 44258044
REMARK  5 active torsions:
REMARK  status: ('A' for Active; 'I' for Inactive)
REMARK    1  A    between atoms: O_2  and  C_14
REMARK    2  A    between atoms: O_3  and  C_18
REMARK    3  A    between atoms: O_6  and  C_22
REMARK    4  A    between atoms: O_7  and  C_23
REMARK    5  A    between atoms: C_11  and  C_13
REMARK                            x       y       z     vdW  Elec       q    Type
REMARK                         _______ _______ _______ _____ _____    ______ ____
ROOT
ATOM      1  O   UNL     1     104.770 124.234 146.875  0.00  0.00    +0.000 OA
ATOM      2  O   UNL     1     102.037 124.854 147.582  0.00  0.00    +0.000 OA
ATOM      3  O   UNL     1     103.141 125.567 148.176  0.00  0.00    +0.000 OA
ATOM      4  O   UNL     1     102.593 122.751 145.632  0.00  0.00    +0.000 OA
ATOM      5  C   UNL     1     103.418 124.540 147.224  0.00  0.00    +0.000 A 
ATOM      6  C   UNL     1     105.036 124.818 147.394  0.00  0.00    +0.000 A 
ATOM      7  C   UNL     1     103.961 124.096 146.790  0.00  0.00    +0.000 A 
ATOM      8  C   UNL     1     104.493 125.263 147.828  0.00  0.00    +0.000 A 
ATOM      9  C   UNL     1     103.684 125.123 147.742  0.00  0.00    +0.000 A 
ATOM     10  C   UNL     1     102.573 124.404 147.143  0.00  0.00    +0.000 A 
ATOM     11  C   UNL     1     103.696 123.485 146.246  0.00  0.00    +0.000 A 
ATOM     12  C   UNL     1     102.290 123.798 146.604  0.00  0.00    +0.000 A 
ATOM     13  C   UNL     1     102.856 123.336 146.153  0.00  0.00    +0.000 A 
ENDROOT
BRANCH   6  15
ATOM     14  O   UNL     1     108.271 125.371 147.736  0.00  0.00    +0.000 OA
ATOM     15  C   UNL     1     105.844 124.957 147.479  0.00  0.00    +0.000 A 
ATOM     16  C   UNL     1     106.267 124.577 148.079  0.00  0.00    +0.000 A 
ATOM     17  C   UNL     1     106.231 125.474 146.966  0.00  0.00    +0.000 A 
ATOM     18  C   UNL     1     107.040 125.612 147.052  0.00  0.00    +0.000 A 
ATOM     19  C   UNL     1     107.075 124.716 148.163  0.00  0.00    +0.000 A 
ATOM     20  C   UNL     1     107.462 125.233 147.650  0.00  0.00    +0.000 A 
BRANCH  18  21
ATOM     21  O   UNL     1     107.426 126.129 146.539  0.00  0.00    +0.000 OA
ATOM     22  C   UNL     1     107.022 126.775 146.221  0.00  0.00    +0.000 C 
ENDBRANCH  18  21
BRANCH  19  23
ATOM     23  O   UNL     1     107.498 124.336 148.763  0.00  0.00    +0.000 OA
ATOM     24  C   UNL     1     107.159 124.239 149.509  0.00  0.00    +0.000 C 
ENDBRANCH  19  23
ENDBRANCH   6  15
BRANCH   8  25
ATOM     25  O   UNL     1     104.758 125.846 148.347  0.00  0.00    +0.000 OA
ATOM     26  C   UNL     1     104.224 126.383 148.672  0.00  0.00    +0.000 C 
ENDBRANCH   8  25
BRANCH  12  27
ATOM     27  O   UNL     1     101.481 123.661 146.521  0.00  0.00    +0.000 OA
ATOM     28  C   UNL     1     101.126 123.033 146.920  0.00  0.00    +0.000 C 
ENDBRANCH  12  27
TORSDOF 5
ENDMDL
MODEL 3
REMARK VINA RESULT:      -7.7      1.151      2.131
REMARK  Name = 44258044
REMARK  5 active torsions:
REMARK  status: ('A' for Active; 'I' for Inactive)
REMARK    1  A    between atoms: O_2  and  C_14
REMARK    2  A    between atoms: O_3  and  C_18
REMARK    3  A    between atoms: O_6  and  C_22
REMARK    4  A    between atoms: O_7  and  C_23
REMARK    5  A    between atoms: C_11  and  C_13
REMARK                            x       y       z     vdW  Elec       q    Type
REMARK                         _______ _______ _______ _____ _____    ______ ____
ROOT
ATOM      1  O   UNL     1     103.769 124.978 147.095  0.00  0.00    +0.000 OA
ATOM      2  O   UNL     1     101.834 122.854 146.792  0.00  0.00    +0.000 OA
ATOM      3  O   UNL     1     103.080 122.835 146.066  0.00  0.00    +0.000 OA
ATOM      4  O   UNL     1     101.275 125.084 148.594  0.00  0.00    +0.000 OA
ATOM      5  C   UNL     1     102.811 123.928 146.946  0.00  0.00    +0.000 A 
ATOM      6  C   UNL     1     104.268 124.598 146.557  0.00  0.00    +0.000 A 
ATOM      7  C   UNL     1     103.041 124.642 147.288  0.00  0.00    +0.000 A 
ATOM      8  C   UNL     1     104.038 123.884 146.214  0.00  0.00    +0.000 A 
ATOM      9  C   UNL     1     103.310 123.549 146.409  0.00  0.00    +0.000 A 
ATOM     10  C   UNL     1     102.055 123.568 147.140  0.00  0.00    +0.000 A 
ATOM     11  C   UNL     1     102.531 125.046 147.850  0.00  0.00    +0.000 A 
ATOM     12  C   UNL     1     101.532 123.958 147.699  0.00  0.00    +0.000 A 
ATOM     13  C   UNL     1     101.771 124.702 148.056  0.00  0.00    +0.000 A 
ENDROOT
BRANCH   6  15
ATOM     14  O   UNL     1     107.182 125.940 145.783  0.00  0.00    +0.000 OA
ATOM     15  C   UNL     1     104.996 124.934 146.363  0.00  0.00    +0.000 A 
ATOM     16  C   UNL     1     105.668 124.746 146.805  0.00  0.00    +0.000 A 
ATOM     17  C   UNL     1     105.054 125.457 145.728  0.00  0.00    +0.000 A 
ATOM     18  C   UNL     1     105.782 125.793 145.535  0.00  0.00    +0.000 A 
ATOM     19  C   UNL     1     106.396 125.082 146.611  0.00  0.00    +0.000 A 
ATOM     20  C   UNL     1     106.453 125.605 145.976  0.00  0.00    +0.000 A 
BRANCH  18  21
ATOM     21  O   UNL     1     105.840 126.316 144.899  0.00  0.00    +0.000 OA
ATOM     22  C   UNL     1     105.393 127.010 144.895  0.00  0.00    +0.000 C 
ENDBRANCH  18  21
BRANCH  19  23
ATOM     23  O   UNL     1     107.067 124.894 147.054  0.00  0.00    +0.000 OA
ATOM     24  C   UNL     1     107.034 124.904 147.878  0.00  0.00    +0.000 C 
ENDBRANCH  19  23
ENDBRANCH   6  15
BRANCH   8  25
ATOM     25  O   UNL     1     104.536 123.506 145.677  0.00  0.00    +0.000 OA
ATOM     26  C   UNL     1     104.219 123.012 145.098  0.00  0.00    +0.000 C 
ENDBRANCH   8  25
BRANCH  12  27
ATOM     27  O   UNL     1     100.804 123.621 147.891  0.00  0.00    +0.000 OA
ATOM     28  C   UNL     1     100.710 123.224 148.609  0.00  0.00    +0.000 C 
ENDBRANCH  12  27
TORSDOF 5
ENDMDL
MODEL 4
REMARK VINA RESULT:      -7.7     11.059     13.468
REMARK  Name = 44258044
REMARK  5 active torsions:
REMARK  status: ('A' for Active; 'I' for Inactive)
REMARK    1  A    between atoms: O_2  and  C_14
REMARK    2  A    between atoms: O_3  and  C_18
REMARK    3  A    between atoms: O_6  and  C_22
REMARK    4  A    between atoms: O_7  and  C_23
REMARK    5  A    between atoms: C_11  and  C_13
REMARK                            x       y       z     vdW  Elec       q    Type
REMARK                         _______ _______ _______ _____ _____    ______ ____
ROOT
ATOM      1  O   UNL     1     113.033 127.378 136.158  0.00  0.00    +0.000 OA
ATOM      2  O   UNL     1     113.164 129.661 137.925  0.00  0.00    +0.000 OA
ATOM      3  O   UNL     1     112.395 128.492 138.274  0.00  0.00    +0.000 OA
ATOM      4  O   UNL     1     114.606 129.704 135.385  0.00  0.00    +0.000 OA
ATOM      5  C   UNL     1     113.098 128.508 137.031  0.00  0.00    +0.000 A 
ATOM      6  C   UNL     1     112.541 126.991 136.697  0.00  0.00    +0.000 A 
ATOM      7  C   UNL     1     113.311 128.136 136.326  0.00  0.00    +0.000 A 
ATOM      8  C   UNL     1     112.329 127.362 137.402  0.00  0.00    +0.000 A 
ATOM      9  C   UNL     1     112.608 128.121 137.569  0.00  0.00    +0.000 A 
ATOM     10  C   UNL     1     113.382 129.298 137.217  0.00  0.00    +0.000 A 
ATOM     11  C   UNL     1     113.822 128.530 135.757  0.00  0.00    +0.000 A 
ATOM     12  C   UNL     1     113.894 129.706 136.660  0.00  0.00    +0.000 A 
ATOM     13  C   UNL     1     114.115 129.319 135.926  0.00  0.00    +0.000 A 
ENDROOT
BRANCH   6  15
ATOM     14  O   UNL     1     111.431 123.956 136.026  0.00  0.00    +0.000 OA
ATOM     15  C   UNL     1     112.263 126.233 136.529  0.00  0.00    +0.000 A 
ATOM     16  C   UNL     1     112.695 125.572 136.772  0.00  0.00    +0.000 A 
ATOM     17  C   UNL     1     111.555 126.134 136.118  0.00  0.00    +0.000 A 
ATOM     18  C   UNL     1     111.278 125.375 135.951  0.00  0.00    +0.000 A 
ATOM     19  C   UNL     1     112.417 124.814 136.605  0.00  0.00    +0.000 A 
ATOM     20  C   UNL     1     111.708 124.715 136.194  0.00  0.00    +0.000 A 
BRANCH  18  21
ATOM     21  O   UNL     1     110.569 125.277 135.540  0.00  0.00    +0.000 OA
ATOM     22  C   UNL     1     110.373 125.792 134.925  0.00  0.00    +0.000 C 
ENDBRANCH  18  21
BRANCH  19  23
ATOM     23  O   UNL     1     112.848 124.153 136.848  0.00  0.00    +0.000 OA
ATOM     24  C   UNL     1     113.670 124.195 136.904  0.00  0.00    +0.000 C 
ENDBRANCH  19  23
ENDBRANCH   6  15
BRANCH   8  25
ATOM     25  O   UNL     1     111.838 126.975 137.940  0.00  0.00    +0.000 OA
ATOM     26  C   UNL     1     111.459 127.403 138.534  0.00  0.00    +0.000 C 
ENDBRANCH   8  25
BRANCH  12  27
ATOM     27  O   UNL     1     114.171 130.464 136.830  0.00  0.00    +0.000 OA
ATOM     28  C   UNL     1     113.783 131.124 136.521  0.00  0.00    +0.000 C 
ENDBRANCH  12  27
TORSDOF 5
ENDMDL
MODEL 5
REMARK VINA RESULT:      -7.7     12.010     13.224
REMARK  Name = 44258044
REMARK  5 active torsions:
REMARK  status: ('A' for Active; 'I' for Inactive)
REMARK    1  A    between atoms: O_2  and  C_14
REMARK    2  A    between atoms: O_3  and  C_18
REMARK    3  A    between atoms: O_6  and  C_22
REMARK    4  A    between atoms: O_7  and  C_23
REMARK    5  A    between atoms: C_11  and  C_13
REMARK                            x       y       z     vdW  Elec       q    Type
REMARK                         _______ _______ _______ _____ _____    ______ ____
ROOT
ATOM      1  O   UNL     1     113.519 126.957 136.619  0.00  0.00    +0.000 OA
ATOM      2  O   UNL     1     111.374 125.129 135.982  0.00  0.00    +0.000 OA
ATOM      3  O   UNL     1     111.230 126.549 135.772  0.00  0.00    +0.000 OA
ATOM      4  O   UNL     1     113.883 124.103 137.071  0.00  0.00    +0.000 OA
ATOM      5  C   UNL     1     112.459 126.052 136.305  0.00  0.00    +0.000 A 
ATOM      6  C   UNL     1     113.053 127.590 136.369  0.00  0.00    +0.000 A 
ATOM      7  C   UNL     1     113.222 126.188 136.587  0.00  0.00    +0.000 A 
ATOM      8  C   UNL     1     112.290 127.454 136.086  0.00  0.00    +0.000 A 
ATOM      9  C   UNL     1     111.993 126.685 136.054  0.00  0.00    +0.000 A 
ATOM     10  C   UNL     1     112.138 125.255 136.266  0.00  0.00    +0.000 A 
ATOM     11  C   UNL     1     113.717 125.537 136.851  0.00  0.00    +0.000 A 
ATOM     12  C   UNL     1     112.619 124.593 136.526  0.00  0.00    +0.000 A 
ATOM     13  C   UNL     1     113.414 124.734 136.820  0.00  0.00    +0.000 A 
ENDROOT
BRANCH   6  15
ATOM     14  O   UNL     1     114.244 130.665 136.495  0.00  0.00    +0.000 OA
ATOM     15  C   UNL     1     113.350 128.359 136.401  0.00  0.00    +0.000 A 
ATOM     16  C   UNL     1     113.769 128.666 135.759  0.00  0.00    +0.000 A 
ATOM     17  C   UNL     1     113.229 128.821 137.074  0.00  0.00    +0.000 A 
ATOM     18  C   UNL     1     113.527 129.590 137.105  0.00  0.00    +0.000 A 
ATOM     19  C   UNL     1     114.067 129.435 135.791  0.00  0.00    +0.000 A 
ATOM     20  C   UNL     1     113.946 129.897 136.464  0.00  0.00    +0.000 A 
BRANCH  18  21
ATOM     21  O   UNL     1     113.406 130.052 137.777  0.00  0.00    +0.000 OA
ATOM     22  C   UNL     1     113.447 129.708 138.527  0.00  0.00    +0.000 C 
ENDBRANCH  18  21
BRANCH  19  23
ATOM     23  O   UNL     1     114.486 129.742 135.150  0.00  0.00    +0.000 OA
ATOM     24  C   UNL     1     114.937 129.241 134.674  0.00  0.00    +0.000 C 
ENDBRANCH  19  23
ENDBRANCH   6  15
BRANCH   8  25
ATOM     25  O   UNL     1     111.824 128.087 135.836  0.00  0.00    +0.000 OA
ATOM     26  C   UNL     1     111.193 127.956 135.321  0.00  0.00    +0.000 C 
ENDBRANCH   8  25
BRANCH  12  27
ATOM     27  O   UNL     1     112.320 123.824 136.493  0.00  0.00    +0.000 OA
ATOM     28  C   UNL     1     112.011 123.472 137.172  0.00  0.00    +0.000 C 
ENDBRANCH  12  27
TORSDOF 5
ENDMDL
MODEL 6
REMARK VINA RESULT:      -7.5      9.190     10.509
REMARK  Name = 44258044
REMARK  5 active torsions:
REMARK  status: ('A' for Active; 'I' for Inactive)
REMARK    1  A    between atoms: O_2  and  C_14
REMARK    2  A    between atoms: O_3  and  C_18
REMARK    3  A    between atoms: O_6  and  C_22
REMARK    4  A    between atoms: O_7  and  C_23
REMARK    5  A    between atoms: C_11  and  C_13
REMARK                            x       y       z     vdW  Elec       q    Type
REMARK                         _______ _______ _______ _____ _____    ______ ____
ROOT
ATOM      1  O   UNL     1     111.457 131.739 145.208  0.00  0.00    +0.000 OA
ATOM      2  O   UNL     1     112.197 132.292 142.470  0.00  0.00    +0.000 OA
ATOM      3  O   UNL     1     112.098 133.352 143.443  0.00  0.00    +0.000 OA
ATOM      4  O   UNL     1     111.637 129.548 143.297  0.00  0.00    +0.000 OA
ATOM      5  C   UNL     1     111.823 132.012 143.853  0.00  0.00    +0.000 A 
ATOM      6  C   UNL     1     111.519 132.542 145.386  0.00  0.00    +0.000 A 
ATOM      7  C   UNL     1     111.609 131.474 144.441  0.00  0.00    +0.000 A 
ATOM      8  C   UNL     1     111.733 133.080 144.798  0.00  0.00    +0.000 A 
ATOM      9  C   UNL     1     111.885 132.814 144.031  0.00  0.00    +0.000 A 
ATOM     10  C   UNL     1     111.984 131.747 143.051  0.00  0.00    +0.000 A 
ATOM     11  C   UNL     1     111.542 130.634 144.268  0.00  0.00    +0.000 A 
ATOM     12  C   UNL     1     111.922 130.912 142.860  0.00  0.00    +0.000 A 
ATOM     13  C   UNL     1     111.699 130.352 143.472  0.00  0.00    +0.000 A 
ENDROOT
BRANCH   6  15
ATOM     14  O   UNL     1     110.908 133.602 148.451  0.00  0.00    +0.000 OA
ATOM     15  C   UNL     1     111.367 132.807 146.152  0.00  0.00    +0.000 A 
ATOM     16  C   UNL     1     110.619 133.098 146.347  0.00  0.00    +0.000 A 
ATOM     17  C   UNL     1     111.961 132.782 146.723  0.00  0.00    +0.000 A 
ATOM     18  C   UNL     1     111.808 133.047 147.490  0.00  0.00    +0.000 A 
ATOM     19  C   UNL     1     110.467 133.362 147.113  0.00  0.00    +0.000 A 
ATOM     20  C   UNL     1     111.061 133.337 147.684  0.00  0.00    +0.000 A 
BRANCH  18  21
ATOM     21  O   UNL     1     112.402 133.022 148.061  0.00  0.00    +0.000 OA
ATOM     22  C   UNL     1     112.952 132.405 148.058  0.00  0.00    +0.000 C 
ENDBRANCH  18  21
BRANCH  19  23
ATOM     23  O   UNL     1     109.719 133.653 147.308  0.00  0.00    +0.000 OA
ATOM     24  C   UNL     1     109.043 133.295 146.997  0.00  0.00    +0.000 C 
ENDBRANCH  19  23
ENDBRANCH   6  15
BRANCH   8  25
ATOM     25  O   UNL     1     111.794 133.883 144.976  0.00  0.00    +0.000 OA
ATOM     26  C   UNL     1     111.904 134.432 144.370  0.00  0.00    +0.000 C 
ENDBRANCH   8  25
BRANCH  12  27
ATOM     27  O   UNL     1     112.074 130.649 142.093  0.00  0.00    +0.000 OA
ATOM     28  C   UNL     1     112.801 130.303 141.912  0.00  0.00    +0.000 C 
ENDBRANCH  12  27
TORSDOF 5
ENDMDL
MODEL 7
REMARK VINA RESULT:      -7.4      1.472      2.122
REMARK  Name = 44258044
REMARK  5 active torsions:
REMARK  status: ('A' for Active; 'I' for Inactive)
REMARK    1  A    between atoms: O_2  and  C_14
REMARK    2  A    between atoms: O_3  and  C_18
REMARK    3  A    between atoms: O_6  and  C_22
REMARK    4  A    between atoms: O_7  and  C_23
REMARK    5  A    between atoms: C_11  and  C_13
REMARK                            x       y       z     vdW  Elec       q    Type
REMARK                         _______ _______ _______ _____ _____    ______ ____
ROOT
ATOM      1  O   UNL     1     103.613 124.342 147.478  0.00  0.00    +0.000 OA
ATOM      2  O   UNL     1     102.938 123.095 144.960  0.00  0.00    +0.000 OA
ATOM      3  O   UNL     1     104.242 123.673 145.179  0.00  0.00    +0.000 OA
ATOM      4  O   UNL     1     100.962 123.196 147.108  0.00  0.00    +0.000 OA
ATOM      5  C   UNL     1     103.279 123.725 146.233  0.00  0.00    +0.000 A 
ATOM      6  C   UNL     1     104.368 124.513 147.190  0.00  0.00    +0.000 A 
ATOM      7  C   UNL     1     103.069 123.948 146.999  0.00  0.00    +0.000 A 
ATOM      8  C   UNL     1     104.577 124.290 146.424  0.00  0.00    +0.000 A 
ATOM      9  C   UNL     1     104.032 123.896 145.946  0.00  0.00    +0.000 A 
ATOM     10  C   UNL     1     102.720 123.314 145.725  0.00  0.00    +0.000 A 
ATOM     11  C   UNL     1     102.286 123.775 147.310  0.00  0.00    +0.000 A 
ATOM     12  C   UNL     1     101.933 123.134 146.019  0.00  0.00    +0.000 A 
ATOM     13  C   UNL     1     101.715 123.366 146.817  0.00  0.00    +0.000 A 
ENDROOT
BRANCH   6  15
ATOM     14  O   UNL     1     106.546 126.086 149.106  0.00  0.00    +0.000 OA
ATOM     15  C   UNL     1     104.912 124.907 147.669  0.00  0.00    +0.000 A 
ATOM     16  C   UNL     1     105.510 124.482 148.049  0.00  0.00    +0.000 A 
ATOM     17  C   UNL     1     104.859 125.724 147.768  0.00  0.00    +0.000 A 
ATOM     18  C   UNL     1     105.404 126.117 148.248  0.00  0.00    +0.000 A 
ATOM     19  C   UNL     1     106.054 124.876 148.528  0.00  0.00    +0.000 A 
ATOM     20  C   UNL     1     106.001 125.693 148.627  0.00  0.00    +0.000 A 
BRANCH  18  21
ATOM     21  O   UNL     1     105.351 126.934 148.347  0.00  0.00    +0.000 OA
ATOM     22  C   UNL     1     104.611 127.298 148.385  0.00  0.00    +0.000 C 
ENDBRANCH  18  21
BRANCH  19  23
ATOM     23  O   UNL     1     106.651 124.451 148.907  0.00  0.00    +0.000 OA
ATOM     24  C   UNL     1     106.474 123.989 149.567  0.00  0.00    +0.000 C 
ENDBRANCH  19  23
ENDBRANCH   6  15
BRANCH   8  25
ATOM     25  O   UNL     1     105.331 124.461 146.136  0.00  0.00    +0.000 OA
ATOM     26  C   UNL     1     105.454 124.541 145.325  0.00  0.00    +0.000 C 
ENDBRANCH   8  25
BRANCH  12  27
ATOM     27  O   UNL     1     101.391 122.740 145.538  0.00  0.00    +0.000 OA
ATOM     28  C   UNL     1     100.850 123.170 145.087  0.00  0.00    +0.000 C 
ENDBRANCH  12  27
TORSDOF 5
ENDMDL
MODEL 8
REMARK VINA RESULT:      -7.3     11.639     13.032
REMARK  Name = 44258044
REMARK  5 active torsions:
REMARK  status: ('A' for Active; 'I' for Inactive)
REMARK    1  A    between atoms: O_2  and  C_14
REMARK    2  A    between atoms: O_3  and  C_18
REMARK    3  A    between atoms: O_6  and  C_22
REMARK    4  A    between atoms: O_7  and  C_23
REMARK    5  A    between atoms: C_11  and  C_13
REMARK                            x       y       z     vdW  Elec       q    Type
REMARK                         _______ _______ _______ _____ _____    ______ ____
ROOT
ATOM      1  O   UNL     1     112.628 127.407 136.246  0.00  0.00    +0.000 OA
ATOM      2  O   UNL     1     110.048 127.328 134.947  0.00  0.00    +0.000 OA
ATOM      3  O   UNL     1     110.629 126.140 135.522  0.00  0.00    +0.000 OA
ATOM      4  O   UNL     1     111.519 129.846 135.106  0.00  0.00    +0.000 OA
ATOM      5  C   UNL     1     111.352 127.369 135.603  0.00  0.00    +0.000 A 
ATOM      6  C   UNL     1     112.571 126.599 136.406  0.00  0.00    +0.000 A 
ATOM      7  C   UNL     1     112.019 127.791 135.844  0.00  0.00    +0.000 A 
ATOM      8  C   UNL     1     111.904 126.176 136.165  0.00  0.00    +0.000 A 
ATOM      9  C   UNL     1     111.295 126.562 135.763  0.00  0.00    +0.000 A 
ATOM     10  C   UNL     1     110.711 127.759 135.184  0.00  0.00    +0.000 A 
ATOM     11  C   UNL     1     112.090 128.632 135.683  0.00  0.00    +0.000 A 
ATOM     12  C   UNL     1     110.765 128.599 135.014  0.00  0.00    +0.000 A 
ATOM     13  C   UNL     1     111.459 129.039 135.265  0.00  0.00    +0.000 A 
ENDROOT
BRANCH   6  15
ATOM     14  O   UNL     1     115.010 125.060 138.011  0.00  0.00    +0.000 OA
ATOM     15  C   UNL     1     113.180 126.214 136.808  0.00  0.00    +0.000 A 
ATOM     16  C   UNL     1     113.771 125.824 136.384  0.00  0.00    +0.000 A 
ATOM     17  C   UNL     1     113.199 126.220 137.633  0.00  0.00    +0.000 A 
ATOM     18  C   UNL     1     113.809 125.835 138.033  0.00  0.00    +0.000 A 
ATOM     19  C   UNL     1     114.381 125.440 136.785  0.00  0.00    +0.000 A 
ATOM     20  C   UNL     1     114.400 125.445 137.610  0.00  0.00    +0.000 A 
BRANCH  18  21
ATOM     21  O   UNL     1     113.829 125.841 138.858  0.00  0.00    +0.000 OA
ATOM     22  C   UNL     1     113.602 126.518 139.272  0.00  0.00    +0.000 C 
ENDBRANCH  18  21
BRANCH  19  23
ATOM     23  O   UNL     1     114.972 125.049 136.361  0.00  0.00    +0.000 OA
ATOM     24  C   UNL     1     115.348 125.429 135.733  0.00  0.00    +0.000 C 
ENDBRANCH  19  23
ENDBRANCH   6  15
BRANCH   8  25
ATOM     25  O   UNL     1     111.847 125.370 136.326  0.00  0.00    +0.000 OA
ATOM     26  C   UNL     1     111.169 124.953 136.108  0.00  0.00    +0.000 C 
ENDBRANCH   8  25
BRANCH  12  27
ATOM     27  O   UNL     1     110.154 128.981 134.612  0.00  0.00    +0.000 OA
ATOM     28  C   UNL     1     109.643 129.485 135.021  0.00  0.00    +0.000 C 
ENDBRANCH  12  27
TORSDOF 5
ENDMDL
MODEL 9
REMARK VINA RESULT:      -7.2     11.638     13.958
REMARK  Name = 44258044
REMARK  5 active torsions:
REMARK  status: ('A' for Active; 'I' for Inactive)
REMARK    1  A    between atoms: O_2  and  C_14
REMARK    2  A    between atoms: O_3  and  C_18
REMARK    3  A    between atoms: O_6  and  C_22
REMARK    4  A    between atoms: O_7  and  C_23
REMARK    5  A    between atoms: C_11  and  C_13
REMARK                            x       y       z     vdW  Elec       q    Type
REMARK                         _______ _______ _______ _____ _____    ______ ____
ROOT
ATOM      1  O   UNL     1     111.667 129.514 135.586  0.00  0.00    +0.000 OA
ATOM      2  O   UNL     1     113.859 130.554 137.154  0.00  0.00    +0.000 OA
ATOM      3  O   UNL     1     112.495 130.681 137.605  0.00  0.00    +0.000 OA
ATOM      4  O   UNL     1     114.395 129.219 134.612  0.00  0.00    +0.000 OA
ATOM      5  C   UNL     1     112.751 130.028 136.361  0.00  0.00    +0.000 A 
ATOM      6  C   UNL     1     111.133 129.779 136.158  0.00  0.00    +0.000 A 
ATOM      7  C   UNL     1     112.475 129.639 135.688  0.00  0.00    +0.000 A 
ATOM      8  C   UNL     1     111.409 130.168 136.831  0.00  0.00    +0.000 A 
ATOM      9  C   UNL     1     112.219 130.292 136.932  0.00  0.00    +0.000 A 
ATOM     10  C   UNL     1     113.592 130.164 136.478  0.00  0.00    +0.000 A 
ATOM     11  C   UNL     1     113.021 129.359 135.085  0.00  0.00    +0.000 A 
ATOM     12  C   UNL     1     114.152 129.891 135.887  0.00  0.00    +0.000 A 
ATOM     13  C   UNL     1     113.865 129.485 135.186  0.00  0.00    +0.000 A 
ENDROOT
BRANCH   6  15
ATOM     14  O   UNL     1     107.897 129.276 135.750  0.00  0.00    +0.000 OA
ATOM     15  C   UNL     1     110.324 129.654 136.055  0.00  0.00    +0.000 A 
ATOM     16  C   UNL     1     109.973 128.966 136.347  0.00  0.00    +0.000 A 
ATOM     17  C   UNL     1     109.866 130.216 135.662  0.00  0.00    +0.000 A 
ATOM     18  C   UNL     1     109.057 130.089 135.560  0.00  0.00    +0.000 A 
ATOM     19  C   UNL     1     109.164 128.841 136.245  0.00  0.00    +0.000 A 
ATOM     20  C   UNL     1     108.706 129.403 135.851  0.00  0.00    +0.000 A 
BRANCH  18  21
ATOM     21  O   UNL     1     108.598 130.651 135.167  0.00  0.00    +0.000 OA
ATOM     22  C   UNL     1     108.953 131.176 134.637  0.00  0.00    +0.000 C 
ENDBRANCH  18  21
BRANCH  19  23
ATOM     23  O   UNL     1     108.814 128.153 136.537  0.00  0.00    +0.000 OA
ATOM     24  C   UNL     1     109.119 127.414 136.331  0.00  0.00    +0.000 C 
ENDBRANCH  19  23
ENDBRANCH   6  15
BRANCH   8  25
ATOM     25  O   UNL     1     110.876 130.432 137.401  0.00  0.00    +0.000 OA
ATOM     26  C   UNL     1     111.138 130.913 138.019  0.00  0.00    +0.000 C 
ENDBRANCH   8  25
BRANCH  12  27
ATOM     27  O   UNL     1     114.961 130.017 135.991  0.00  0.00    +0.000 OA
ATOM     28  C   UNL     1     115.336 130.636 135.596  0.00  0.00    +0.000 C 
ENDBRANCH  12  27
TORSDOF 5
ENDMDL
MODEL 10
REMARK VINA RESULT:      -7.1      1.723      3.752
REMARK  Name = 44258044
REMARK  5 active torsions:
REMARK  status: ('A' for Active; 'I' for Inactive)
REMARK    1  A    between atoms: O_2  and  C_14
REMARK    2  A    between atoms: O_3  and  C_18
REMARK    3  A    between atoms: O_6  and  C_22
REMARK    4  A    between atoms: O_7  and  C_23
REMARK    5  A    between atoms: C_11  and  C_13
REMARK                            x       y       z     vdW  Elec       q    Type
REMARK                         _______ _______ _______ _____ _____    ______ ____
ROOT
ATOM      1  O   UNL     1     105.976 125.767 145.960  0.00  0.00    +0.000 OA
ATOM      2  O   UNL     1     105.400 124.638 143.362  0.00  0.00    +0.000 OA
ATOM      3  O   UNL     1     105.007 123.960 144.573  0.00  0.00    +0.000 OA
ATOM      4  O   UNL     1     106.800 127.194 143.559  0.00  0.00    +0.000 OA
ATOM      5  C   UNL     1     105.692 125.209 144.675  0.00  0.00    +0.000 A 
ATOM      6  C   UNL     1     105.614 125.118 146.320  0.00  0.00    +0.000 A 
ATOM      7  C   UNL     1     106.014 125.812 145.137  0.00  0.00    +0.000 A 
ATOM      8  C   UNL     1     105.291 124.516 145.858  0.00  0.00    +0.000 A 
ATOM      9  C   UNL     1     105.330 124.562 145.035  0.00  0.00    +0.000 A 
ATOM     10  C   UNL     1     105.726 125.246 143.816  0.00  0.00    +0.000 A 
ATOM     11  C   UNL     1     106.394 126.492 144.773  0.00  0.00    +0.000 A 
ATOM     12  C   UNL     1     106.101 125.918 143.435  0.00  0.00    +0.000 A 
ATOM     13  C   UNL     1     106.437 126.545 143.917  0.00  0.00    +0.000 A 
ENDROOT
BRANCH   6  15
ATOM     14  O   UNL     1     105.461 124.937 149.612  0.00  0.00    +0.000 OA
ATOM     15  C   UNL     1     105.575 125.073 147.143  0.00  0.00    +0.000 A 
ATOM     16  C   UNL     1     106.189 124.718 147.566  0.00  0.00    +0.000 A 
ATOM     17  C   UNL     1     104.923 125.382 147.544  0.00  0.00    +0.000 A 
ATOM     18  C   UNL     1     104.886 125.337 148.367  0.00  0.00    +0.000 A 
ATOM     19  C   UNL     1     106.150 124.673 148.388  0.00  0.00    +0.000 A 
ATOM     20  C   UNL     1     105.499 124.982 148.789  0.00  0.00    +0.000 A 
BRANCH  18  21
ATOM     21  O   UNL     1     104.234 125.646 148.767  0.00  0.00    +0.000 OA
ATOM     22  C   UNL     1     103.977 126.414 148.606  0.00  0.00    +0.000 C 
ENDBRANCH  18  21
BRANCH  19  23
ATOM     23  O   UNL     1     106.765 124.318 148.811  0.00  0.00    +0.000 OA
ATOM     24  C   UNL     1     107.543 124.563 148.692  0.00  0.00    +0.000 C 
ENDBRANCH  19  23
ENDBRANCH   6  15
BRANCH   8  25
ATOM     25  O   UNL     1     104.929 123.869 146.219  0.00  0.00    +0.000 OA
ATOM     26  C   UNL     1     104.308 123.480 145.840  0.00  0.00    +0.000 C 
ENDBRANCH   8  25
BRANCH  12  27
ATOM     27  O   UNL     1     106.139 125.961 142.612  0.00  0.00    +0.000 OA
ATOM     28  C   UNL     1     106.848 125.800 142.223  0.00  0.00    +0.000 C 
ENDBRANCH  12  27
TORSDOF 5
ENDMDL
