MODEL 1
REMARK VINA RESULT:     -10.5      0.000      0.000
REMARK  Name = 131752173
REMARK  8 active torsions:
REMARK  status: ('A' for Active; 'I' for Inactive)
REMARK    1  A    between atoms: O_2  and  C_18
REMARK    2  A    between atoms: O_2  and  C_20
REMARK    3  A    between atoms: O_10  and  C_34
REMARK    4  A    between atoms: O_10  and  C_35
REMARK    5  A    between atoms: C_16  and  C_19
REMARK    6  A    between atoms: C_27  and  C_29
REMARK    7  A    between atoms: C_35  and  C_37
REMARK    8  A    between atoms: C_36  and  C_38
REMARK                            x       y       z     vdW  Elec       q    Type
REMARK                         _______ _______ _______ _____ _____    ______ ____
ROOT
ATOM      1  O   UNL     1     105.286 126.803 144.315  0.00  0.00    +0.000 OA
ATOM      2  O   UNL     1     107.291 126.263 146.324  0.00  0.00    +0.000 OA
ATOM      3  O   UNL     1     107.228 127.542 145.660  0.00  0.00    +0.000 OA
ATOM      4  C   UNL     1     105.659 124.958 145.520  0.00  0.00    +0.000 A 
ATOM      5  C   UNL     1     105.305 125.499 144.953  0.00  0.00    +0.000 A 
ATOM      6  C   UNL     1     106.333 125.215 145.986  0.00  0.00    +0.000 A 
ATOM      7  C   UNL     1     105.630 126.288 144.861  0.00  0.00    +0.000 A 
ATOM      8  C   UNL     1     106.277 126.535 145.309  0.00  0.00    +0.000 A 
ATOM      9  C   UNL     1     106.644 126.008 145.880  0.00  0.00    +0.000 A 
ATOM     10  C   UNL     1     106.581 127.296 145.212  0.00  0.00    +0.000 A 
ATOM     11  C   UNL     1     105.589 127.564 144.218  0.00  0.00    +0.000 A 
ATOM     12  C   UNL     1     106.237 127.810 144.666  0.00  0.00    +0.000 A 
ENDROOT
BRANCH  11  13
ATOM     13  C   UNL     1     105.245 128.078 143.672  0.00  0.00    +0.000 A 
ATOM     14  C   UNL     1     105.236 127.882 142.871  0.00  0.00    +0.000 A 
ATOM     15  C   UNL     1     104.910 128.787 143.927  0.00  0.00    +0.000 A 
ATOM     16  C   UNL     1     104.892 128.396 142.325  0.00  0.00    +0.000 A 
ATOM     17  C   UNL     1     104.566 129.301 143.381  0.00  0.00    +0.000 A 
ATOM     18  C   UNL     1     104.557 129.105 142.580  0.00  0.00    +0.000 A 
BRANCH  18  19
ATOM     19  O   UNL     1     104.212 129.618 142.033  0.00  0.00    +0.000 OA
BRANCH  19  21
ATOM     20  O   UNL     1     102.890 129.855 142.518  0.00  0.00    +0.000 OA
ATOM     21  C   UNL     1     103.397 129.609 141.915  0.00  0.00    +0.000 C 
BRANCH  21  22
ATOM     22  C   UNL     1     103.087 129.354 141.194  0.00  0.00    +0.000 C 
ATOM     23  C   UNL     1     102.692 129.887 140.703  0.00  0.00    +0.000 C 
BRANCH  23  26
ATOM     24  O   UNL     1     103.605 132.595 140.639  0.00  0.00    +0.000 OA
ATOM     25  O   UNL     1     102.356 133.039 141.621  0.00  0.00    +0.000 OA
ATOM     26  C   UNL     1     102.608 130.675 140.933  0.00  0.00    +0.000 A 
ATOM     27  C   UNL     1     103.148 131.241 140.671  0.00  0.00    +0.000 A 
ATOM     28  C   UNL     1     101.984 130.897 141.424  0.00  0.00    +0.000 A 
ATOM     29  C   UNL     1     103.065 132.029 140.900  0.00  0.00    +0.000 A 
ATOM     30  C   UNL     1     102.440 132.251 141.392  0.00  0.00    +0.000 A 
ATOM     31  C   UNL     1     101.900 131.685 141.653  0.00  0.00    +0.000 A 
ENDBRANCH  23  26
ENDBRANCH  21  22
ENDBRANCH  19  21
ENDBRANCH  18  19
ENDBRANCH  11  13
BRANCH   4  32
ATOM     32  O   UNL     1     105.353 124.197 145.615  0.00  0.00    +0.000 OA
BRANCH  32  41
ATOM     33  O   UNL     1     104.515 124.469 146.741  0.00  0.00    +0.000 OA
ATOM     34  O   UNL     1     102.516 123.751 147.240  0.00  0.00    +0.000 OA
ATOM     35  O   UNL     1     102.772 122.984 145.802  0.00  0.00    +0.000 OA
ATOM     36  O   UNL     1     104.191 123.207 144.990  0.00  0.00    +0.000 OA
ATOM     37  C   UNL     1     103.226 123.863 146.834  0.00  0.00    +0.000 C 
ATOM     38  C   UNL     1     103.353 123.479 146.115  0.00  0.00    +0.000 C 
ATOM     39  C   UNL     1     103.807 124.358 147.147  0.00  0.00    +0.000 C 
ATOM     40  C   UNL     1     104.063 123.591 145.708  0.00  0.00    +0.000 C 
ATOM     41  C   UNL     1     104.644 124.086 146.021  0.00  0.00    +0.000 C 
BRANCH  39  43
ATOM     42  O   UNL     1     104.237 124.683 148.470  0.00  0.00    +0.000 OA
ATOM     43  C   UNL     1     103.678 124.741 147.865  0.00  0.00    +0.000 C 
ENDBRANCH  39  43
ENDBRANCH  32  41
ENDBRANCH   4  32
TORSDOF 8
ENDMDL
MODEL 2
REMARK VINA RESULT:     -10.5      8.544     10.862
REMARK  Name = 131752173
REMARK  8 active torsions:
REMARK  status: ('A' for Active; 'I' for Inactive)
REMARK    1  A    between atoms: O_2  and  C_18
REMARK    2  A    between atoms: O_2  and  C_20
REMARK    3  A    between atoms: O_10  and  C_34
REMARK    4  A    between atoms: O_10  and  C_35
REMARK    5  A    between atoms: C_16  and  C_19
REMARK    6  A    between atoms: C_27  and  C_29
REMARK    7  A    between atoms: C_35  and  C_37
REMARK    8  A    between atoms: C_36  and  C_38
REMARK                            x       y       z     vdW  Elec       q    Type
REMARK                         _______ _______ _______ _____ _____    ______ ____
ROOT
ATOM      1  O   UNL     1     112.886 129.065 140.817  0.00  0.00    +0.000 OA
ATOM      2  O   UNL     1     114.355 131.395 141.689  0.00  0.00    +0.000 OA
ATOM      3  O   UNL     1     114.963 130.410 140.828  0.00  0.00    +0.000 OA
ATOM      4  C   UNL     1     112.254 130.759 142.132  0.00  0.00    +0.000 A 
ATOM      5  C   UNL     1     112.226 130.026 141.684  0.00  0.00    +0.000 A 
ATOM      6  C   UNL     1     112.976 131.225 142.135  0.00  0.00    +0.000 A 
ATOM      7  C   UNL     1     112.919 129.770 141.246  0.00  0.00    +0.000 A 
ATOM      8  C   UNL     1     113.611 130.218 141.249  0.00  0.00    +0.000 A 
ATOM      9  C   UNL     1     113.659 130.953 141.691  0.00  0.00    +0.000 A 
ATOM     10  C   UNL     1     114.271 129.962 140.825  0.00  0.00    +0.000 A 
ATOM     11  C   UNL     1     113.545 128.809 140.393  0.00  0.00    +0.000 A 
ATOM     12  C   UNL     1     114.238 129.258 140.396  0.00  0.00    +0.000 A 
ENDROOT
BRANCH  11  13
ATOM     13  C   UNL     1     113.511 128.105 139.965  0.00  0.00    +0.000 A 
ATOM     14  C   UNL     1     113.088 128.073 139.257  0.00  0.00    +0.000 A 
ATOM     15  C   UNL     1     113.900 127.433 140.244  0.00  0.00    +0.000 A 
ATOM     16  C   UNL     1     113.054 127.369 138.829  0.00  0.00    +0.000 A 
ATOM     17  C   UNL     1     113.865 126.729 139.816  0.00  0.00    +0.000 A 
ATOM     18  C   UNL     1     113.442 126.697 139.108  0.00  0.00    +0.000 A 
BRANCH  18  19
ATOM     19  O   UNL     1     113.408 125.993 138.679  0.00  0.00    +0.000 OA
BRANCH  19  21
ATOM     20  O   UNL     1     113.572 126.412 137.324  0.00  0.00    +0.000 OA
ATOM     21  C   UNL     1     113.797 125.930 137.955  0.00  0.00    +0.000 C 
BRANCH  21  22
ATOM     22  C   UNL     1     114.410 125.387 137.861  0.00  0.00    +0.000 C 
ATOM     23  C   UNL     1     114.291 124.703 137.416  0.00  0.00    +0.000 C 
BRANCH  23  26
ATOM     24  O   UNL     1     111.767 123.360 137.409  0.00  0.00    +0.000 OA
ATOM     25  O   UNL     1     111.358 124.138 136.013  0.00  0.00    +0.000 OA
ATOM     26  C   UNL     1     113.558 124.562 137.065  0.00  0.00    +0.000 A 
ATOM     27  C   UNL     1     113.029 124.032 137.412  0.00  0.00    +0.000 A 
ATOM     28  C   UNL     1     113.352 124.950 136.367  0.00  0.00    +0.000 A 
ATOM     29  C   UNL     1     112.296 123.890 137.062  0.00  0.00    +0.000 A 
ATOM     30  C   UNL     1     112.091 124.279 136.364  0.00  0.00    +0.000 A 
ATOM     31  C   UNL     1     112.619 124.809 136.016  0.00  0.00    +0.000 A 
ENDBRANCH  23  26
ENDBRANCH  21  22
ENDBRANCH  19  21
ENDBRANCH  18  19
ENDBRANCH  11  13
BRANCH   4  32
ATOM     32  O   UNL     1     111.593 131.013 142.556  0.00  0.00    +0.000 OA
BRANCH  32  41
ATOM     33  O   UNL     1     111.702 130.179 143.711  0.00  0.00    +0.000 OA
ATOM     34  O   UNL     1     111.493 130.644 145.833  0.00  0.00    +0.000 OA
ATOM     35  O   UNL     1     111.226 132.127 145.162  0.00  0.00    +0.000 OA
ATOM     36  O   UNL     1     111.276 132.311 143.523  0.00  0.00    +0.000 OA
ATOM     37  C   UNL     1     111.519 130.736 145.013  0.00  0.00    +0.000 C 
ATOM     38  C   UNL     1     111.385 131.478 144.678  0.00  0.00    +0.000 C 
ATOM     39  C   UNL     1     111.677 130.087 144.530  0.00  0.00    +0.000 C 
ATOM     40  C   UNL     1     111.410 131.570 143.858  0.00  0.00    +0.000 C 
ATOM     41  C   UNL     1     111.568 130.921 143.375  0.00  0.00    +0.000 C 
BRANCH  39  43
ATOM     42  O   UNL     1     111.416 128.682 144.574  0.00  0.00    +0.000 OA
ATOM     43  C   UNL     1     111.811 129.346 144.866  0.00  0.00    +0.000 C 
ENDBRANCH  39  43
ENDBRANCH  32  41
ENDBRANCH   4  32
TORSDOF 8
ENDMDL
MODEL 3
REMARK VINA RESULT:     -10.0      8.080     10.299
REMARK  Name = 131752173
REMARK  8 active torsions:
REMARK  status: ('A' for Active; 'I' for Inactive)
REMARK    1  A    between atoms: O_2  and  C_18
REMARK    2  A    between atoms: O_2  and  C_20
REMARK    3  A    between atoms: O_10  and  C_34
REMARK    4  A    between atoms: O_10  and  C_35
REMARK    5  A    between atoms: C_16  and  C_19
REMARK    6  A    between atoms: C_27  and  C_29
REMARK    7  A    between atoms: C_35  and  C_37
REMARK    8  A    between atoms: C_36  and  C_38
REMARK                            x       y       z     vdW  Elec       q    Type
REMARK                         _______ _______ _______ _____ _____    ______ ____
ROOT
ATOM      1  O   UNL     1     112.647 128.563 141.244  0.00  0.00    +0.000 OA
ATOM      2  O   UNL     1     113.328 131.324 141.754  0.00  0.00    +0.000 OA
ATOM      3  O   UNL     1     113.892 130.613 140.633  0.00  0.00    +0.000 OA
ATOM      4  C   UNL     1     111.963 129.940 142.867  0.00  0.00    +0.000 A 
ATOM      5  C   UNL     1     112.050 129.232 142.386  0.00  0.00    +0.000 A 
ATOM      6  C   UNL     1     112.396 130.651 142.654  0.00  0.00    +0.000 A 
ATOM      7  C   UNL     1     112.568 129.245 141.701  0.00  0.00    +0.000 A 
ATOM      8  C   UNL     1     112.983 129.929 141.497  0.00  0.00    +0.000 A 
ATOM      9  C   UNL     1     112.909 130.645 141.965  0.00  0.00    +0.000 A 
ATOM     10  C   UNL     1     113.477 129.930 140.837  0.00  0.00    +0.000 A 
ATOM     11  C   UNL     1     113.141 128.564 140.583  0.00  0.00    +0.000 A 
ATOM     12  C   UNL     1     113.556 129.247 140.380  0.00  0.00    +0.000 A 
ENDROOT
BRANCH  11  13
ATOM     13  C   UNL     1     113.220 127.882 140.127  0.00  0.00    +0.000 A 
ATOM     14  C   UNL     1     113.868 127.384 140.239  0.00  0.00    +0.000 A 
ATOM     15  C   UNL     1     112.651 127.696 139.559  0.00  0.00    +0.000 A 
ATOM     16  C   UNL     1     113.948 126.701 139.782  0.00  0.00    +0.000 A 
ATOM     17  C   UNL     1     112.730 127.013 139.103  0.00  0.00    +0.000 A 
ATOM     18  C   UNL     1     113.379 126.516 139.215  0.00  0.00    +0.000 A 
BRANCH  18  19
ATOM     19  O   UNL     1     113.458 125.833 138.758  0.00  0.00    +0.000 OA
BRANCH  19  21
ATOM     20  O   UNL     1     113.541 126.390 137.446  0.00  0.00    +0.000 OA
ATOM     21  C   UNL     1     113.824 125.869 138.021  0.00  0.00    +0.000 C 
BRANCH  21  22
ATOM     22  C   UNL     1     114.472 125.386 137.856  0.00  0.00    +0.000 C 
ATOM     23  C   UNL     1     114.385 124.735 137.356  0.00  0.00    +0.000 C 
BRANCH  23  26
ATOM     24  O   UNL     1     111.981 123.189 137.307  0.00  0.00    +0.000 OA
ATOM     25  O   UNL     1     111.444 124.066 136.016  0.00  0.00    +0.000 OA
ATOM     26  C   UNL     1     113.650 124.568 137.021  0.00  0.00    +0.000 A 
ATOM     27  C   UNL     1     113.183 123.963 137.332  0.00  0.00    +0.000 A 
ATOM     28  C   UNL     1     113.381 125.006 136.376  0.00  0.00    +0.000 A 
ATOM     29  C   UNL     1     112.447 123.795 136.997  0.00  0.00    +0.000 A 
ATOM     30  C   UNL     1     112.179 124.233 136.351  0.00  0.00    +0.000 A 
ATOM     31  C   UNL     1     112.646 124.838 136.041  0.00  0.00    +0.000 A 
ENDBRANCH  23  26
ENDBRANCH  21  22
ENDBRANCH  19  21
ENDBRANCH  18  19
ENDBRANCH  11  13
BRANCH   4  32
ATOM     32  O   UNL     1     111.468 129.936 143.527  0.00  0.00    +0.000 OA
BRANCH  32  41
ATOM     33  O   UNL     1     110.282 130.244 142.791  0.00  0.00    +0.000 OA
ATOM     34  O   UNL     1     108.202 129.686 143.137  0.00  0.00    +0.000 OA
ATOM     35  O   UNL     1     108.939 128.945 144.413  0.00  0.00    +0.000 OA
ATOM     36  O   UNL     1     110.572 129.070 144.608  0.00  0.00    +0.000 OA
ATOM     37  C   UNL     1     109.018 129.748 143.234  0.00  0.00    +0.000 C 
ATOM     38  C   UNL     1     109.387 129.378 143.872  0.00  0.00    +0.000 C 
ATOM     39  C   UNL     1     109.466 130.182 142.694  0.00  0.00    +0.000 C 
ATOM     40  C   UNL     1     110.204 129.440 143.970  0.00  0.00    +0.000 C 
ATOM     41  C   UNL     1     110.652 129.873 143.429  0.00  0.00    +0.000 C 
BRANCH  39  43
ATOM     42  O   UNL     1     109.186 131.364 141.942  0.00  0.00    +0.000 OA
ATOM     43  C   UNL     1     109.098 130.552 142.056  0.00  0.00    +0.000 C 
ENDBRANCH  39  43
ENDBRANCH  32  41
ENDBRANCH   4  32
TORSDOF 8
ENDMDL
MODEL 4
REMARK VINA RESULT:      -9.9      1.827      7.915
REMARK  Name = 131752173
REMARK  8 active torsions:
REMARK  status: ('A' for Active; 'I' for Inactive)
REMARK    1  A    between atoms: O_2  and  C_18
REMARK    2  A    between atoms: O_2  and  C_20
REMARK    3  A    between atoms: O_10  and  C_34
REMARK    4  A    between atoms: O_10  and  C_35
REMARK    5  A    between atoms: C_16  and  C_19
REMARK    6  A    between atoms: C_27  and  C_29
REMARK    7  A    between atoms: C_35  and  C_37
REMARK    8  A    between atoms: C_36  and  C_38
REMARK                            x       y       z     vdW  Elec       q    Type
REMARK                         _______ _______ _______ _____ _____    ______ ____
ROOT
ATOM      1  O   UNL     1     103.877 129.374 142.601  0.00  0.00    +0.000 OA
ATOM      2  O   UNL     1     103.060 128.906 139.869  0.00  0.00    +0.000 OA
ATOM      3  O   UNL     1     103.991 128.025 140.529  0.00  0.00    +0.000 OA
ATOM      4  C   UNL     1     102.472 130.527 141.299  0.00  0.00    +0.000 A 
ATOM      5  C   UNL     1     102.936 130.293 141.984  0.00  0.00    +0.000 A 
ATOM      6  C   UNL     1     102.512 130.058 140.580  0.00  0.00    +0.000 A 
ATOM      7  C   UNL     1     103.434 129.594 141.940  0.00  0.00    +0.000 A 
ATOM      8  C   UNL     1     103.472 129.144 141.250  0.00  0.00    +0.000 A 
ATOM      9  C   UNL     1     103.015 129.362 140.555  0.00  0.00    +0.000 A 
ATOM     10  C   UNL     1     103.953 128.474 141.220  0.00  0.00    +0.000 A 
ATOM     11  C   UNL     1     104.358 128.705 142.570  0.00  0.00    +0.000 A 
ATOM     12  C   UNL     1     104.396 128.255 141.880  0.00  0.00    +0.000 A 
ENDROOT
BRANCH  11  13
ATOM     13  C   UNL     1     104.801 128.486 143.231  0.00  0.00    +0.000 A 
ATOM     14  C   UNL     1     105.113 127.724 143.283  0.00  0.00    +0.000 A 
ATOM     15  C   UNL     1     104.931 129.028 143.839  0.00  0.00    +0.000 A 
ATOM     16  C   UNL     1     105.556 127.505 143.944  0.00  0.00    +0.000 A 
ATOM     17  C   UNL     1     105.374 128.808 144.500  0.00  0.00    +0.000 A 
ATOM     18  C   UNL     1     105.686 128.046 144.552  0.00  0.00    +0.000 A 
BRANCH  18  19
ATOM     19  O   UNL     1     106.129 127.827 145.213  0.00  0.00    +0.000 OA
BRANCH  19  21
ATOM     20  O   UNL     1     105.082 127.414 146.092  0.00  0.00    +0.000 OA
ATOM     21  C   UNL     1     105.784 127.828 145.961  0.00  0.00    +0.000 C 
BRANCH  21  22
ATOM     22  C   UNL     1     106.138 128.244 146.579  0.00  0.00    +0.000 C 
ATOM     23  C   UNL     1     106.468 127.835 147.215  0.00  0.00    +0.000 C 
BRANCH  23  26
ATOM     24  O   UNL     1     107.710 125.310 146.713  0.00  0.00    +0.000 OA
ATOM     25  O   UNL     1     106.370 124.537 147.287  0.00  0.00    +0.000 OA
ATOM     26  C   UNL     1     106.443 127.011 147.233  0.00  0.00    +0.000 A 
ATOM     27  C   UNL     1     107.089 126.573 146.964  0.00  0.00    +0.000 A 
ATOM     28  C   UNL     1     105.774 126.624 147.520  0.00  0.00    +0.000 A 
ATOM     29  C   UNL     1     107.065 125.748 146.982  0.00  0.00    +0.000 A 
ATOM     30  C   UNL     1     106.395 125.361 147.269  0.00  0.00    +0.000 A 
ATOM     31  C   UNL     1     105.749 125.799 147.538  0.00  0.00    +0.000 A 
ENDBRANCH  23  26
ENDBRANCH  21  22
ENDBRANCH  19  21
ENDBRANCH  18  19
ENDBRANCH  11  13
BRANCH   4  32
ATOM     32  O   UNL     1     101.992 131.197 141.332  0.00  0.00    +0.000 OA
BRANCH  32  41
ATOM     33  O   UNL     1     102.997 132.074 140.820  0.00  0.00    +0.000 OA
ATOM     34  O   UNL     1     103.339 134.203 141.155  0.00  0.00    +0.000 OA
ATOM     35  O   UNL     1     102.003 133.953 142.088  0.00  0.00    +0.000 OA
ATOM     36  O   UNL     1     101.329 132.449 142.177  0.00  0.00    +0.000 OA
ATOM     37  C   UNL     1     103.003 133.451 141.199  0.00  0.00    +0.000 C 
ATOM     38  C   UNL     1     102.334 133.327 141.665  0.00  0.00    +0.000 C 
ATOM     39  C   UNL     1     103.334 132.825 140.776  0.00  0.00    +0.000 C 
ATOM     40  C   UNL     1     101.997 132.574 141.710  0.00  0.00    +0.000 C 
ATOM     41  C   UNL     1     102.329 131.948 141.287  0.00  0.00    +0.000 C 
BRANCH  39  43
ATOM     42  O   UNL     1     104.017 132.684 139.529  0.00  0.00    +0.000 OA
ATOM     43  C   UNL     1     104.002 132.951 140.310  0.00  0.00    +0.000 C 
ENDBRANCH  39  43
ENDBRANCH  32  41
ENDBRANCH   4  32
TORSDOF 8
ENDMDL
MODEL 5
REMARK VINA RESULT:      -9.8      5.412      8.868
REMARK  Name = 131752173
REMARK  8 active torsions:
REMARK  status: ('A' for Active; 'I' for Inactive)
REMARK    1  A    between atoms: O_2  and  C_18
REMARK    2  A    between atoms: O_2  and  C_20
REMARK    3  A    between atoms: O_10  and  C_34
REMARK    4  A    between atoms: O_10  and  C_35
REMARK    5  A    between atoms: C_16  and  C_19
REMARK    6  A    between atoms: C_27  and  C_29
REMARK    7  A    between atoms: C_35  and  C_37
REMARK    8  A    between atoms: C_36  and  C_38
REMARK                            x       y       z     vdW  Elec       q    Type
REMARK                         _______ _______ _______ _____ _____    ______ ____
ROOT
ATOM      1  O   UNL     1     109.318 131.344 145.813  0.00  0.00    +0.000 OA
ATOM      2  O   UNL     1     110.983 132.877 144.017  0.00  0.00    +0.000 OA
ATOM      3  O   UNL     1     110.233 131.738 143.548  0.00  0.00    +0.000 OA
ATOM      4  C   UNL     1     110.592 133.138 146.207  0.00  0.00    +0.000 A 
ATOM      5  C   UNL     1     110.052 132.482 146.338  0.00  0.00    +0.000 A 
ATOM      6  C   UNL     1     110.909 133.274 145.420  0.00  0.00    +0.000 A 
ATOM      7  C   UNL     1     109.837 131.972 145.681  0.00  0.00    +0.000 A 
ATOM      8  C   UNL     1     110.142 132.103 144.926  0.00  0.00    +0.000 A 
ATOM      9  C   UNL     1     110.683 132.754 144.775  0.00  0.00    +0.000 A 
ATOM     10  C   UNL     1     109.928 131.607 144.303  0.00  0.00    +0.000 A 
ATOM     11  C   UNL     1     109.105 130.847 145.190  0.00  0.00    +0.000 A 
ATOM     12  C   UNL     1     109.410 130.979 144.435  0.00  0.00    +0.000 A 
ENDROOT
BRANCH  11  13
ATOM     13  C   UNL     1     108.587 130.220 145.323  0.00  0.00    +0.000 A 
ATOM     14  C   UNL     1     108.873 129.447 145.346  0.00  0.00    +0.000 A 
ATOM     15  C   UNL     1     107.782 130.365 145.433  0.00  0.00    +0.000 A 
ATOM     16  C   UNL     1     108.355 128.818 145.478  0.00  0.00    +0.000 A 
ATOM     17  C   UNL     1     107.264 129.736 145.566  0.00  0.00    +0.000 A 
ATOM     18  C   UNL     1     107.551 128.963 145.589  0.00  0.00    +0.000 A 
BRANCH  18  19
ATOM     19  O   UNL     1     107.033 128.335 145.722  0.00  0.00    +0.000 OA
BRANCH  19  21
ATOM     20  O   UNL     1     107.692 127.477 146.655  0.00  0.00    +0.000 OA
ATOM     21  C   UNL     1     107.041 127.939 146.444  0.00  0.00    +0.000 C 
BRANCH  21  22
ATOM     22  C   UNL     1     106.398 128.003 146.958  0.00  0.00    +0.000 C 
ATOM     23  C   UNL     1     105.885 127.365 147.058  0.00  0.00    +0.000 C 
BRANCH  23  26
ATOM     24  O   UNL     1     105.303 125.655 144.842  0.00  0.00    +0.000 OA
ATOM     25  O   UNL     1     106.400 124.557 145.402  0.00  0.00    +0.000 OA
ATOM     26  C   UNL     1     106.014 126.663 146.644  0.00  0.00    +0.000 A 
ATOM     27  C   UNL     1     105.594 126.510 145.950  0.00  0.00    +0.000 A 
ATOM     28  C   UNL     1     106.562 126.114 146.923  0.00  0.00    +0.000 A 
ATOM     29  C   UNL     1     105.722 125.808 145.536  0.00  0.00    +0.000 A 
ATOM     30  C   UNL     1     106.271 125.259 145.816  0.00  0.00    +0.000 A 
ATOM     31  C   UNL     1     106.690 125.412 146.509  0.00  0.00    +0.000 A 
ENDBRANCH  23  26
ENDBRANCH  21  22
ENDBRANCH  19  21
ENDBRANCH  18  19
ENDBRANCH  11  13
BRANCH   4  32
ATOM     32  O   UNL     1     110.804 133.634 146.832  0.00  0.00    +0.000 OA
BRANCH  32  41
ATOM     33  O   UNL     1     112.012 132.963 147.196  0.00  0.00    +0.000 OA
ATOM     34  O   UNL     1     112.886 132.560 149.154  0.00  0.00    +0.000 OA
ATOM     35  O   UNL     1     111.513 133.364 149.587  0.00  0.00    +0.000 OA
ATOM     36  O   UNL     1     110.471 133.901 148.426  0.00  0.00    +0.000 OA
ATOM     37  C   UNL     1     112.366 132.828 148.573  0.00  0.00    +0.000 C 
ATOM     38  C   UNL     1     111.679 133.230 148.790  0.00  0.00    +0.000 C 
ATOM     39  C   UNL     1     112.532 132.694 147.776  0.00  0.00    +0.000 C 
ATOM     40  C   UNL     1     111.158 133.499 148.209  0.00  0.00    +0.000 C 
ATOM     41  C   UNL     1     111.324 133.365 147.412  0.00  0.00    +0.000 C 
BRANCH  39  43
ATOM     42  O   UNL     1     113.168 131.573 147.159  0.00  0.00    +0.000 OA
ATOM     43  C   UNL     1     113.219 132.292 147.560  0.00  0.00    +0.000 C 
ENDBRANCH  39  43
ENDBRANCH  32  41
ENDBRANCH   4  32
TORSDOF 8
ENDMDL
MODEL 6
REMARK VINA RESULT:      -9.7      8.460     11.704
REMARK  Name = 131752173
REMARK  8 active torsions:
REMARK  status: ('A' for Active; 'I' for Inactive)
REMARK    1  A    between atoms: O_2  and  C_18
REMARK    2  A    between atoms: O_2  and  C_20
REMARK    3  A    between atoms: O_10  and  C_34
REMARK    4  A    between atoms: O_10  and  C_35
REMARK    5  A    between atoms: C_16  and  C_19
REMARK    6  A    between atoms: C_27  and  C_29
REMARK    7  A    between atoms: C_35  and  C_37
REMARK    8  A    between atoms: C_36  and  C_38
REMARK                            x       y       z     vdW  Elec       q    Type
REMARK                         _______ _______ _______ _____ _____    ______ ____
ROOT
ATOM      1  O   UNL     1     110.070 129.231 138.252  0.00  0.00    +0.000 OA
ATOM      2  O   UNL     1     109.640 131.497 139.992  0.00  0.00    +0.000 OA
ATOM      3  O   UNL     1     110.588 130.465 140.333  0.00  0.00    +0.000 OA
ATOM      4  C   UNL     1     108.697 130.981 138.027  0.00  0.00    +0.000 A 
ATOM      5  C   UNL     1     109.103 130.242 137.860  0.00  0.00    +0.000 A 
ATOM      6  C   UNL     1     108.878 131.409 138.750  0.00  0.00    +0.000 A 
ATOM      7  C   UNL     1     109.683 129.941 138.418  0.00  0.00    +0.000 A 
ATOM      8  C   UNL     1     109.856 130.352 139.111  0.00  0.00    +0.000 A 
ATOM      9  C   UNL     1     109.461 131.092 139.296  0.00  0.00    +0.000 A 
ATOM     10  C   UNL     1     110.415 130.054 139.639  0.00  0.00    +0.000 A 
ATOM     11  C   UNL     1     110.629 128.933 138.780  0.00  0.00    +0.000 A 
ATOM     12  C   UNL     1     110.802 129.344 139.474  0.00  0.00    +0.000 A 
ENDROOT
BRANCH  11  13
ATOM     13  C   UNL     1     111.014 128.223 138.613  0.00  0.00    +0.000 A 
ATOM     14  C   UNL     1     110.657 127.505 138.806  0.00  0.00    +0.000 A 
ATOM     15  C   UNL     1     111.757 128.231 138.253  0.00  0.00    +0.000 A 
ATOM     16  C   UNL     1     111.042 126.794 138.640  0.00  0.00    +0.000 A 
ATOM     17  C   UNL     1     112.142 127.520 138.087  0.00  0.00    +0.000 A 
ATOM     18  C   UNL     1     111.785 126.802 138.280  0.00  0.00    +0.000 A 
BRANCH  18  19
ATOM     19  O   UNL     1     112.170 126.092 138.114  0.00  0.00    +0.000 OA
BRANCH  19  21
ATOM     20  O   UNL     1     111.998 126.043 136.697  0.00  0.00    +0.000 OA
ATOM     21  C   UNL     1     111.980 125.669 137.432  0.00  0.00    +0.000 C 
BRANCH  21  22
ATOM     22  C   UNL     1     111.773 124.872 137.485  0.00  0.00    +0.000 C 
ATOM     23  C   UNL     1     112.316 124.289 137.270  0.00  0.00    +0.000 C 
BRANCH  23  26
ATOM     24  O   UNL     1     115.086 124.765 137.793  0.00  0.00    +0.000 OA
ATOM     25  O   UNL     1     115.320 125.146 136.204  0.00  0.00    +0.000 OA
ATOM     26  C   UNL     1     113.067 124.503 137.004  0.00  0.00    +0.000 A 
ATOM     27  C   UNL     1     113.700 124.527 137.531  0.00  0.00    +0.000 A 
ATOM     28  C   UNL     1     113.185 124.694 136.210  0.00  0.00    +0.000 A 
ATOM     29  C   UNL     1     114.452 124.741 137.265  0.00  0.00    +0.000 A 
ATOM     30  C   UNL     1     114.569 124.932 136.471  0.00  0.00    +0.000 A 
ATOM     31  C   UNL     1     113.935 124.908 135.943  0.00  0.00    +0.000 A 
ENDBRANCH  23  26
ENDBRANCH  21  22
ENDBRANCH  19  21
ENDBRANCH  18  19
ENDBRANCH  11  13
BRANCH   4  32
ATOM     32  O   UNL     1     108.138 131.277 137.498  0.00  0.00    +0.000 OA
BRANCH  32  41
ATOM     33  O   UNL     1     109.049 132.079 136.743  0.00  0.00    +0.000 OA
ATOM     34  O   UNL     1     109.112 132.547 134.612  0.00  0.00    +0.000 OA
ATOM     35  O   UNL     1     107.778 131.579 134.678  0.00  0.00    +0.000 OA
ATOM     36  O   UNL     1     107.291 130.944 136.121  0.00  0.00    +0.000 OA
ATOM     37  C   UNL     1     108.869 132.230 135.334  0.00  0.00    +0.000 C 
ATOM     38  C   UNL     1     108.202 131.746 135.366  0.00  0.00    +0.000 C 
ATOM     39  C   UNL     1     109.292 132.397 136.022  0.00  0.00    +0.000 C 
ATOM     40  C   UNL     1     107.958 131.428 136.089  0.00  0.00    +0.000 C 
ATOM     41  C   UNL     1     108.382 131.595 136.777  0.00  0.00    +0.000 C 
BRANCH  39  43
ATOM     42  O   UNL     1     110.090 133.444 136.577  0.00  0.00    +0.000 OA
ATOM     43  C   UNL     1     109.959 132.881 135.988  0.00  0.00    +0.000 C 
ENDBRANCH  39  43
ENDBRANCH  32  41
ENDBRANCH   4  32
TORSDOF 8
ENDMDL
MODEL 7
REMARK VINA RESULT:      -9.7      8.379     11.339
REMARK  Name = 131752173
REMARK  8 active torsions:
REMARK  status: ('A' for Active; 'I' for Inactive)
REMARK    1  A    between atoms: O_2  and  C_18
REMARK    2  A    between atoms: O_2  and  C_20
REMARK    3  A    between atoms: O_10  and  C_34
REMARK    4  A    between atoms: O_10  and  C_35
REMARK    5  A    between atoms: C_16  and  C_19
REMARK    6  A    between atoms: C_27  and  C_29
REMARK    7  A    between atoms: C_35  and  C_37
REMARK    8  A    between atoms: C_36  and  C_38
REMARK                            x       y       z     vdW  Elec       q    Type
REMARK                         _______ _______ _______ _____ _____    ______ ____
ROOT
ATOM      1  O   UNL     1     110.029 128.986 136.854  0.00  0.00    +0.000 OA
ATOM      2  O   UNL     1     107.714 130.559 136.139  0.00  0.00    +0.000 OA
ATOM      3  O   UNL     1     107.974 129.288 135.508  0.00  0.00    +0.000 OA
ATOM      4  C   UNL     1     109.339 130.968 137.624  0.00  0.00    +0.000 A 
ATOM      5  C   UNL     1     109.814 130.259 137.519  0.00  0.00    +0.000 A 
ATOM      6  C   UNL     1     108.626 131.072 137.156  0.00  0.00    +0.000 A 
ATOM      7  C   UNL     1     109.569 129.664 136.949  0.00  0.00    +0.000 A 
ATOM      8  C   UNL     1     108.884 129.765 136.501  0.00  0.00    +0.000 A 
ATOM      9  C   UNL     1     108.397 130.467 136.591  0.00  0.00    +0.000 A 
ATOM     10  C   UNL     1     108.659 129.187 135.957  0.00  0.00    +0.000 A 
ATOM     11  C   UNL     1     109.804 128.408 136.309  0.00  0.00    +0.000 A 
ATOM     12  C   UNL     1     109.119 128.509 135.861  0.00  0.00    +0.000 A 
ENDROOT
BRANCH  11  13
ATOM     13  C   UNL     1     110.264 127.731 136.214  0.00  0.00    +0.000 A 
ATOM     14  C   UNL     1     109.956 126.992 136.414  0.00  0.00    +0.000 A 
ATOM     15  C   UNL     1     111.032 127.791 135.920  0.00  0.00    +0.000 A 
ATOM     16  C   UNL     1     110.415 126.314 136.319  0.00  0.00    +0.000 A 
ATOM     17  C   UNL     1     111.492 127.112 135.825  0.00  0.00    +0.000 A 
ATOM     18  C   UNL     1     111.184 126.374 136.024  0.00  0.00    +0.000 A 
BRANCH  18  19
ATOM     19  O   UNL     1     111.643 125.695 135.929  0.00  0.00    +0.000 OA
BRANCH  19  21
ATOM     20  O   UNL     1     111.856 125.437 137.318  0.00  0.00    +0.000 OA
ATOM     21  C   UNL     1     111.724 125.161 136.551  0.00  0.00    +0.000 C 
BRANCH  21  22
ATOM     22  C   UNL     1     111.673 124.350 136.408  0.00  0.00    +0.000 C 
ATOM     23  C   UNL     1     112.340 123.872 136.496  0.00  0.00    +0.000 C 
BRANCH  23  26
ATOM     24  O   UNL     1     114.894 124.960 135.815  0.00  0.00    +0.000 OA
ATOM     25  O   UNL     1     115.215 125.208 137.415  0.00  0.00    +0.000 OA
ATOM     26  C   UNL     1     113.058 124.206 136.726  0.00  0.00    +0.000 A 
ATOM     27  C   UNL     1     113.617 124.416 136.156  0.00  0.00    +0.000 A 
ATOM     28  C   UNL     1     113.219 124.331 137.525  0.00  0.00    +0.000 A 
ATOM     29  C   UNL     1     114.336 124.750 136.385  0.00  0.00    +0.000 A 
ATOM     30  C   UNL     1     114.496 124.874 137.185  0.00  0.00    +0.000 A 
ATOM     31  C   UNL     1     113.938 124.664 137.755  0.00  0.00    +0.000 A 
ENDBRANCH  23  26
ENDBRANCH  21  22
ENDBRANCH  19  21
ENDBRANCH  18  19
ENDBRANCH  11  13
BRANCH   4  32
ATOM     32  O   UNL     1     109.567 131.544 138.169  0.00  0.00    +0.000 OA
BRANCH  32  41
ATOM     33  O   UNL     1     108.871 131.070 139.324  0.00  0.00    +0.000 OA
ATOM     34  O   UNL     1     109.518 130.869 141.398  0.00  0.00    +0.000 OA
ATOM     35  O   UNL     1     110.884 131.480 140.704  0.00  0.00    +0.000 OA
ATOM     36  O   UNL     1     110.909 131.817 139.089  0.00  0.00    +0.000 OA
ATOM     37  C   UNL     1     109.530 131.038 140.591  0.00  0.00    +0.000 C 
ATOM     38  C   UNL     1     110.213 131.343 140.244  0.00  0.00    +0.000 C 
ATOM     39  C   UNL     1     108.859 130.901 140.131  0.00  0.00    +0.000 C 
ATOM     40  C   UNL     1     110.225 131.512 139.436  0.00  0.00    +0.000 C 
ATOM     41  C   UNL     1     109.554 131.375 138.976  0.00  0.00    +0.000 C 
BRANCH  39  43
ATOM     42  O   UNL     1     107.449 130.967 140.355  0.00  0.00    +0.000 OA
ATOM     43  C   UNL     1     108.176 130.596 140.478  0.00  0.00    +0.000 C 
ENDBRANCH  39  43
ENDBRANCH  32  41
ENDBRANCH   4  32
TORSDOF 8
ENDMDL
MODEL 8
REMARK VINA RESULT:      -9.7      2.859      4.047
REMARK  Name = 131752173
REMARK  8 active torsions:
REMARK  status: ('A' for Active; 'I' for Inactive)
REMARK    1  A    between atoms: O_2  and  C_18
REMARK    2  A    between atoms: O_2  and  C_20
REMARK    3  A    between atoms: O_10  and  C_34
REMARK    4  A    between atoms: O_10  and  C_35
REMARK    5  A    between atoms: C_16  and  C_19
REMARK    6  A    between atoms: C_27  and  C_29
REMARK    7  A    between atoms: C_35  and  C_37
REMARK    8  A    between atoms: C_36  and  C_38
REMARK                            x       y       z     vdW  Elec       q    Type
REMARK                         _______ _______ _______ _____ _____    ______ ____
ROOT
ATOM      1  O   UNL     1     105.178 127.481 141.716  0.00  0.00    +0.000 OA
ATOM      2  O   UNL     1     106.621 125.751 143.525  0.00  0.00    +0.000 OA
ATOM      3  O   UNL     1     106.004 126.968 143.993  0.00  0.00    +0.000 OA
ATOM      4  C   UNL     1     106.238 125.551 141.328  0.00  0.00    +0.000 A 
ATOM      5  C   UNL     1     105.781 126.267 141.194  0.00  0.00    +0.000 A 
ATOM      6  C   UNL     1     106.524 125.374 142.118  0.00  0.00    +0.000 A 
ATOM      7  C   UNL     1     105.617 126.795 141.851  0.00  0.00    +0.000 A 
ATOM      8  C   UNL     1     105.892 126.624 142.610  0.00  0.00    +0.000 A 
ATOM      9  C   UNL     1     106.350 125.914 142.764  0.00  0.00    +0.000 A 
ATOM     10  C   UNL     1     105.729 127.139 143.234  0.00  0.00    +0.000 A 
ATOM     11  C   UNL     1     105.015 127.995 142.340  0.00  0.00    +0.000 A 
ATOM     12  C   UNL     1     105.290 127.824 143.099  0.00  0.00    +0.000 A 
ENDROOT
BRANCH  11  13
ATOM     13  C   UNL     1     104.576 128.680 142.204  0.00  0.00    +0.000 A 
ATOM     14  C   UNL     1     104.745 129.368 142.628  0.00  0.00    +0.000 A 
ATOM     15  C   UNL     1     103.969 128.678 141.646  0.00  0.00    +0.000 A 
ATOM     16  C   UNL     1     104.306 130.054 142.492  0.00  0.00    +0.000 A 
ATOM     17  C   UNL     1     103.530 129.364 141.511  0.00  0.00    +0.000 A 
ATOM     18  C   UNL     1     103.699 130.052 141.934  0.00  0.00    +0.000 A 
BRANCH  18  19
ATOM     19  O   UNL     1     103.261 130.737 141.799  0.00  0.00    +0.000 OA
BRANCH  19  21
ATOM     20  O   UNL     1     102.438 130.890 142.957  0.00  0.00    +0.000 OA
ATOM     21  C   UNL     1     102.514 130.824 142.137  0.00  0.00    +0.000 C 
BRANCH  21  22
ATOM     22  C   UNL     1     101.843 130.844 141.658  0.00  0.00    +0.000 C 
ATOM     23  C   UNL     1     101.429 131.550 141.558  0.00  0.00    +0.000 C 
BRANCH  23  26
ATOM     24  O   UNL     1     102.879 134.013 141.504  0.00  0.00    +0.000 OA
ATOM     25  O   UNL     1     102.457 134.296 143.074  0.00  0.00    +0.000 OA
ATOM     26  C   UNL     1     101.686 132.237 141.937  0.00  0.00    +0.000 A 
ATOM     27  C   UNL     1     102.153 132.781 141.531  0.00  0.00    +0.000 A 
ATOM     28  C   UNL     1     101.475 132.378 142.722  0.00  0.00    +0.000 A 
ATOM     29  C   UNL     1     102.411 133.468 141.910  0.00  0.00    +0.000 A 
ATOM     30  C   UNL     1     102.200 133.609 142.695  0.00  0.00    +0.000 A 
ATOM     31  C   UNL     1     101.732 133.064 143.101  0.00  0.00    +0.000 A 
ENDBRANCH  23  26
ENDBRANCH  21  22
ENDBRANCH  19  21
ENDBRANCH  18  19
ENDBRANCH  11  13
BRANCH   4  32
ATOM     32  O   UNL     1     106.400 125.039 140.702  0.00  0.00    +0.000 OA
BRANCH  32  41
ATOM     33  O   UNL     1     105.468 123.983 140.944  0.00  0.00    +0.000 OA
ATOM     34  O   UNL     1     104.064 122.984 139.605  0.00  0.00    +0.000 OA
ATOM     35  O   UNL     1     104.760 124.066 138.574  0.00  0.00    +0.000 OA
ATOM     36  O   UNL     1     105.928 125.094 139.122  0.00  0.00    +0.000 OA
ATOM     37  C   UNL     1     104.648 123.497 139.880  0.00  0.00    +0.000 C 
ATOM     38  C   UNL     1     104.996 124.038 139.364  0.00  0.00    +0.000 C 
ATOM     39  C   UNL     1     104.884 123.470 140.670  0.00  0.00    +0.000 C 
ATOM     40  C   UNL     1     105.580 124.553 139.638  0.00  0.00    +0.000 C 
ATOM     41  C   UNL     1     105.816 124.525 140.428  0.00  0.00    +0.000 C 
BRANCH  39  43
ATOM     42  O   UNL     1     104.298 123.169 141.938  0.00  0.00    +0.000 OA
ATOM     43  C   UNL     1     104.536 122.928 141.185  0.00  0.00    +0.000 C 
ENDBRANCH  39  43
ENDBRANCH  32  41
ENDBRANCH   4  32
TORSDOF 8
ENDMDL
MODEL 9
REMARK VINA RESULT:      -9.6      6.631      9.000
REMARK  Name = 131752173
REMARK  8 active torsions:
REMARK  status: ('A' for Active; 'I' for Inactive)
REMARK    1  A    between atoms: O_2  and  C_18
REMARK    2  A    between atoms: O_2  and  C_20
REMARK    3  A    between atoms: O_10  and  C_34
REMARK    4  A    between atoms: O_10  and  C_35
REMARK    5  A    between atoms: C_16  and  C_19
REMARK    6  A    between atoms: C_27  and  C_29
REMARK    7  A    between atoms: C_35  and  C_37
REMARK    8  A    between atoms: C_36  and  C_38
REMARK                            x       y       z     vdW  Elec       q    Type
REMARK                         _______ _______ _______ _____ _____    ______ ____
ROOT
ATOM      1  O   UNL     1     109.112 127.065 140.769  0.00  0.00    +0.000 OA
ATOM      2  O   UNL     1     107.099 126.029 142.563  0.00  0.00    +0.000 OA
ATOM      3  O   UNL     1     107.685 125.196 141.542  0.00  0.00    +0.000 OA
ATOM      4  C   UNL     1     108.014 128.069 142.437  0.00  0.00    +0.000 A 
ATOM      5  C   UNL     1     108.554 127.946 141.780  0.00  0.00    +0.000 A 
ATOM      6  C   UNL     1     107.519 127.419 142.705  0.00  0.00    +0.000 A 
ATOM      7  C   UNL     1     108.592 127.176 141.399  0.00  0.00    +0.000 A 
ATOM      8  C   UNL     1     108.116 126.554 141.657  0.00  0.00    +0.000 A 
ATOM      9  C   UNL     1     107.570 126.657 142.312  0.00  0.00    +0.000 A 
ATOM     10  C   UNL     1     108.161 125.819 141.284  0.00  0.00    +0.000 A 
ATOM     11  C   UNL     1     109.156 126.330 140.396  0.00  0.00    +0.000 A 
ATOM     12  C   UNL     1     108.681 125.707 140.654  0.00  0.00    +0.000 A 
ENDROOT
BRANCH  11  13
ATOM     13  C   UNL     1     109.677 126.219 139.766  0.00  0.00    +0.000 A 
ATOM     14  C   UNL     1     110.480 126.102 139.911  0.00  0.00    +0.000 A 
ATOM     15  C   UNL     1     109.394 126.225 138.991  0.00  0.00    +0.000 A 
ATOM     16  C   UNL     1     111.002 125.991 139.281  0.00  0.00    +0.000 A 
ATOM     17  C   UNL     1     109.915 126.114 138.361  0.00  0.00    +0.000 A 
ATOM     18  C   UNL     1     110.719 125.997 138.506  0.00  0.00    +0.000 A 
BRANCH  18  19
ATOM     19  O   UNL     1     111.240 125.886 137.876  0.00  0.00    +0.000 OA
BRANCH  19  21
ATOM     20  O   UNL     1     111.497 124.483 137.943  0.00  0.00    +0.000 OA
ATOM     21  C   UNL     1     111.290 125.152 137.506  0.00  0.00    +0.000 C 
BRANCH  21  22
ATOM     22  C   UNL     1     111.134 125.084 136.699  0.00  0.00    +0.000 C 
ATOM     23  C   UNL     1     111.752 124.950 136.169  0.00  0.00    +0.000 C 
BRANCH  23  26
ATOM     24  O   UNL     1     114.307 126.126 136.680  0.00  0.00    +0.000 OA
ATOM     25  O   UNL     1     114.849 124.687 137.278  0.00  0.00    +0.000 OA
ATOM     26  C   UNL     1     112.526 124.884 136.446  0.00  0.00    +0.000 A 
ATOM     27  C   UNL     1     113.029 125.538 136.424  0.00  0.00    +0.000 A 
ATOM     28  C   UNL     1     112.798 124.166 136.745  0.00  0.00    +0.000 A 
ATOM     29  C   UNL     1     113.804 125.473 136.702  0.00  0.00    +0.000 A 
ATOM     30  C   UNL     1     114.075 124.753 137.001  0.00  0.00    +0.000 A 
ATOM     31  C   UNL     1     113.572 124.100 137.022  0.00  0.00    +0.000 A 
ENDBRANCH  23  26
ENDBRANCH  21  22
ENDBRANCH  19  21
ENDBRANCH  18  19
ENDBRANCH  11  13
BRANCH   4  32
ATOM     32  O   UNL     1     107.972 128.804 142.808  0.00  0.00    +0.000 OA
BRANCH  32  41
ATOM     33  O   UNL     1     106.755 129.312 142.256  0.00  0.00    +0.000 OA
ATOM     34  O   UNL     1     106.278 131.264 141.405  0.00  0.00    +0.000 OA
ATOM     35  O   UNL     1     107.863 131.479 141.808  0.00  0.00    +0.000 OA
ATOM     36  O   UNL     1     108.710 130.249 142.509  0.00  0.00    +0.000 OA
ATOM     37  C   UNL     1     106.701 130.649 141.756  0.00  0.00    +0.000 C 
ATOM     38  C   UNL     1     107.494 130.757 141.957  0.00  0.00    +0.000 C 
ATOM     39  C   UNL     1     106.332 129.926 141.906  0.00  0.00    +0.000 C 
ATOM     40  C   UNL     1     107.918 130.141 142.308  0.00  0.00    +0.000 C 
ATOM     41  C   UNL     1     107.548 129.419 142.458  0.00  0.00    +0.000 C 
BRANCH  39  43
ATOM     42  O   UNL     1     105.303 129.137 141.305  0.00  0.00    +0.000 OA
ATOM     43  C   UNL     1     105.540 129.819 141.704  0.00  0.00    +0.000 C 
ENDBRANCH  39  43
ENDBRANCH  32  41
ENDBRANCH   4  32
TORSDOF 8
ENDMDL
MODEL 10
REMARK VINA RESULT:      -9.6      1.054      1.716
REMARK  Name = 131752173
REMARK  8 active torsions:
REMARK  status: ('A' for Active; 'I' for Inactive)
REMARK    1  A    between atoms: O_2  and  C_18
REMARK    2  A    between atoms: O_2  and  C_20
REMARK    3  A    between atoms: O_10  and  C_34
REMARK    4  A    between atoms: O_10  and  C_35
REMARK    5  A    between atoms: C_16  and  C_19
REMARK    6  A    between atoms: C_27  and  C_29
REMARK    7  A    between atoms: C_35  and  C_37
REMARK    8  A    between atoms: C_36  and  C_38
REMARK                            x       y       z     vdW  Elec       q    Type
REMARK                         _______ _______ _______ _____ _____    ______ ____
ROOT
ATOM      1  O   UNL     1     105.167 128.089 145.370  0.00  0.00    +0.000 OA
ATOM      2  O   UNL     1     107.576 127.160 146.667  0.00  0.00    +0.000 OA
ATOM      3  O   UNL     1     107.633 127.880 145.418  0.00  0.00    +0.000 OA
ATOM      4  C   UNL     1     105.432 126.962 147.282  0.00  0.00    +0.000 A 
ATOM      5  C   UNL     1     105.053 127.370 146.626  0.00  0.00    +0.000 A 
ATOM      6  C   UNL     1     106.288 126.890 147.298  0.00  0.00    +0.000 A 
ATOM      7  C   UNL     1     105.536 127.699 145.996  0.00  0.00    +0.000 A 
ATOM      8  C   UNL     1     106.358 127.629 146.012  0.00  0.00    +0.000 A 
ATOM      9  C   UNL     1     106.754 127.225 146.659  0.00  0.00    +0.000 A 
ATOM     10  C   UNL     1     106.811 127.949 145.402  0.00  0.00    +0.000 A 
ATOM     11  C   UNL     1     105.620 128.410 144.759  0.00  0.00    +0.000 A 
ATOM     12  C   UNL     1     106.442 128.340 144.775  0.00  0.00    +0.000 A 
ENDROOT
BRANCH  11  13
ATOM     13  C   UNL     1     105.251 128.799 144.134  0.00  0.00    +0.000 A 
ATOM     14  C   UNL     1     105.044 129.594 144.209  0.00  0.00    +0.000 A 
ATOM     15  C   UNL     1     105.089 128.395 143.433  0.00  0.00    +0.000 A 
ATOM     16  C   UNL     1     104.674 129.985 143.583  0.00  0.00    +0.000 A 
ATOM     17  C   UNL     1     104.719 128.786 142.807  0.00  0.00    +0.000 A 
ATOM     18  C   UNL     1     104.512 129.581 142.882  0.00  0.00    +0.000 A 
BRANCH  18  19
ATOM     19  O   UNL     1     104.142 129.972 142.257  0.00  0.00    +0.000 OA
BRANCH  19  21
ATOM     20  O   UNL     1     102.800 130.110 142.727  0.00  0.00    +0.000 OA
ATOM     21  C   UNL     1     103.332 129.884 142.136  0.00  0.00    +0.000 C 
BRANCH  21  22
ATOM     22  C   UNL     1     103.050 129.572 141.427  0.00  0.00    +0.000 C 
ATOM     23  C   UNL     1     102.645 130.055 140.895  0.00  0.00    +0.000 C 
BRANCH  23  26
ATOM     24  O   UNL     1     103.438 132.793 140.673  0.00  0.00    +0.000 OA
ATOM     25  O   UNL     1     102.152 133.240 141.606  0.00  0.00    +0.000 OA
ATOM     26  C   UNL     1     102.522 130.851 141.073  0.00  0.00    +0.000 A 
ATOM     27  C   UNL     1     103.041 131.424 140.784  0.00  0.00    +0.000 A 
ATOM     28  C   UNL     1     101.880 131.076 141.538  0.00  0.00    +0.000 A 
ATOM     29  C   UNL     1     102.919 132.221 140.962  0.00  0.00    +0.000 A 
ATOM     30  C   UNL     1     102.276 132.444 141.428  0.00  0.00    +0.000 A 
ATOM     31  C   UNL     1     101.756 131.872 141.716  0.00  0.00    +0.000 A 
ENDBRANCH  23  26
ENDBRANCH  21  22
ENDBRANCH  19  21
ENDBRANCH  18  19
ENDBRANCH  11  13
BRANCH   4  32
ATOM     32  O   UNL     1     104.976 126.642 147.891  0.00  0.00    +0.000 OA
BRANCH  32  41
ATOM     33  O   UNL     1     104.702 125.383 147.274  0.00  0.00    +0.000 OA
ATOM     34  O   UNL     1     102.896 124.159 147.267  0.00  0.00    +0.000 OA
ATOM     35  O   UNL     1     102.403 125.435 148.190  0.00  0.00    +0.000 OA
ATOM     36  O   UNL     1     103.444 126.677 148.502  0.00  0.00    +0.000 OA
ATOM     37  C   UNL     1     103.416 124.780 147.423  0.00  0.00    +0.000 C 
ATOM     38  C   UNL     1     103.170 125.417 147.884  0.00  0.00    +0.000 C 
ATOM     39  C   UNL     1     104.183 124.763 147.118  0.00  0.00    +0.000 C 
ATOM     40  C   UNL     1     103.690 126.039 148.040  0.00  0.00    +0.000 C 
ATOM     41  C   UNL     1     104.457 126.022 147.735  0.00  0.00    +0.000 C 
BRANCH  39  43
ATOM     42  O   UNL     1     105.195 123.831 146.733  0.00  0.00    +0.000 OA
ATOM     43  C   UNL     1     104.428 124.125 146.657  0.00  0.00    +0.000 C 
ENDBRANCH  39  43
ENDBRANCH  32  41
ENDBRANCH   4  32
TORSDOF 8
ENDMDL
