MODEL 1
REMARK VINA RESULT:      -7.4      0.000      0.000
REMARK  Name = null
REMARK  4 active torsions:
REMARK  status: ('A' for Active; 'I' for Inactive)
REMARK    1  A    between atoms: O_2  and  C_3
REMARK    2  A    between atoms: C_6  and  C_9
REMARK    3  A    between atoms: C_13  and  O_21
REMARK    4  A    between atoms: C_15  and  O_19
REMARK                            x       y       z     vdW  Elec       q    Type
REMARK                         _______ _______ _______ _____ _____    ______ ____
ROOT
ATOM      1  C   UNL     1     112.951 127.355 136.364  0.00  0.00    +0.000 C 
ATOM      2  C   UNL     1     113.355 126.720 136.706  0.00  0.00    +0.000 C 
ATOM      3  C   UNL     1     113.016 125.969 136.708  0.00  0.00    +0.000 C 
ATOM      4  C   UNL     1     112.274 125.850 136.370  0.00  0.00    +0.000 A 
ATOM      5  C   UNL     1     111.934 125.098 136.372  0.00  0.00    +0.000 A 
ATOM      6  C   UNL     1     111.191 124.980 136.033  0.00  0.00    +0.000 A 
ATOM      7  C   UNL     1     110.787 125.614 135.692  0.00  0.00    +0.000 A 
ATOM      8  C   UNL     1     111.126 126.365 135.690  0.00  0.00    +0.000 A 
ATOM      9  C   UNL     1     111.869 126.485 136.028  0.00  0.00    +0.000 A 
ATOM     10  O   UNL     1     112.208 127.236 136.026  0.00  0.00    +0.000 OA
ATOM     11  O   UNL     1     114.098 126.839 137.044  0.00  0.00    +0.000 OA
ENDROOT
BRANCH   1  15
ATOM     12  C   UNL     1     113.969 129.611 136.360  0.00  0.00    +0.000 A 
ATOM     13  C   UNL     1     114.120 129.089 135.738  0.00  0.00    +0.000 A 
ATOM     14  C   UNL     1     113.780 128.338 135.740  0.00  0.00    +0.000 A 
ATOM     15  C   UNL     1     113.290 128.107 136.363  0.00  0.00    +0.000 A 
ATOM     16  C   UNL     1     113.140 128.628 136.984  0.00  0.00    +0.000 A 
ATOM     17  C   UNL     1     113.480 129.381 136.983  0.00  0.00    +0.000 A 
BRANCH  12  19
ATOM     18  C   UNL     1     114.999 130.503 135.933  0.00  0.00    +0.000 C 
ATOM     19  O   UNL     1     114.308 130.362 136.359  0.00  0.00    +0.000 OA
ENDBRANCH  12  19
ENDBRANCH   1  15
BRANCH   7  20
ATOM     20  O   UNL     1     110.044 125.495 135.354  0.00  0.00    +0.000 OA
ATOM     21  C   UNL     1     109.872 125.813 134.613  0.00  0.00    +0.000 C 
ENDBRANCH   7  20
BRANCH   5  22
ATOM     22  O   UNL     1     112.338 124.465 136.712  0.00  0.00    +0.000 OA
ATOM     23  C   UNL     1     111.960 123.738 136.808  0.00  0.00    +0.000 C 
ENDBRANCH   5  22
TORSDOF 4
ENDMDL
MODEL 2
REMARK VINA RESULT:      -7.3      2.183      3.187
REMARK  Name = null
REMARK  4 active torsions:
REMARK  status: ('A' for Active; 'I' for Inactive)
REMARK    1  A    between atoms: O_2  and  C_3
REMARK    2  A    between atoms: C_6  and  C_9
REMARK    3  A    between atoms: C_13  and  O_21
REMARK    4  A    between atoms: C_15  and  O_19
REMARK                            x       y       z     vdW  Elec       q    Type
REMARK                         _______ _______ _______ _____ _____    ______ ____
ROOT
ATOM      1  C   UNL     1     111.432 126.346 135.920  0.00  0.00    +0.000 C 
ATOM      2  C   UNL     1     110.900 125.723 136.022  0.00  0.00    +0.000 C 
ATOM      3  C   UNL     1     111.171 124.987 136.277  0.00  0.00    +0.000 C 
ATOM      4  C   UNL     1     111.973 124.873 136.430  0.00  0.00    +0.000 A 
ATOM      5  C   UNL     1     112.245 124.137 136.685  0.00  0.00    +0.000 A 
ATOM      6  C   UNL     1     113.047 124.023 136.838  0.00  0.00    +0.000 A 
ATOM      7  C   UNL     1     113.579 124.646 136.736  0.00  0.00    +0.000 A 
ATOM      8  C   UNL     1     113.308 125.382 136.481  0.00  0.00    +0.000 A 
ATOM      9  C   UNL     1     112.505 125.497 136.328  0.00  0.00    +0.000 A 
ATOM     10  O   UNL     1     112.234 126.232 136.073  0.00  0.00    +0.000 OA
ATOM     11  O   UNL     1     110.097 125.837 135.869  0.00  0.00    +0.000 OA
ENDROOT
BRANCH   1  15
ATOM     12  C   UNL     1     110.617 128.554 135.154  0.00  0.00    +0.000 A 
ATOM     13  C   UNL     1     110.794 128.433 135.951  0.00  0.00    +0.000 A 
ATOM     14  C   UNL     1     111.065 127.698 136.206  0.00  0.00    +0.000 A 
ATOM     15  C   UNL     1     111.161 127.082 135.665  0.00  0.00    +0.000 A 
ATOM     16  C   UNL     1     110.984 127.203 134.868  0.00  0.00    +0.000 A 
ATOM     17  C   UNL     1     110.712 127.939 134.612  0.00  0.00    +0.000 A 
BRANCH  12  19
ATOM     18  C   UNL     1     109.548 129.484 134.972  0.00  0.00    +0.000 C 
ATOM     19  O   UNL     1     110.345 129.289 134.898  0.00  0.00    +0.000 OA
ENDBRANCH  12  19
ENDBRANCH   1  15
BRANCH   7  20
ATOM     20  O   UNL     1     114.382 124.532 136.889  0.00  0.00    +0.000 OA
ATOM     21  C   UNL     1     114.746 124.936 137.509  0.00  0.00    +0.000 C 
ENDBRANCH   7  20
BRANCH   5  22
ATOM     22  O   UNL     1     111.713 123.514 136.787  0.00  0.00    +0.000 OA
ATOM     23  C   UNL     1     111.952 122.826 137.173  0.00  0.00    +0.000 C 
ENDBRANCH   5  22
TORSDOF 4
ENDMDL
MODEL 3
REMARK VINA RESULT:      -7.3     13.284     14.286
REMARK  Name = null
REMARK  4 active torsions:
REMARK  status: ('A' for Active; 'I' for Inactive)
REMARK    1  A    between atoms: O_2  and  C_3
REMARK    2  A    between atoms: C_6  and  C_9
REMARK    3  A    between atoms: C_13  and  O_21
REMARK    4  A    between atoms: C_15  and  O_19
REMARK                            x       y       z     vdW  Elec       q    Type
REMARK                         _______ _______ _______ _____ _____    ______ ____
ROOT
ATOM      1  C   UNL     1     104.547 124.573 147.101  0.00  0.00    +0.000 C 
ATOM      2  C   UNL     1     104.439 124.108 146.427  0.00  0.00    +0.000 C 
ATOM      3  C   UNL     1     103.681 123.875 146.203  0.00  0.00    +0.000 C 
ATOM      4  C   UNL     1     103.030 124.106 146.653  0.00  0.00    +0.000 A 
ATOM      5  C   UNL     1     102.270 123.873 146.430  0.00  0.00    +0.000 A 
ATOM      6  C   UNL     1     101.619 124.104 146.879  0.00  0.00    +0.000 A 
ATOM      7  C   UNL     1     101.726 124.569 147.553  0.00  0.00    +0.000 A 
ATOM      8  C   UNL     1     102.484 124.802 147.777  0.00  0.00    +0.000 A 
ATOM      9  C   UNL     1     103.137 124.571 147.327  0.00  0.00    +0.000 A 
ATOM     10  O   UNL     1     103.895 124.804 147.550  0.00  0.00    +0.000 OA
ATOM     11  O   UNL     1     105.092 123.878 145.977  0.00  0.00    +0.000 OA
ENDROOT
BRANCH   1  15
ATOM     12  C   UNL     1     106.825 125.271 147.771  0.00  0.00    +0.000 A 
ATOM     13  C   UNL     1     106.439 125.661 147.155  0.00  0.00    +0.000 A 
ATOM     14  C   UNL     1     105.680 125.428 146.932  0.00  0.00    +0.000 A 
ATOM     15  C   UNL     1     105.306 124.806 147.324  0.00  0.00    +0.000 A 
ATOM     16  C   UNL     1     105.692 124.416 147.940  0.00  0.00    +0.000 A 
ATOM     17  C   UNL     1     106.452 124.649 148.164  0.00  0.00    +0.000 A 
BRANCH  12  19
ATOM     18  C   UNL     1     108.217 124.983 147.907  0.00  0.00    +0.000 C 
ATOM     19  O   UNL     1     107.584 125.503 147.995  0.00  0.00    +0.000 OA
ENDBRANCH  12  19
ENDBRANCH   1  15
BRANCH   7  20
ATOM     20  O   UNL     1     101.073 124.799 148.003  0.00  0.00    +0.000 OA
ATOM     21  C   UNL     1     101.001 124.549 148.785  0.00  0.00    +0.000 C 
ENDBRANCH   7  20
BRANCH   5  22
ATOM     22  O   UNL     1     102.163 123.409 145.756  0.00  0.00    +0.000 OA
ATOM     23  C   UNL     1     101.403 123.188 145.524  0.00  0.00    +0.000 C 
ENDBRANCH   5  22
TORSDOF 4
ENDMDL
MODEL 4
REMARK VINA RESULT:      -7.3      1.072      2.222
REMARK  Name = null
REMARK  4 active torsions:
REMARK  status: ('A' for Active; 'I' for Inactive)
REMARK    1  A    between atoms: O_2  and  C_3
REMARK    2  A    between atoms: C_6  and  C_9
REMARK    3  A    between atoms: C_13  and  O_21
REMARK    4  A    between atoms: C_15  and  O_19
REMARK                            x       y       z     vdW  Elec       q    Type
REMARK                         _______ _______ _______ _____ _____    ______ ____
ROOT
ATOM      1  C   UNL     1     113.454 128.165 136.074  0.00  0.00    +0.000 C 
ATOM      2  C   UNL     1     112.671 128.057 135.831  0.00  0.00    +0.000 C 
ATOM      3  C   UNL     1     112.289 127.342 135.979  0.00  0.00    +0.000 C 
ATOM      4  C   UNL     1     112.687 126.734 136.368  0.00  0.00    +0.000 A 
ATOM      5  C   UNL     1     112.304 126.018 136.516  0.00  0.00    +0.000 A 
ATOM      6  C   UNL     1     112.702 125.410 136.905  0.00  0.00    +0.000 A 
ATOM      7  C   UNL     1     113.484 125.517 137.148  0.00  0.00    +0.000 A 
ATOM      8  C   UNL     1     113.867 126.232 137.000  0.00  0.00    +0.000 A 
ATOM      9  C   UNL     1     113.469 126.841 136.610  0.00  0.00    +0.000 A 
ATOM     10  O   UNL     1     113.851 127.557 136.463  0.00  0.00    +0.000 OA
ATOM     11  O   UNL     1     112.273 128.666 135.442  0.00  0.00    +0.000 OA
ENDROOT
BRANCH   1  15
ATOM     12  C   UNL     1     114.601 130.313 135.632  0.00  0.00    +0.000 A 
ATOM     13  C   UNL     1     114.641 129.703 135.078  0.00  0.00    +0.000 A 
ATOM     14  C   UNL     1     114.259 128.987 135.225  0.00  0.00    +0.000 A 
ATOM     15  C   UNL     1     113.836 128.881 135.926  0.00  0.00    +0.000 A 
ATOM     16  C   UNL     1     113.796 129.491 136.480  0.00  0.00    +0.000 A 
ATOM     17  C   UNL     1     114.178 130.208 136.332  0.00  0.00    +0.000 A 
BRANCH  12  19
ATOM     18  C   UNL     1     115.651 131.049 135.005  0.00  0.00    +0.000 C 
ATOM     19  O   UNL     1     114.982 131.029 135.485  0.00  0.00    +0.000 OA
ENDBRANCH  12  19
ENDBRANCH   1  15
BRANCH   7  20
ATOM     20  O   UNL     1     113.882 124.908 137.537  0.00  0.00    +0.000 OA
ATOM     21  C   UNL     1     114.628 124.672 137.280  0.00  0.00    +0.000 C 
ENDBRANCH   7  20
BRANCH   5  22
ATOM     22  O   UNL     1     111.523 125.911 136.273  0.00  0.00    +0.000 OA
ATOM     23  C   UNL     1     111.162 125.174 136.357  0.00  0.00    +0.000 C 
ENDBRANCH   5  22
TORSDOF 4
ENDMDL
MODEL 5
REMARK VINA RESULT:      -7.2     12.542     14.044
REMARK  Name = null
REMARK  4 active torsions:
REMARK  status: ('A' for Active; 'I' for Inactive)
REMARK    1  A    between atoms: O_2  and  C_3
REMARK    2  A    between atoms: C_6  and  C_9
REMARK    3  A    between atoms: C_13  and  O_21
REMARK    4  A    between atoms: C_15  and  O_19
REMARK                            x       y       z     vdW  Elec       q    Type
REMARK                         _______ _______ _______ _____ _____    ______ ____
ROOT
ATOM      1  C   UNL     1     103.941 124.239 146.623  0.00  0.00    +0.000 C 
ATOM      2  C   UNL     1     104.264 124.235 147.384  0.00  0.00    +0.000 C 
ATOM      3  C   UNL     1     105.016 124.546 147.513  0.00  0.00    +0.000 C 
ATOM      4  C   UNL     1     105.446 124.861 146.885  0.00  0.00    +0.000 A 
ATOM      5  C   UNL     1     106.199 125.172 147.014  0.00  0.00    +0.000 A 
ATOM      6  C   UNL     1     106.630 125.487 146.385  0.00  0.00    +0.000 A 
ATOM      7  C   UNL     1     106.308 125.490 145.625  0.00  0.00    +0.000 A 
ATOM      8  C   UNL     1     105.555 125.179 145.495  0.00  0.00    +0.000 A 
ATOM      9  C   UNL     1     105.124 124.864 146.124  0.00  0.00    +0.000 A 
ATOM     10  O   UNL     1     104.372 124.553 145.994  0.00  0.00    +0.000 OA
ATOM     11  O   UNL     1     103.832 123.920 148.013  0.00  0.00    +0.000 OA
ENDROOT
BRANCH   1  15
ATOM     12  C   UNL     1     101.682 123.305 146.235  0.00  0.00    +0.000 A 
ATOM     13  C   UNL     1     102.350 122.864 146.036  0.00  0.00    +0.000 A 
ATOM     14  C   UNL     1     103.102 123.175 146.165  0.00  0.00    +0.000 A 
ATOM     15  C   UNL     1     103.188 123.927 146.494  0.00  0.00    +0.000 A 
ATOM     16  C   UNL     1     102.520 124.368 146.693  0.00  0.00    +0.000 A 
ATOM     17  C   UNL     1     101.766 124.057 146.564  0.00  0.00    +0.000 A 
BRANCH  12  19
ATOM     18  C   UNL     1     100.710 122.740 145.354  0.00  0.00    +0.000 C 
ATOM     19  O   UNL     1     100.928 122.995 146.106  0.00  0.00    +0.000 OA
ENDBRANCH  12  19
ENDBRANCH   1  15
BRANCH   7  20
ATOM     20  O   UNL     1     106.739 125.805 144.996  0.00  0.00    +0.000 OA
ATOM     21  C   UNL     1     106.357 126.247 144.414  0.00  0.00    +0.000 C 
ENDBRANCH   7  20
BRANCH   5  22
ATOM     22  O   UNL     1     106.522 125.169 147.774  0.00  0.00    +0.000 OA
ATOM     23  C   UNL     1     107.340 125.158 147.875  0.00  0.00    +0.000 C 
ENDBRANCH   5  22
TORSDOF 4
ENDMDL
MODEL 6
REMARK VINA RESULT:      -7.2      1.415      4.559
REMARK  Name = null
REMARK  4 active torsions:
REMARK  status: ('A' for Active; 'I' for Inactive)
REMARK    1  A    between atoms: O_2  and  C_3
REMARK    2  A    between atoms: C_6  and  C_9
REMARK    3  A    between atoms: C_13  and  O_21
REMARK    4  A    between atoms: C_15  and  O_19
REMARK                            x       y       z     vdW  Elec       q    Type
REMARK                         _______ _______ _______ _____ _____    ______ ____
ROOT
ATOM      1  C   UNL     1     113.339 127.159 136.712  0.00  0.00    +0.000 C 
ATOM      2  C   UNL     1     113.066 127.587 137.364  0.00  0.00    +0.000 C 
ATOM      3  C   UNL     1     113.118 128.409 137.367  0.00  0.00    +0.000 C 
ATOM      4  C   UNL     1     113.442 128.805 136.721  0.00  0.00    +0.000 A 
ATOM      5  C   UNL     1     113.494 129.629 136.724  0.00  0.00    +0.000 A 
ATOM      6  C   UNL     1     113.818 130.024 136.078  0.00  0.00    +0.000 A 
ATOM      7  C   UNL     1     114.091 129.596 135.426  0.00  0.00    +0.000 A 
ATOM      8  C   UNL     1     114.039 128.774 135.422  0.00  0.00    +0.000 A 
ATOM      9  C   UNL     1     113.715 128.377 136.069  0.00  0.00    +0.000 A 
ATOM     10  O   UNL     1     113.663 127.554 136.066  0.00  0.00    +0.000 OA
ATOM     11  O   UNL     1     112.742 127.190 138.011  0.00  0.00    +0.000 OA
ENDROOT
BRANCH   1  15
ATOM     12  C   UNL     1     113.181 124.688 136.702  0.00  0.00    +0.000 A 
ATOM     13  C   UNL     1     113.878 125.056 136.946  0.00  0.00    +0.000 A 
ATOM     14  C   UNL     1     113.931 125.879 136.949  0.00  0.00    +0.000 A 
ATOM     15  C   UNL     1     113.287 126.335 136.709  0.00  0.00    +0.000 A 
ATOM     16  C   UNL     1     112.589 125.967 136.466  0.00  0.00    +0.000 A 
ATOM     17  C   UNL     1     112.536 125.143 136.463  0.00  0.00    +0.000 A 
BRANCH  12  19
ATOM     18  C   UNL     1     112.400 123.499 136.822  0.00  0.00    +0.000 C 
ATOM     19  O   UNL     1     113.128 123.865 136.699  0.00  0.00    +0.000 OA
ENDBRANCH  12  19
ENDBRANCH   1  15
BRANCH   7  20
ATOM     20  O   UNL     1     114.415 129.993 134.779  0.00  0.00    +0.000 OA
ATOM     21  C   UNL     1     115.220 129.924 134.613  0.00  0.00    +0.000 C 
ENDBRANCH   7  20
BRANCH   5  22
ATOM     22  O   UNL     1     113.222 130.056 137.375  0.00  0.00    +0.000 OA
ATOM     23  C   UNL     1     113.210 130.881 137.352  0.00  0.00    +0.000 C 
ENDBRANCH   5  22
TORSDOF 4
ENDMDL
MODEL 7
REMARK VINA RESULT:      -7.1      1.772      2.955
REMARK  Name = null
REMARK  4 active torsions:
REMARK  status: ('A' for Active; 'I' for Inactive)
REMARK    1  A    between atoms: O_2  and  C_3
REMARK    2  A    between atoms: C_6  and  C_9
REMARK    3  A    between atoms: C_13  and  O_21
REMARK    4  A    between atoms: C_15  and  O_19
REMARK                            x       y       z     vdW  Elec       q    Type
REMARK                         _______ _______ _______ _____ _____    ______ ____
ROOT
ATOM      1  C   UNL     1     111.761 126.886 135.969  0.00  0.00    +0.000 C 
ATOM      2  C   UNL     1     112.510 127.143 136.204  0.00  0.00    +0.000 C 
ATOM      3  C   UNL     1     113.065 126.598 136.477  0.00  0.00    +0.000 C 
ATOM      4  C   UNL     1     112.873 125.797 136.516  0.00  0.00    +0.000 A 
ATOM      5  C   UNL     1     113.428 125.251 136.789  0.00  0.00    +0.000 A 
ATOM      6  C   UNL     1     113.236 124.451 136.828  0.00  0.00    +0.000 A 
ATOM      7  C   UNL     1     112.487 124.194 136.592  0.00  0.00    +0.000 A 
ATOM      8  C   UNL     1     111.932 124.739 136.319  0.00  0.00    +0.000 A 
ATOM      9  C   UNL     1     112.124 125.541 136.280  0.00  0.00    +0.000 A 
ATOM     10  O   UNL     1     111.569 126.086 136.007  0.00  0.00    +0.000 OA
ATOM     11  O   UNL     1     112.702 127.944 136.165  0.00  0.00    +0.000 OA
ENDROOT
BRANCH   1  15
ATOM     12  C   UNL     1     110.096 128.523 135.147  0.00  0.00    +0.000 A 
ATOM     13  C   UNL     1     110.152 128.362 135.955  0.00  0.00    +0.000 A 
ATOM     14  C   UNL     1     110.706 127.816 136.228  0.00  0.00    +0.000 A 
ATOM     15  C   UNL     1     111.206 127.432 135.695  0.00  0.00    +0.000 A 
ATOM     16  C   UNL     1     111.150 127.594 134.888  0.00  0.00    +0.000 A 
ATOM     17  C   UNL     1     110.595 128.140 134.614  0.00  0.00    +0.000 A 
BRANCH  12  19
ATOM     18  C   UNL     1     109.777 129.834 134.678  0.00  0.00    +0.000 C 
ATOM     19  O   UNL     1     109.542 129.069 134.873  0.00  0.00    +0.000 OA
ENDBRANCH  12  19
ENDBRANCH   1  15
BRANCH   7  20
ATOM     20  O   UNL     1     112.295 123.393 136.631  0.00  0.00    +0.000 OA
ATOM     21  C   UNL     1     111.856 123.103 137.266  0.00  0.00    +0.000 C 
ENDBRANCH   7  20
BRANCH   5  22
ATOM     22  O   UNL     1     114.176 125.507 137.024  0.00  0.00    +0.000 OA
ATOM     23  C   UNL     1     114.741 124.960 137.273  0.00  0.00    +0.000 C 
ENDBRANCH   5  22
TORSDOF 4
ENDMDL
MODEL 8
REMARK VINA RESULT:      -7.0      2.842      4.648
REMARK  Name = null
REMARK  4 active torsions:
REMARK  status: ('A' for Active; 'I' for Inactive)
REMARK    1  A    between atoms: O_2  and  C_3
REMARK    2  A    between atoms: C_6  and  C_9
REMARK    3  A    between atoms: C_13  and  O_21
REMARK    4  A    between atoms: C_15  and  O_19
REMARK                            x       y       z     vdW  Elec       q    Type
REMARK                         _______ _______ _______ _____ _____    ______ ____
ROOT
ATOM      1  C   UNL     1     112.295 126.062 138.158  0.00  0.00    +0.000 C 
ATOM      2  C   UNL     1     113.116 126.158 138.165  0.00  0.00    +0.000 C 
ATOM      3  C   UNL     1     113.495 126.408 138.852  0.00  0.00    +0.000 C 
ATOM      4  C   UNL     1     113.057 126.561 139.533  0.00  0.00    +0.000 A 
ATOM      5  C   UNL     1     113.436 126.811 140.222  0.00  0.00    +0.000 A 
ATOM      6  C   UNL     1     112.998 126.965 140.903  0.00  0.00    +0.000 A 
ATOM      7  C   UNL     1     112.177 126.869 140.896  0.00  0.00    +0.000 A 
ATOM      8  C   UNL     1     111.798 126.619 140.208  0.00  0.00    +0.000 A 
ATOM      9  C   UNL     1     112.236 126.465 139.526  0.00  0.00    +0.000 A 
ATOM     10  O   UNL     1     111.857 126.216 138.838  0.00  0.00    +0.000 OA
ATOM     11  O   UNL     1     113.554 126.004 137.483  0.00  0.00    +0.000 OA
ENDROOT
BRANCH   1  15
ATOM     12  C   UNL     1     111.157 125.311 136.092  0.00  0.00    +0.000 A 
ATOM     13  C   UNL     1     111.324 126.111 136.203  0.00  0.00    +0.000 A 
ATOM     14  C   UNL     1     111.703 126.361 136.891  0.00  0.00    +0.000 A 
ATOM     15  C   UNL     1     111.916 125.812 137.469  0.00  0.00    +0.000 A 
ATOM     16  C   UNL     1     111.749 125.012 137.358  0.00  0.00    +0.000 A 
ATOM     17  C   UNL     1     111.369 124.761 136.669  0.00  0.00    +0.000 A 
BRANCH  12  19
ATOM     18  C   UNL     1     110.201 125.534 135.055  0.00  0.00    +0.000 C 
ATOM     19  O   UNL     1     110.777 125.060 135.404  0.00  0.00    +0.000 OA
ENDBRANCH  12  19
ENDBRANCH   1  15
BRANCH   7  20
ATOM     20  O   UNL     1     111.739 127.023 141.577  0.00  0.00    +0.000 OA
ATOM     21  C   UNL     1     111.220 127.663 141.599  0.00  0.00    +0.000 C 
ENDBRANCH   7  20
BRANCH   5  22
ATOM     22  O   UNL     1     114.256 126.907 140.229  0.00  0.00    +0.000 OA
ATOM     23  C   UNL     1     114.641 127.116 140.928  0.00  0.00    +0.000 C 
ENDBRANCH   5  22
TORSDOF 4
ENDMDL
MODEL 9
REMARK VINA RESULT:      -7.0      7.372      9.855
REMARK  Name = null
REMARK  4 active torsions:
REMARK  status: ('A' for Active; 'I' for Inactive)
REMARK    1  A    between atoms: O_2  and  C_3
REMARK    2  A    between atoms: C_6  and  C_9
REMARK    3  A    between atoms: C_13  and  O_21
REMARK    4  A    between atoms: C_15  and  O_19
REMARK                            x       y       z     vdW  Elec       q    Type
REMARK                         _______ _______ _______ _____ _____    ______ ____
ROOT
ATOM      1  C   UNL     1     104.418 123.847 139.242  0.00  0.00    +0.000 C 
ATOM      2  C   UNL     1     104.226 123.482 139.958  0.00  0.00    +0.000 C 
ATOM      3  C   UNL     1     104.671 123.641 140.634  0.00  0.00    +0.000 C 
ATOM      4  C   UNL     1     105.308 124.162 140.595  0.00  0.00    +0.000 A 
ATOM      5  C   UNL     1     105.754 124.321 141.271  0.00  0.00    +0.000 A 
ATOM      6  C   UNL     1     106.391 124.843 141.232  0.00  0.00    +0.000 A 
ATOM      7  C   UNL     1     106.583 125.207 140.516  0.00  0.00    +0.000 A 
ATOM      8  C   UNL     1     106.138 125.049 139.840  0.00  0.00    +0.000 A 
ATOM      9  C   UNL     1     105.500 124.527 139.879  0.00  0.00    +0.000 A 
ATOM     10  O   UNL     1     105.055 124.368 139.204  0.00  0.00    +0.000 OA
ATOM     11  O   UNL     1     103.588 122.960 139.997  0.00  0.00    +0.000 OA
ENDROOT
BRANCH   1  15
ATOM     12  C   UNL     1     103.081 123.370 137.215  0.00  0.00    +0.000 A 
ATOM     13  C   UNL     1     102.737 123.767 137.851  0.00  0.00    +0.000 A 
ATOM     14  C   UNL     1     103.183 123.926 138.526  0.00  0.00    +0.000 A 
ATOM     15  C   UNL     1     103.972 123.688 138.567  0.00  0.00    +0.000 A 
ATOM     16  C   UNL     1     104.315 123.290 137.930  0.00  0.00    +0.000 A 
ATOM     17  C   UNL     1     103.869 123.131 137.254  0.00  0.00    +0.000 A 
BRANCH  12  19
ATOM     18  C   UNL     1     103.013 123.013 135.833  0.00  0.00    +0.000 C 
ATOM     19  O   UNL     1     102.636 123.210 136.539  0.00  0.00    +0.000 OA
ENDBRANCH  12  19
ENDBRANCH   1  15
BRANCH   7  20
ATOM     20  O   UNL     1     107.221 125.729 140.477  0.00  0.00    +0.000 OA
ATOM     21  C   UNL     1     107.981 125.443 140.338  0.00  0.00    +0.000 C 
ENDBRANCH   7  20
BRANCH   5  22
ATOM     22  O   UNL     1     105.562 123.958 141.986  0.00  0.00    +0.000 OA
ATOM     23  C   UNL     1     105.769 124.315 142.700  0.00  0.00    +0.000 C 
ENDBRANCH   5  22
TORSDOF 4
ENDMDL
MODEL 10
REMARK VINA RESULT:      -7.0      2.754      3.654
REMARK  Name = null
REMARK  4 active torsions:
REMARK  status: ('A' for Active; 'I' for Inactive)
REMARK    1  A    between atoms: O_2  and  C_3
REMARK    2  A    between atoms: C_6  and  C_9
REMARK    3  A    between atoms: C_13  and  O_21
REMARK    4  A    between atoms: C_15  and  O_19
REMARK                            x       y       z     vdW  Elec       q    Type
REMARK                         _______ _______ _______ _____ _____    ______ ____
ROOT
ATOM      1  C   UNL     1     113.127 126.607 139.037  0.00  0.00    +0.000 C 
ATOM      2  C   UNL     1     112.387 126.262 138.913  0.00  0.00    +0.000 C 
ATOM      3  C   UNL     1     112.297 125.674 138.342  0.00  0.00    +0.000 C 
ATOM      4  C   UNL     1     112.945 125.431 137.894  0.00  0.00    +0.000 A 
ATOM      5  C   UNL     1     112.855 124.843 137.322  0.00  0.00    +0.000 A 
ATOM      6  C   UNL     1     113.504 124.600 136.875  0.00  0.00    +0.000 A 
ATOM      7  C   UNL     1     114.244 124.946 136.999  0.00  0.00    +0.000 A 
ATOM      8  C   UNL     1     114.334 125.533 137.570  0.00  0.00    +0.000 A 
ATOM      9  C   UNL     1     113.685 125.776 138.018  0.00  0.00    +0.000 A 
ATOM     10  O   UNL     1     113.775 126.364 138.590  0.00  0.00    +0.000 OA
ATOM     11  O   UNL     1     111.739 126.505 139.362  0.00  0.00    +0.000 OA
ENDROOT
BRANCH   1  15
ATOM     12  C   UNL     1     113.397 128.369 140.754  0.00  0.00    +0.000 A 
ATOM     13  C   UNL     1     113.209 128.575 139.978  0.00  0.00    +0.000 A 
ATOM     14  C   UNL     1     113.119 127.988 139.406  0.00  0.00    +0.000 A 
ATOM     15  C   UNL     1     113.217 127.195 139.609  0.00  0.00    +0.000 A 
ATOM     16  C   UNL     1     113.405 126.989 140.386  0.00  0.00    +0.000 A 
ATOM     17  C   UNL     1     113.495 127.576 140.959  0.00  0.00    +0.000 A 
BRANCH  12  19
ATOM     18  C   UNL     1     112.824 129.332 141.640  0.00  0.00    +0.000 C 
ATOM     19  O   UNL     1     113.487 128.956 141.327  0.00  0.00    +0.000 OA
ENDBRANCH  12  19
ENDBRANCH   1  15
BRANCH   7  20
ATOM     20  O   UNL     1     114.892 124.702 136.550  0.00  0.00    +0.000 OA
ATOM     21  C   UNL     1     115.233 125.217 136.004  0.00  0.00    +0.000 C 
ENDBRANCH   7  20
BRANCH   5  22
ATOM     22  O   UNL     1     112.116 124.499 137.198  0.00  0.00    +0.000 OA
ATOM     23  C   UNL     1     112.042 123.852 136.691  0.00  0.00    +0.000 C 
ENDBRANCH   5  22
TORSDOF 4
ENDMDL
