MODEL 1
REMARK VINA RESULT:      -8.6      0.000      0.000
REMARK  Name = 42607876
REMARK  5 active torsions:
REMARK  status: ('A' for Active; 'I' for Inactive)
REMARK    1  A    between atoms: O_2  and  C_13
REMARK    2  A    between atoms: O_4  and  C_14
REMARK    3  A    between atoms: C_6  and  C_12
REMARK    4  A    between atoms: C_11  and  C_16
REMARK    5  A    between atoms: C_17  and  C_18
REMARK                            x       y       z     vdW  Elec       q    Type
REMARK                         _______ _______ _______ _____ _____    ______ ____
ROOT
ATOM      1  O   UNL     1     112.902 127.217 136.335  0.00  0.00    +0.000 OA
ATOM      2  O   UNL     1     110.703 127.557 135.126  0.00  0.00    +0.000 OA
ATOM      3  C   UNL     1     112.714 127.992 136.012  0.00  0.00    +0.000 C 
ATOM      4  C   UNL     1     111.968 128.110 135.601  0.00  0.00    +0.000 C 
ATOM      5  C   UNL     1     112.342 126.573 136.243  0.00  0.00    +0.000 A 
ATOM      6  C   UNL     1     111.626 126.686 135.849  0.00  0.00    +0.000 A 
ATOM      7  C   UNL     1     111.421 127.452 135.519  0.00  0.00    +0.000 C 
ATOM      8  C   UNL     1     112.527 125.832 136.556  0.00  0.00    +0.000 A 
ATOM      9  C   UNL     1     111.096 126.059 135.767  0.00  0.00    +0.000 A 
ATOM     10  C   UNL     1     111.997 125.205 136.474  0.00  0.00    +0.000 A 
ATOM     11  C   UNL     1     111.282 125.318 136.080  0.00  0.00    +0.000 A 
ENDROOT
BRANCH   3  12
ATOM     12  C   UNL     1     113.245 128.617 136.095  0.00  0.00    +0.000 A 
ATOM     13  C   UNL     1     113.805 128.763 135.507  0.00  0.00    +0.000 A 
ATOM     14  C   UNL     1     113.217 129.096 136.767  0.00  0.00    +0.000 A 
ATOM     15  C   UNL     1     114.337 129.389 135.591  0.00  0.00    +0.000 A 
ATOM     16  C   UNL     1     113.748 129.720 136.850  0.00  0.00    +0.000 A 
ATOM     17  C   UNL     1     114.309 129.868 136.263  0.00  0.00    +0.000 A 
ENDBRANCH   3  12
BRANCH   9  18
ATOM     18  O   UNL     1     110.380 126.172 135.372  0.00  0.00    +0.000 OA
ATOM     19  C   UNL     1     110.126 125.622 134.813  0.00  0.00    +0.000 C 
ENDBRANCH   9  18
BRANCH  10  20
ATOM     20  O   UNL     1     112.183 124.464 136.787  0.00  0.00    +0.000 OA
ATOM     21  C   UNL     1     111.586 123.912 136.923  0.00  0.00    +0.000 C 
ENDBRANCH  10  20
BRANCH   8  22
ATOM     22  C   UNL     1     113.242 125.718 136.950  0.00  0.00    +0.000 C 
ATOM     23  C   UNL     1     113.864 125.327 136.574  0.00  0.00    +0.000 C 
BRANCH  23  25
ATOM     24  O   UNL     1     115.295 125.100 137.363  0.00  0.00    +0.000 OA
ATOM     25  C   UNL     1     114.579 125.214 136.969  0.00  0.00    +0.000 C 
ATOM     26  C   UNL     1     114.198 125.322 137.692  0.00  0.00    +0.000 C 
ATOM     27  C   UNL     1     114.961 125.106 136.245  0.00  0.00    +0.000 C 
ENDBRANCH  23  25
ENDBRANCH   8  22
TORSDOF 5
ENDMDL
MODEL 2
REMARK VINA RESULT:      -8.5      0.966      3.334
REMARK  Name = 42607876
REMARK  5 active torsions:
REMARK  status: ('A' for Active; 'I' for Inactive)
REMARK    1  A    between atoms: O_2  and  C_13
REMARK    2  A    between atoms: O_4  and  C_14
REMARK    3  A    between atoms: C_6  and  C_12
REMARK    4  A    between atoms: C_11  and  C_16
REMARK    5  A    between atoms: C_17  and  C_18
REMARK                            x       y       z     vdW  Elec       q    Type
REMARK                         _______ _______ _______ _____ _____    ______ ____
ROOT
ATOM      1  O   UNL     1     112.581 126.521 136.402  0.00  0.00    +0.000 OA
ATOM      2  O   UNL     1     110.842 124.799 135.755  0.00  0.00    +0.000 OA
ATOM      3  C   UNL     1     112.756 125.686 136.507  0.00  0.00    +0.000 C 
ATOM      4  C   UNL     1     112.167 125.099 136.288  0.00  0.00    +0.000 C 
ATOM      5  C   UNL     1     111.821 126.758 136.081  0.00  0.00    +0.000 A 
ATOM      6  C   UNL     1     111.256 126.195 135.870  0.00  0.00    +0.000 A 
ATOM      7  C   UNL     1     111.412 125.356 135.968  0.00  0.00    +0.000 C 
ATOM      8  C   UNL     1     111.658 127.561 135.982  0.00  0.00    +0.000 A 
ATOM      9  C   UNL     1     110.528 126.434 135.562  0.00  0.00    +0.000 A 
ATOM     10  C   UNL     1     110.932 127.801 135.674  0.00  0.00    +0.000 A 
ATOM     11  C   UNL     1     110.367 127.237 135.464  0.00  0.00    +0.000 A 
ENDROOT
BRANCH   3  12
ATOM     12  C   UNL     1     113.483 125.449 136.816  0.00  0.00    +0.000 A 
ATOM     13  C   UNL     1     114.078 125.181 136.311  0.00  0.00    +0.000 A 
ATOM     14  C   UNL     1     113.616 125.481 137.629  0.00  0.00    +0.000 A 
ATOM     15  C   UNL     1     114.806 124.944 136.620  0.00  0.00    +0.000 A 
ATOM     16  C   UNL     1     114.343 125.244 137.938  0.00  0.00    +0.000 A 
ATOM     17  C   UNL     1     114.939 124.976 137.434  0.00  0.00    +0.000 A 
ENDBRANCH   3  12
BRANCH   9  18
ATOM     18  O   UNL     1     109.963 125.871 135.352  0.00  0.00    +0.000 OA
ATOM     19  C   UNL     1     109.596 125.911 134.615  0.00  0.00    +0.000 C 
ENDBRANCH   9  18
BRANCH  10  20
ATOM     20  O   UNL     1     110.769 128.604 135.576  0.00  0.00    +0.000 OA
ATOM     21  C   UNL     1     109.991 128.859 135.483  0.00  0.00    +0.000 C 
ENDBRANCH  10  20
BRANCH   8  22
ATOM     22  C   UNL     1     112.223 128.124 136.192  0.00  0.00    +0.000 C 
ATOM     23  C   UNL     1     112.705 128.462 135.614  0.00  0.00    +0.000 C 
BRANCH  23  25
ATOM     24  O   UNL     1     113.834 129.589 136.034  0.00  0.00    +0.000 OA
ATOM     25  C   UNL     1     113.269 129.026 135.824  0.00  0.00    +0.000 C 
ATOM     26  C   UNL     1     112.930 129.086 136.574  0.00  0.00    +0.000 C 
ATOM     27  C   UNL     1     113.609 128.965 135.074  0.00  0.00    +0.000 C 
ENDBRANCH  23  25
ENDBRANCH   8  22
TORSDOF 5
ENDMDL
MODEL 3
REMARK VINA RESULT:      -8.1      1.051      3.037
REMARK  Name = 42607876
REMARK  5 active torsions:
REMARK  status: ('A' for Active; 'I' for Inactive)
REMARK    1  A    between atoms: O_2  and  C_13
REMARK    2  A    between atoms: O_4  and  C_14
REMARK    3  A    between atoms: C_6  and  C_12
REMARK    4  A    between atoms: C_11  and  C_16
REMARK    5  A    between atoms: C_17  and  C_18
REMARK                            x       y       z     vdW  Elec       q    Type
REMARK                         _______ _______ _______ _____ _____    ______ ____
ROOT
ATOM      1  O   UNL     1     112.307 126.983 136.252  0.00  0.00    +0.000 OA
ATOM      2  O   UNL     1     114.747 126.384 136.568  0.00  0.00    +0.000 OA
ATOM      3  C   UNL     1     112.899 127.607 136.239  0.00  0.00    +0.000 C 
ATOM      4  C   UNL     1     113.728 127.406 136.346  0.00  0.00    +0.000 C 
ATOM      5  C   UNL     1     112.552 126.169 136.371  0.00  0.00    +0.000 A 
ATOM      6  C   UNL     1     113.347 125.977 136.474  0.00  0.00    +0.000 A 
ATOM      7  C   UNL     1     113.953 126.585 136.464  0.00  0.00    +0.000 C 
ATOM      8  C   UNL     1     111.979 125.575 136.383  0.00  0.00    +0.000 A 
ATOM      9  C   UNL     1     113.571 125.190 136.588  0.00  0.00    +0.000 A 
ATOM     10  C   UNL     1     112.202 124.789 136.497  0.00  0.00    +0.000 A 
ATOM     11  C   UNL     1     112.998 124.597 136.600  0.00  0.00    +0.000 A 
ENDROOT
BRANCH   3  12
ATOM     12  C   UNL     1     112.673 128.392 136.125  0.00  0.00    +0.000 A 
ATOM     13  C   UNL     1     112.456 128.857 136.771  0.00  0.00    +0.000 A 
ATOM     14  C   UNL     1     112.665 128.712 135.364  0.00  0.00    +0.000 A 
ATOM     15  C   UNL     1     112.230 129.643 136.655  0.00  0.00    +0.000 A 
ATOM     16  C   UNL     1     112.440 129.497 135.250  0.00  0.00    +0.000 A 
ATOM     17  C   UNL     1     112.222 129.963 135.895  0.00  0.00    +0.000 A 
ENDBRANCH   3  12
BRANCH   9  18
ATOM     18  O   UNL     1     114.366 124.997 136.691  0.00  0.00    +0.000 OA
ATOM     19  C   UNL     1     114.610 124.602 137.372  0.00  0.00    +0.000 C 
ENDBRANCH   9  18
BRANCH  10  20
ATOM     20  O   UNL     1     111.630 124.195 136.508  0.00  0.00    +0.000 OA
ATOM     21  C   UNL     1     111.812 123.452 136.815  0.00  0.00    +0.000 C 
ENDBRANCH  10  20
BRANCH   8  22
ATOM     22  C   UNL     1     111.184 125.767 136.280  0.00  0.00    +0.000 C 
ATOM     23  C   UNL     1     110.839 125.713 135.533  0.00  0.00    +0.000 C 
BRANCH  23  25
ATOM     24  O   UNL     1     109.248 126.097 135.327  0.00  0.00    +0.000 OA
ATOM     25  C   UNL     1     110.043 125.905 135.430  0.00  0.00    +0.000 C 
ATOM     26  C   UNL     1     110.109 125.744 134.623  0.00  0.00    +0.000 C 
ATOM     27  C   UNL     1     109.978 126.066 136.236  0.00  0.00    +0.000 C 
ENDBRANCH  23  25
ENDBRANCH   8  22
TORSDOF 5
ENDMDL
MODEL 4
REMARK VINA RESULT:      -8.1      1.385      3.843
REMARK  Name = 42607876
REMARK  5 active torsions:
REMARK  status: ('A' for Active; 'I' for Inactive)
REMARK    1  A    between atoms: O_2  and  C_13
REMARK    2  A    between atoms: O_4  and  C_14
REMARK    3  A    between atoms: C_6  and  C_12
REMARK    4  A    between atoms: C_11  and  C_16
REMARK    5  A    between atoms: C_17  and  C_18
REMARK                            x       y       z     vdW  Elec       q    Type
REMARK                         _______ _______ _______ _____ _____    ______ ____
ROOT
ATOM      1  O   UNL     1     112.687 127.105 136.124  0.00  0.00    +0.000 OA
ATOM      2  O   UNL     1     113.635 129.313 136.923  0.00  0.00    +0.000 OA
ATOM      3  C   UNL     1     113.417 127.110 136.578  0.00  0.00    +0.000 C 
ATOM      4  C   UNL     1     113.742 127.859 136.850  0.00  0.00    +0.000 C 
ATOM      5  C   UNL     1     112.291 127.847 135.950  0.00  0.00    +0.000 A 
ATOM      6  C   UNL     1     112.602 128.565 136.212  0.00  0.00    +0.000 A 
ATOM      7  C   UNL     1     113.331 128.590 136.666  0.00  0.00    +0.000 C 
ATOM      8  C   UNL     1     111.590 127.836 135.515  0.00  0.00    +0.000 A 
ATOM      9  C   UNL     1     112.212 129.272 136.038  0.00  0.00    +0.000 A 
ATOM     10  C   UNL     1     111.200 128.542 135.341  0.00  0.00    +0.000 A 
ATOM     11  C   UNL     1     111.512 129.260 135.603  0.00  0.00    +0.000 A 
ENDROOT
BRANCH   3  12
ATOM     12  C   UNL     1     113.805 126.403 136.750  0.00  0.00    +0.000 A 
ATOM     13  C   UNL     1     114.331 126.077 136.205  0.00  0.00    +0.000 A 
ATOM     14  C   UNL     1     113.665 126.020 137.468  0.00  0.00    +0.000 A 
ATOM     15  C   UNL     1     114.718 125.369 136.378  0.00  0.00    +0.000 A 
ATOM     16  C   UNL     1     114.052 125.313 137.640  0.00  0.00    +0.000 A 
ATOM     17  C   UNL     1     114.579 124.987 137.095  0.00  0.00    +0.000 A 
ENDBRANCH   3  12
BRANCH   9  18
ATOM     18  O   UNL     1     112.524 129.990 136.300  0.00  0.00    +0.000 OA
ATOM     19  C   UNL     1     112.040 130.530 136.691  0.00  0.00    +0.000 C 
ENDBRANCH   9  18
BRANCH  10  20
ATOM     20  O   UNL     1     110.499 128.531 134.906  0.00  0.00    +0.000 OA
ATOM     21  C   UNL     1     110.185 129.234 134.612  0.00  0.00    +0.000 C 
ENDBRANCH  10  20
BRANCH   8  22
ATOM     22  C   UNL     1     111.278 127.118 135.253  0.00  0.00    +0.000 C 
ATOM     23  C   UNL     1     110.657 126.764 135.664  0.00  0.00    +0.000 C 
BRANCH  23  25
ATOM     24  O   UNL     1     110.034 125.328 135.140  0.00  0.00    +0.000 OA
ATOM     25  C   UNL     1     110.345 126.046 135.402  0.00  0.00    +0.000 C 
ATOM     26  C   UNL     1     110.622 126.203 134.641  0.00  0.00    +0.000 C 
ATOM     27  C   UNL     1     110.069 125.889 136.163  0.00  0.00    +0.000 C 
ENDBRANCH  23  25
ENDBRANCH   8  22
TORSDOF 5
ENDMDL
MODEL 5
REMARK VINA RESULT:      -8.1      2.084      4.642
REMARK  Name = 42607876
REMARK  5 active torsions:
REMARK  status: ('A' for Active; 'I' for Inactive)
REMARK    1  A    between atoms: O_2  and  C_13
REMARK    2  A    between atoms: O_4  and  C_14
REMARK    3  A    between atoms: C_6  and  C_12
REMARK    4  A    between atoms: C_11  and  C_16
REMARK    5  A    between atoms: C_17  and  C_18
REMARK                            x       y       z     vdW  Elec       q    Type
REMARK                         _______ _______ _______ _____ _____    ______ ____
ROOT
ATOM      1  O   UNL     1     113.261 127.059 137.773  0.00  0.00    +0.000 OA
ATOM      2  O   UNL     1     113.589 126.941 140.281  0.00  0.00    +0.000 OA
ATOM      3  C   UNL     1     113.479 126.310 138.134  0.00  0.00    +0.000 C 
ATOM      4  C   UNL     1     113.591 126.267 138.986  0.00  0.00    +0.000 C 
ATOM      5  C   UNL     1     113.157 127.754 138.267  0.00  0.00    +0.000 A 
ATOM      6  C   UNL     1     113.265 127.713 139.084  0.00  0.00    +0.000 A 
ATOM      7  C   UNL     1     113.483 126.974 139.463  0.00  0.00    +0.000 C 
ATOM      8  C   UNL     1     112.948 128.470 137.914  0.00  0.00    +0.000 A 
ATOM      9  C   UNL     1     113.163 128.388 139.548  0.00  0.00    +0.000 A 
ATOM     10  C   UNL     1     112.845 129.144 138.378  0.00  0.00    +0.000 A 
ATOM     11  C   UNL     1     112.953 129.103 139.195  0.00  0.00    +0.000 A 
ENDROOT
BRANCH   3  12
ATOM     12  C   UNL     1     113.581 125.637 137.668  0.00  0.00    +0.000 A 
ATOM     13  C   UNL     1     112.926 125.193 137.437  0.00  0.00    +0.000 A 
ATOM     14  C   UNL     1     114.338 125.409 137.433  0.00  0.00    +0.000 A 
ATOM     15  C   UNL     1     113.028 124.519 136.970  0.00  0.00    +0.000 A 
ATOM     16  C   UNL     1     114.440 124.737 136.967  0.00  0.00    +0.000 A 
ATOM     17  C   UNL     1     113.785 124.291 136.735  0.00  0.00    +0.000 A 
ENDBRANCH   3  12
BRANCH   9  18
ATOM     18  O   UNL     1     113.270 128.346 140.365  0.00  0.00    +0.000 OA
ATOM     19  C   UNL     1     113.672 128.949 140.759  0.00  0.00    +0.000 C 
ENDBRANCH   9  18
BRANCH  10  20
ATOM     20  O   UNL     1     112.636 129.860 138.025  0.00  0.00    +0.000 OA
ATOM     21  C   UNL     1     112.298 130.460 138.479  0.00  0.00    +0.000 C 
ENDBRANCH  10  20
BRANCH   8  22
ATOM     22  C   UNL     1     112.840 128.511 137.097  0.00  0.00    +0.000 C 
ATOM     23  C   UNL     1     113.443 128.803 136.616  0.00  0.00    +0.000 C 
BRANCH  23  25
ATOM     24  O   UNL     1     113.228 128.885 134.982  0.00  0.00    +0.000 OA
ATOM     25  C   UNL     1     113.336 128.844 135.799  0.00  0.00    +0.000 C 
ATOM     26  C   UNL     1     114.144 128.977 135.699  0.00  0.00    +0.000 C 
ATOM     27  C   UNL     1     112.527 128.711 135.898  0.00  0.00    +0.000 C 
ENDBRANCH  23  25
ENDBRANCH   8  22
TORSDOF 5
ENDMDL
MODEL 6
REMARK VINA RESULT:      -8.0      2.255      4.186
REMARK  Name = 42607876
REMARK  5 active torsions:
REMARK  status: ('A' for Active; 'I' for Inactive)
REMARK    1  A    between atoms: O_2  and  C_13
REMARK    2  A    between atoms: O_4  and  C_14
REMARK    3  A    between atoms: C_6  and  C_12
REMARK    4  A    between atoms: C_11  and  C_16
REMARK    5  A    between atoms: C_17  and  C_18
REMARK                            x       y       z     vdW  Elec       q    Type
REMARK                         _______ _______ _______ _____ _____    ______ ____
ROOT
ATOM      1  O   UNL     1     113.292 126.976 137.955  0.00  0.00    +0.000 OA
ATOM      2  O   UNL     1     113.443 128.418 135.879  0.00  0.00    +0.000 OA
ATOM      3  C   UNL     1     113.487 126.610 137.201  0.00  0.00    +0.000 C 
ATOM      4  C   UNL     1     113.539 127.098 136.494  0.00  0.00    +0.000 C 
ATOM      5  C   UNL     1     113.151 127.822 137.991  0.00  0.00    +0.000 A 
ATOM      6  C   UNL     1     113.201 128.290 137.313  0.00  0.00    +0.000 A 
ATOM      7  C   UNL     1     113.395 127.943 136.552  0.00  0.00    +0.000 C 
ATOM      8  C   UNL     1     112.964 128.167 138.717  0.00  0.00    +0.000 A 
ATOM      9  C   UNL     1     113.064 129.102 137.361  0.00  0.00    +0.000 A 
ATOM     10  C   UNL     1     112.827 128.979 138.765  0.00  0.00    +0.000 A 
ATOM     11  C   UNL     1     112.877 129.446 138.087  0.00  0.00    +0.000 A 
ENDROOT
BRANCH   3  12
ATOM     12  C   UNL     1     113.624 125.798 137.156  0.00  0.00    +0.000 A 
ATOM     13  C   UNL     1     112.999 125.283 136.998  0.00  0.00    +0.000 A 
ATOM     14  C   UNL     1     114.386 125.501 137.269  0.00  0.00    +0.000 A 
ATOM     15  C   UNL     1     113.137 124.470 136.954  0.00  0.00    +0.000 A 
ATOM     16  C   UNL     1     114.523 124.690 137.224  0.00  0.00    +0.000 A 
ATOM     17  C   UNL     1     113.899 124.173 137.066  0.00  0.00    +0.000 A 
ENDBRANCH   3  12
BRANCH   9  18
ATOM     18  O   UNL     1     113.113 129.570 136.683  0.00  0.00    +0.000 OA
ATOM     19  C   UNL     1     113.452 130.320 136.724  0.00  0.00    +0.000 C 
ENDBRANCH   9  18
BRANCH  10  20
ATOM     20  O   UNL     1     112.640 129.324 139.491  0.00  0.00    +0.000 OA
ATOM     21  C   UNL     1     112.274 130.063 139.515  0.00  0.00    +0.000 C 
ENDBRANCH  10  20
BRANCH   8  22
ATOM     22  C   UNL     1     112.915 127.700 139.395  0.00  0.00    +0.000 C 
ATOM     23  C   UNL     1     113.549 127.666 139.921  0.00  0.00    +0.000 C 
BRANCH  23  25
ATOM     24  O   UNL     1     113.450 126.731 141.277  0.00  0.00    +0.000 OA
ATOM     25  C   UNL     1     113.499 127.199 140.599  0.00  0.00    +0.000 C 
ATOM     26  C   UNL     1     114.310 127.293 140.723  0.00  0.00    +0.000 C 
ATOM     27  C   UNL     1     112.689 127.105 140.475  0.00  0.00    +0.000 C 
ENDBRANCH  23  25
ENDBRANCH   8  22
TORSDOF 5
ENDMDL
MODEL 7
REMARK VINA RESULT:      -7.9     13.432     14.699
REMARK  Name = 42607876
REMARK  5 active torsions:
REMARK  status: ('A' for Active; 'I' for Inactive)
REMARK    1  A    between atoms: O_2  and  C_13
REMARK    2  A    between atoms: O_4  and  C_14
REMARK    3  A    between atoms: C_6  and  C_12
REMARK    4  A    between atoms: C_11  and  C_16
REMARK    5  A    between atoms: C_17  and  C_18
REMARK                            x       y       z     vdW  Elec       q    Type
REMARK                         _______ _______ _______ _____ _____    ______ ____
ROOT
ATOM      1  O   UNL     1     104.954 124.907 148.122  0.00  0.00    +0.000 OA
ATOM      2  O   UNL     1     104.169 126.798 149.612  0.00  0.00    +0.000 OA
ATOM      3  C   UNL     1     105.520 125.304 148.633  0.00  0.00    +0.000 C 
ATOM      4  C   UNL     1     105.257 125.946 149.140  0.00  0.00    +0.000 C 
ATOM      5  C   UNL     1     104.133 125.157 148.125  0.00  0.00    +0.000 A 
ATOM      6  C   UNL     1     103.879 125.773 148.612  0.00  0.00    +0.000 A 
ATOM      7  C   UNL     1     104.430 126.182 149.129  0.00  0.00    +0.000 C 
ATOM      8  C   UNL     1     103.593 124.772 147.633  0.00  0.00    +0.000 A 
ATOM      9  C   UNL     1     103.087 126.005 148.606  0.00  0.00    +0.000 A 
ATOM     10  C   UNL     1     102.802 125.003 147.627  0.00  0.00    +0.000 A 
ATOM     11  C   UNL     1     102.549 125.620 148.113  0.00  0.00    +0.000 A 
ENDROOT
BRANCH   3  12
ATOM     12  C   UNL     1     106.312 125.070 148.637  0.00  0.00    +0.000 A 
ATOM     13  C   UNL     1     106.838 125.388 148.087  0.00  0.00    +0.000 A 
ATOM     14  C   UNL     1     106.576 124.519 149.191  0.00  0.00    +0.000 A 
ATOM     15  C   UNL     1     107.630 125.154 148.092  0.00  0.00    +0.000 A 
ATOM     16  C   UNL     1     107.367 124.285 149.195  0.00  0.00    +0.000 A 
ATOM     17  C   UNL     1     107.895 124.602 148.646  0.00  0.00    +0.000 A 
ENDBRANCH   3  12
BRANCH   9  18
ATOM     18  O   UNL     1     102.834 126.622 149.092  0.00  0.00    +0.000 OA
ATOM     19  C   UNL     1     102.258 127.147 148.825  0.00  0.00    +0.000 C 
ENDBRANCH   9  18
BRANCH  10  20
ATOM     20  O   UNL     1     102.263 124.619 147.135  0.00  0.00    +0.000 OA
ATOM     21  C   UNL     1     101.459 124.624 147.319  0.00  0.00    +0.000 C 
ENDBRANCH  10  20
BRANCH   8  22
ATOM     22  C   UNL     1     103.847 124.156 147.147  0.00  0.00    +0.000 C 
ATOM     23  C   UNL     1     103.948 124.283 146.338  0.00  0.00    +0.000 C 
BRANCH  23  25
ATOM     24  O   UNL     1     104.455 123.050 145.366  0.00  0.00    +0.000 OA
ATOM     25  C   UNL     1     104.201 123.666 145.852  0.00  0.00    +0.000 C 
ATOM     26  C   UNL     1     104.636 124.202 145.400  0.00  0.00    +0.000 C 
ATOM     27  C   UNL     1     103.767 123.131 146.305  0.00  0.00    +0.000 C 
ENDBRANCH  23  25
ENDBRANCH   8  22
TORSDOF 5
ENDMDL
MODEL 8
REMARK VINA RESULT:      -7.9     13.650     15.103
REMARK  Name = 42607876
REMARK  5 active torsions:
REMARK  status: ('A' for Active; 'I' for Inactive)
REMARK    1  A    between atoms: O_2  and  C_13
REMARK    2  A    between atoms: O_4  and  C_14
REMARK    3  A    between atoms: C_6  and  C_12
REMARK    4  A    between atoms: C_11  and  C_16
REMARK    5  A    between atoms: C_17  and  C_18
REMARK                            x       y       z     vdW  Elec       q    Type
REMARK                         _______ _______ _______ _____ _____    ______ ____
ROOT
ATOM      1  O   UNL     1     103.548 124.418 147.640  0.00  0.00    +0.000 OA
ATOM      2  O   UNL     1     105.027 123.832 145.670  0.00  0.00    +0.000 OA
ATOM      3  C   UNL     1     104.359 124.705 147.621  0.00  0.00    +0.000 C 
ATOM      4  C   UNL     1     104.863 124.508 146.954  0.00  0.00    +0.000 C 
ATOM      5  C   UNL     1     103.254 123.939 146.992  0.00  0.00    +0.000 A 
ATOM      6  C   UNL     1     103.738 123.749 146.351  0.00  0.00    +0.000 A 
ATOM      7  C   UNL     1     104.550 124.026 146.314  0.00  0.00    +0.000 C 
ATOM      8  C   UNL     1     102.475 123.666 147.015  0.00  0.00    +0.000 A 
ATOM      9  C   UNL     1     103.443 123.287 145.733  0.00  0.00    +0.000 A 
ATOM     10  C   UNL     1     102.181 123.205 146.398  0.00  0.00    +0.000 A 
ATOM     11  C   UNL     1     102.665 123.015 145.758  0.00  0.00    +0.000 A 
ENDROOT
BRANCH   3  12
ATOM     12  C   UNL     1     104.651 125.167 148.240  0.00  0.00    +0.000 A 
ATOM     13  C   UNL     1     105.115 124.822 148.828  0.00  0.00    +0.000 A 
ATOM     14  C   UNL     1     104.478 125.973 148.270  0.00  0.00    +0.000 A 
ATOM     15  C   UNL     1     105.407 125.284 149.447  0.00  0.00    +0.000 A 
ATOM     16  C   UNL     1     104.770 126.434 148.887  0.00  0.00    +0.000 A 
ATOM     17  C   UNL     1     105.234 126.091 149.477  0.00  0.00    +0.000 A 
ENDBRANCH   3  12
BRANCH   9  18
ATOM     18  O   UNL     1     103.927 123.098 145.093  0.00  0.00    +0.000 OA
ATOM     19  C   UNL     1     103.604 122.739 144.424  0.00  0.00    +0.000 C 
ENDBRANCH   9  18
BRANCH  10  20
ATOM     20  O   UNL     1     101.402 122.932 146.422  0.00  0.00    +0.000 OA
ATOM     21  C   UNL     1     101.011 122.739 145.722  0.00  0.00    +0.000 C 
ENDBRANCH  10  20
BRANCH   8  22
ATOM     22  C   UNL     1     101.991 123.855 147.656  0.00  0.00    +0.000 C 
ATOM     23  C   UNL     1     101.857 123.300 148.250  0.00  0.00    +0.000 C 
BRANCH  23  25
ATOM     24  O   UNL     1     100.890 123.679 149.532  0.00  0.00    +0.000 OA
ATOM     25  C   UNL     1     101.373 123.489 148.891  0.00  0.00    +0.000 C 
ATOM     26  C   UNL     1     101.104 124.158 148.490  0.00  0.00    +0.000 C 
ATOM     27  C   UNL     1     101.643 122.820 149.292  0.00  0.00    +0.000 C 
ENDBRANCH  23  25
ENDBRANCH   8  22
TORSDOF 5
ENDMDL
MODEL 9
REMARK VINA RESULT:      -7.7      1.118      3.319
REMARK  Name = 42607876
REMARK  5 active torsions:
REMARK  status: ('A' for Active; 'I' for Inactive)
REMARK    1  A    between atoms: O_2  and  C_13
REMARK    2  A    between atoms: O_4  and  C_14
REMARK    3  A    between atoms: C_6  and  C_12
REMARK    4  A    between atoms: C_11  and  C_16
REMARK    5  A    between atoms: C_17  and  C_18
REMARK                            x       y       z     vdW  Elec       q    Type
REMARK                         _______ _______ _______ _____ _____    ______ ____
ROOT
ATOM      1  O   UNL     1     112.285 128.014 135.868  0.00  0.00    +0.000 OA
ATOM      2  O   UNL     1     113.381 125.920 136.776  0.00  0.00    +0.000 OA
ATOM      3  C   UNL     1     113.072 128.065 136.211  0.00  0.00    +0.000 C 
ATOM      4  C   UNL     1     113.446 127.356 136.520  0.00  0.00    +0.000 C 
ATOM      5  C   UNL     1     111.883 127.255 135.840  0.00  0.00    +0.000 A 
ATOM      6  C   UNL     1     112.243 126.575 136.136  0.00  0.00    +0.000 A 
ATOM      7  C   UNL     1     113.029 126.606 136.482  0.00  0.00    +0.000 C 
ATOM      8  C   UNL     1     111.128 127.212 135.510  0.00  0.00    +0.000 A 
ATOM      9  C   UNL     1     111.847 125.851 136.103  0.00  0.00    +0.000 A 
ATOM     10  C   UNL     1     110.733 126.490 135.477  0.00  0.00    +0.000 A 
ATOM     11  C   UNL     1     111.092 125.809 135.774  0.00  0.00    +0.000 A 
ENDROOT
BRANCH   3  12
ATOM     12  C   UNL     1     113.465 128.790 136.242  0.00  0.00    +0.000 A 
ATOM     13  C   UNL     1     113.395 129.268 136.911  0.00  0.00    +0.000 A 
ATOM     14  C   UNL     1     113.929 129.035 135.606  0.00  0.00    +0.000 A 
ATOM     15  C   UNL     1     113.788 129.993 136.942  0.00  0.00    +0.000 A 
ATOM     16  C   UNL     1     114.322 129.759 135.637  0.00  0.00    +0.000 A 
ATOM     17  C   UNL     1     114.252 130.239 136.305  0.00  0.00    +0.000 A 
ENDBRANCH   3  12
BRANCH   9  18
ATOM     18  O   UNL     1     112.207 125.170 136.400  0.00  0.00    +0.000 OA
ATOM     19  C   UNL     1     111.747 124.575 136.738  0.00  0.00    +0.000 C 
ENDBRANCH   9  18
BRANCH  10  20
ATOM     20  O   UNL     1     109.977 126.446 135.148  0.00  0.00    +0.000 OA
ATOM     21  C   UNL     1     109.709 125.739 134.821  0.00  0.00    +0.000 C 
ENDBRANCH  10  20
BRANCH   8  22
ATOM     22  C   UNL     1     110.768 127.893 135.214  0.00  0.00    +0.000 C 
ATOM     23  C   UNL     1     110.191 128.282 135.657  0.00  0.00    +0.000 C 
BRANCH  23  25
ATOM     24  O   UNL     1     109.472 129.643 135.064  0.00  0.00    +0.000 OA
ATOM     25  C   UNL     1     109.832 128.962 135.360  0.00  0.00    +0.000 C 
ATOM     26  C   UNL     1     110.138 128.798 134.612  0.00  0.00    +0.000 C 
ATOM     27  C   UNL     1     109.526 129.127 136.109  0.00  0.00    +0.000 C 
ENDBRANCH  23  25
ENDBRANCH   8  22
TORSDOF 5
ENDMDL
