MODEL 1
REMARK VINA RESULT:     -10.1      0.000      0.000
REMARK  Name = 131833702
REMARK  2 active torsions:
REMARK  status: ('A' for Active; 'I' for Inactive)
REMARK    1  A    between atoms: C_9  and  C_13
REMARK    2  A    between atoms: C_22  and  C_24
REMARK                            x       y       z     vdW  Elec       q    Type
REMARK                         _______ _______ _______ _____ _____    ______ ____
ROOT
ATOM      1  O   UNL     1     104.734 123.463 138.694  0.00  0.00    +0.000 OA
ATOM      2  O   UNL     1     105.019 125.791 140.390  0.00  0.00    +0.000 OA
ATOM      3  O   UNL     1     106.559 123.444 140.923  0.00  0.00    +0.000 OA
ATOM      4  O   UNL     1     104.094 125.841 139.283  0.00  0.00    +0.000 OA
ATOM      5  C   UNL     1     105.789 124.617 140.656  0.00  0.00    +0.000 A 
ATOM      6  C   UNL     1     105.229 125.017 140.201  0.00  0.00    +0.000 A 
ATOM      7  C   UNL     1     105.999 123.842 140.467  0.00  0.00    +0.000 A 
ATOM      8  C   UNL     1     104.880 124.640 139.554  0.00  0.00    +0.000 A 
ATOM      9  C   UNL     1     105.090 123.865 139.364  0.00  0.00    +0.000 A 
ATOM     10  C   UNL     1     105.650 123.467 139.821  0.00  0.00    +0.000 A 
ATOM     11  C   UNL     1     104.298 125.067 139.087  0.00  0.00    +0.000 A 
ATOM     12  C   UNL     1     104.150 123.873 138.215  0.00  0.00    +0.000 A 
ATOM     13  C   UNL     1     103.931 124.681 138.412  0.00  0.00    +0.000 A 
ENDROOT
BRANCH   5  18
ATOM     14  O   UNL     1     105.780 124.954 142.045  0.00  0.00    +0.000 OA
ATOM     15  O   UNL     1     107.202 125.446 140.464  0.00  0.00    +0.000 OA
ATOM     16  O   UNL     1     107.900 126.198 141.756  0.00  0.00    +0.000 OA
ATOM     17  O   UNL     1     107.185 126.121 143.241  0.00  0.00    +0.000 OA
ATOM     18  C   UNL     1     106.138 124.993 141.303  0.00  0.00    +0.000 C 
ATOM     19  C   UNL     1     106.845 125.408 141.207  0.00  0.00    +0.000 C 
ATOM     20  C   UNL     1     107.193 125.784 141.852  0.00  0.00    +0.000 C 
ATOM     21  C   UNL     1     106.129 125.331 142.692  0.00  0.00    +0.000 C 
ATOM     22  C   UNL     1     106.836 125.745 142.595  0.00  0.00    +0.000 C 
ATOM     23  C   UNL     1     105.771 125.292 143.434  0.00  0.00    +0.000 C 
ENDBRANCH   5  18
BRANCH  12  24
ATOM     24  C   UNL     1     103.802 123.495 137.569  0.00  0.00    +0.000 A 
ATOM     25  C   UNL     1     104.271 123.230 136.944  0.00  0.00    +0.000 A 
ATOM     26  C   UNL     1     102.985 123.382 137.549  0.00  0.00    +0.000 A 
ATOM     27  C   UNL     1     103.924 122.852 136.299  0.00  0.00    +0.000 A 
ATOM     28  C   UNL     1     102.637 123.004 136.904  0.00  0.00    +0.000 A 
ATOM     29  C   UNL     1     103.107 122.739 136.279  0.00  0.00    +0.000 A 
ENDBRANCH  12  24
TORSDOF 2
ENDMDL
MODEL 2
REMARK VINA RESULT:     -10.1      4.487      7.440
REMARK  Name = 131833702
REMARK  2 active torsions:
REMARK  status: ('A' for Active; 'I' for Inactive)
REMARK    1  A    between atoms: C_9  and  C_13
REMARK    2  A    between atoms: C_22  and  C_24
REMARK                            x       y       z     vdW  Elec       q    Type
REMARK                         _______ _______ _______ _____ _____    ______ ____
ROOT
ATOM      1  O   UNL     1     106.496 125.281 146.582  0.00  0.00    +0.000 OA
ATOM      2  O   UNL     1     106.891 127.597 144.890  0.00  0.00    +0.000 OA
ATOM      3  O   UNL     1     105.443 125.340 143.901  0.00  0.00    +0.000 OA
ATOM      4  O   UNL     1     107.434 127.606 146.227  0.00  0.00    +0.000 OA
ATOM      5  C   UNL     1     106.167 126.468 144.396  0.00  0.00    +0.000 A 
ATOM      6  C   UNL     1     106.584 126.839 145.003  0.00  0.00    +0.000 A 
ATOM      7  C   UNL     1     105.860 125.710 144.509  0.00  0.00    +0.000 A 
ATOM      8  C   UNL     1     106.695 126.452 145.724  0.00  0.00    +0.000 A 
ATOM      9  C   UNL     1     106.388 125.695 145.837  0.00  0.00    +0.000 A 
ATOM     10  C   UNL     1     105.971 125.324 145.229  0.00  0.00    +0.000 A 
ATOM     11  C   UNL     1     107.131 126.850 146.349  0.00  0.00    +0.000 A 
ATOM     12  C   UNL     1     106.930 125.662 147.219  0.00  0.00    +0.000 A 
ATOM     13  C   UNL     1     107.250 126.452 147.102  0.00  0.00    +0.000 A 
ENDROOT
BRANCH   5  18
ATOM     14  O   UNL     1     105.421 127.372 143.578  0.00  0.00    +0.000 OA
ATOM     15  O   UNL     1     107.217 126.208 143.150  0.00  0.00    +0.000 OA
ATOM     16  O   UNL     1     106.997 126.981 141.710  0.00  0.00    +0.000 OA
ATOM     17  O   UNL     1     105.726 128.015 141.515  0.00  0.00    +0.000 OA
ATOM     18  C   UNL     1     106.057 126.855 143.675  0.00  0.00    +0.000 C 
ATOM     19  C   UNL     1     106.582 126.725 143.052  0.00  0.00    +0.000 C 
ATOM     20  C   UNL     1     106.472 127.111 142.333  0.00  0.00    +0.000 C 
ATOM     21  C   UNL     1     105.311 127.759 142.857  0.00  0.00    +0.000 C 
ATOM     22  C   UNL     1     105.836 127.629 142.235  0.00  0.00    +0.000 C 
ATOM     23  C   UNL     1     104.676 128.276 142.761  0.00  0.00    +0.000 C 
ENDBRANCH   5  18
BRANCH  12  24
ATOM     24  C   UNL     1     107.039 125.273 147.939  0.00  0.00    +0.000 A 
ATOM     25  C   UNL     1     107.771 124.940 148.121  0.00  0.00    +0.000 A 
ATOM     26  C   UNL     1     106.415 125.218 148.476  0.00  0.00    +0.000 A 
ATOM     27  C   UNL     1     107.880 124.551 148.840  0.00  0.00    +0.000 A 
ATOM     28  C   UNL     1     106.523 124.830 149.195  0.00  0.00    +0.000 A 
ATOM     29  C   UNL     1     107.256 124.496 149.377  0.00  0.00    +0.000 A 
ENDBRANCH  12  24
TORSDOF 2
ENDMDL
MODEL 3
REMARK VINA RESULT:     -10.0      7.022      8.101
REMARK  Name = 131833702
REMARK  2 active torsions:
REMARK  status: ('A' for Active; 'I' for Inactive)
REMARK    1  A    between atoms: C_9  and  C_13
REMARK    2  A    between atoms: C_22  and  C_24
REMARK                            x       y       z     vdW  Elec       q    Type
REMARK                         _______ _______ _______ _____ _____    ______ ____
ROOT
ATOM      1  O   UNL     1     111.497 126.093 136.845  0.00  0.00    +0.000 OA
ATOM      2  O   UNL     1     109.849 127.426 134.874  0.00  0.00    +0.000 OA
ATOM      3  O   UNL     1     110.554 128.778 137.292  0.00  0.00    +0.000 OA
ATOM      4  O   UNL     1     110.302 126.081 134.613  0.00  0.00    +0.000 OA
ATOM      5  C   UNL     1     110.202 128.102 136.083  0.00  0.00    +0.000 A 
ATOM      6  C   UNL     1     110.238 127.433 135.602  0.00  0.00    +0.000 A 
ATOM      7  C   UNL     1     110.591 128.109 136.811  0.00  0.00    +0.000 A 
ATOM      8  C   UNL     1     110.663 126.770 135.849  0.00  0.00    +0.000 A 
ATOM      9  C   UNL     1     111.052 126.776 136.577  0.00  0.00    +0.000 A 
ATOM     10  C   UNL     1     111.015 127.446 137.058  0.00  0.00    +0.000 A 
ATOM     11  C   UNL     1     110.693 126.079 135.339  0.00  0.00    +0.000 A 
ATOM     12  C   UNL     1     111.539 125.392 136.349  0.00  0.00    +0.000 A 
ATOM     13  C   UNL     1     111.134 125.385 135.590  0.00  0.00    +0.000 A 
ENDROOT
BRANCH   5  18
ATOM     14  O   UNL     1     110.135 129.325 135.348  0.00  0.00    +0.000 OA
ATOM     15  O   UNL     1     108.637 128.305 136.565  0.00  0.00    +0.000 OA
ATOM     16  O   UNL     1     107.787 129.631 136.071  0.00  0.00    +0.000 OA
ATOM     17  O   UNL     1     108.502 130.753 135.095  0.00  0.00    +0.000 OA
ATOM     18  C   UNL     1     109.777 128.765 135.836  0.00  0.00    +0.000 C 
ATOM     19  C   UNL     1     108.994 128.867 136.077  0.00  0.00    +0.000 C 
ATOM     20  C   UNL     1     108.570 129.529 135.830  0.00  0.00    +0.000 C 
ATOM     21  C   UNL     1     109.709 129.989 135.101  0.00  0.00    +0.000 C 
ATOM     22  C   UNL     1     108.927 130.090 135.342  0.00  0.00    +0.000 C 
ATOM     23  C   UNL     1     110.067 130.549 134.613  0.00  0.00    +0.000 C 
ENDBRANCH   5  18
BRANCH  12  24
ATOM     24  C   UNL     1     111.965 124.731 136.598  0.00  0.00    +0.000 A 
ATOM     25  C   UNL     1     111.578 124.114 136.986  0.00  0.00    +0.000 A 
ATOM     26  C   UNL     1     112.777 124.687 136.459  0.00  0.00    +0.000 A 
ATOM     27  C   UNL     1     112.004 123.453 137.236  0.00  0.00    +0.000 A 
ATOM     28  C   UNL     1     113.202 124.026 136.708  0.00  0.00    +0.000 A 
ATOM     29  C   UNL     1     112.816 123.409 137.096  0.00  0.00    +0.000 A 
ENDBRANCH  12  24
TORSDOF 2
ENDMDL
MODEL 4
REMARK VINA RESULT:     -10.0      7.798      8.873
REMARK  Name = 131833702
REMARK  2 active torsions:
REMARK  status: ('A' for Active; 'I' for Inactive)
REMARK    1  A    between atoms: C_9  and  C_13
REMARK    2  A    between atoms: C_22  and  C_24
REMARK                            x       y       z     vdW  Elec       q    Type
REMARK                         _______ _______ _______ _____ _____    ______ ____
ROOT
ATOM      1  O   UNL     1     113.398 126.059 138.757  0.00  0.00    +0.000 OA
ATOM      2  O   UNL     1     112.972 128.918 138.911  0.00  0.00    +0.000 OA
ATOM      3  O   UNL     1     114.259 127.551 141.066  0.00  0.00    +0.000 OA
ATOM      4  O   UNL     1     112.526 128.206 137.737  0.00  0.00    +0.000 OA
ATOM      5  C   UNL     1     113.616 128.233 139.988  0.00  0.00    +0.000 A 
ATOM      6  C   UNL     1     113.257 128.219 139.246  0.00  0.00    +0.000 A 
ATOM      7  C   UNL     1     113.901 127.535 140.323  0.00  0.00    +0.000 A 
ATOM      8  C   UNL     1     113.184 127.506 138.837  0.00  0.00    +0.000 A 
ATOM      9  C   UNL     1     113.469 126.807 139.171  0.00  0.00    +0.000 A 
ATOM     10  C   UNL     1     113.827 126.823 139.915  0.00  0.00    +0.000 A 
ATOM     11  C   UNL     1     112.808 127.504 138.064  0.00  0.00    +0.000 A 
ATOM     12  C   UNL     1     113.025 126.037 137.982  0.00  0.00    +0.000 A 
ATOM     13  C   UNL     1     112.728 126.764 137.633  0.00  0.00    +0.000 A 
ENDROOT
BRANCH   5  18
ATOM     14  O   UNL     1     114.342 129.434 140.262  0.00  0.00    +0.000 OA
ATOM     15  O   UNL     1     112.459 128.686 141.074  0.00  0.00    +0.000 OA
ATOM     16  O   UNL     1     112.606 130.112 141.891  0.00  0.00    +0.000 OA
ATOM     17  O   UNL     1     113.910 131.086 141.621  0.00  0.00    +0.000 OA
ATOM     18  C   UNL     1     113.689 128.947 140.397  0.00  0.00    +0.000 C 
ATOM     19  C   UNL     1     113.111 129.173 140.940  0.00  0.00    +0.000 C 
ATOM     20  C   UNL     1     113.185 129.886 141.348  0.00  0.00    +0.000 C 
ATOM     21  C   UNL     1     114.415 130.147 140.670  0.00  0.00    +0.000 C 
ATOM     22  C   UNL     1     113.837 130.374 141.213  0.00  0.00    +0.000 C 
ATOM     23  C   UNL     1     115.067 130.634 140.535  0.00  0.00    +0.000 C 
ENDBRANCH   5  18
BRANCH  12  24
ATOM     24  C   UNL     1     112.953 125.322 137.576  0.00  0.00    +0.000 A 
ATOM     25  C   UNL     1     113.613 124.985 137.213  0.00  0.00    +0.000 A 
ATOM     26  C   UNL     1     112.221 124.945 137.532  0.00  0.00    +0.000 A 
ATOM     27  C   UNL     1     113.541 124.271 136.807  0.00  0.00    +0.000 A 
ATOM     28  C   UNL     1     112.148 124.231 137.126  0.00  0.00    +0.000 A 
ATOM     29  C   UNL     1     112.808 123.894 136.764  0.00  0.00    +0.000 A 
ENDBRANCH  12  24
TORSDOF 2
ENDMDL
MODEL 5
REMARK VINA RESULT:      -9.9      7.363      8.824
REMARK  Name = 131833702
REMARK  2 active torsions:
REMARK  status: ('A' for Active; 'I' for Inactive)
REMARK    1  A    between atoms: C_9  and  C_13
REMARK    2  A    between atoms: C_22  and  C_24
REMARK                            x       y       z     vdW  Elec       q    Type
REMARK                         _______ _______ _______ _____ _____    ______ ____
ROOT
ATOM      1  O   UNL     1     112.280 126.335 136.079  0.00  0.00    +0.000 OA
ATOM      2  O   UNL     1     111.077 128.847 136.867  0.00  0.00    +0.000 OA
ATOM      3  O   UNL     1     110.017 127.395 134.645  0.00  0.00    +0.000 OA
ATOM      4  O   UNL     1     112.209 128.350 137.611  0.00  0.00    +0.000 OA
ATOM      5  C   UNL     1     110.547 128.120 135.756  0.00  0.00    +0.000 A 
ATOM      6  C   UNL     1     111.098 128.192 136.366  0.00  0.00    +0.000 A 
ATOM      7  C   UNL     1     110.568 127.465 135.256  0.00  0.00    +0.000 A 
ATOM      8  C   UNL     1     111.670 127.606 136.476  0.00  0.00    +0.000 A 
ATOM      9  C   UNL     1     111.690 126.951 135.976  0.00  0.00    +0.000 A 
ATOM     10  C   UNL     1     111.139 126.880 135.365  0.00  0.00    +0.000 A 
ATOM     11  C   UNL     1     112.237 127.692 137.116  0.00  0.00    +0.000 A 
ATOM     12  C   UNL     1     112.857 126.403 136.714  0.00  0.00    +0.000 A 
ATOM     13  C   UNL     1     112.835 127.086 137.235  0.00  0.00    +0.000 A 
ENDROOT
BRANCH   5  18
ATOM     14  O   UNL     1     110.147 129.367 135.184  0.00  0.00    +0.000 OA
ATOM     15  O   UNL     1     109.064 127.967 136.461  0.00  0.00    +0.000 OA
ATOM     16  O   UNL     1     107.921 129.137 136.242  0.00  0.00    +0.000 OA
ATOM     17  O   UNL     1     108.262 130.460 135.317  0.00  0.00    +0.000 OA
ATOM     18  C   UNL     1     109.976 128.706 135.646  0.00  0.00    +0.000 C 
ATOM     19  C   UNL     1     109.234 128.629 135.999  0.00  0.00    +0.000 C 
ATOM     20  C   UNL     1     108.663 129.214 135.889  0.00  0.00    +0.000 C 
ATOM     21  C   UNL     1     109.575 129.952 135.074  0.00  0.00    +0.000 C 
ATOM     22  C   UNL     1     108.833 129.876 135.427  0.00  0.00    +0.000 C 
ATOM     23  C   UNL     1     109.746 130.614 134.612  0.00  0.00    +0.000 C 
ENDBRANCH   5  18
BRANCH  12  24
ATOM     24  C   UNL     1     113.427 125.817 136.821  0.00  0.00    +0.000 A 
ATOM     25  C   UNL     1     114.179 125.907 136.493  0.00  0.00    +0.000 A 
ATOM     26  C   UNL     1     113.246 125.140 137.256  0.00  0.00    +0.000 A 
ATOM     27  C   UNL     1     114.750 125.321 136.601  0.00  0.00    +0.000 A 
ATOM     28  C   UNL     1     113.815 124.554 137.364  0.00  0.00    +0.000 A 
ATOM     29  C   UNL     1     114.567 124.644 137.036  0.00  0.00    +0.000 A 
ENDBRANCH  12  24
TORSDOF 2
ENDMDL
MODEL 6
REMARK VINA RESULT:      -9.6      4.247      5.715
REMARK  Name = 131833702
REMARK  2 active torsions:
REMARK  status: ('A' for Active; 'I' for Inactive)
REMARK    1  A    between atoms: C_9  and  C_13
REMARK    2  A    between atoms: C_22  and  C_24
REMARK                            x       y       z     vdW  Elec       q    Type
REMARK                         _______ _______ _______ _____ _____    ______ ____
ROOT
ATOM      1  O   UNL     1     103.681 129.930 142.318  0.00  0.00    +0.000 OA
ATOM      2  O   UNL     1     104.670 127.519 141.058  0.00  0.00    +0.000 OA
ATOM      3  O   UNL     1     105.695 128.319 143.603  0.00  0.00    +0.000 OA
ATOM      4  O   UNL     1     103.661 128.298 140.382  0.00  0.00    +0.000 OA
ATOM      5  C   UNL     1     105.182 127.919 142.330  0.00  0.00    +0.000 A 
ATOM      6  C   UNL     1     104.679 128.049 141.690  0.00  0.00    +0.000 A 
ATOM      7  C   UNL     1     105.191 128.449 142.963  0.00  0.00    +0.000 A 
ATOM      8  C   UNL     1     104.183 128.709 141.682  0.00  0.00    +0.000 A 
ATOM      9  C   UNL     1     104.192 129.239 142.314  0.00  0.00    +0.000 A 
ATOM     10  C   UNL     1     104.696 129.108 142.955  0.00  0.00    +0.000 A 
ATOM     11  C   UNL     1     103.663 128.833 141.009  0.00  0.00    +0.000 A 
ATOM     12  C   UNL     1     103.154 130.071 141.654  0.00  0.00    +0.000 A 
ATOM     13  C   UNL     1     103.145 129.518 140.995  0.00  0.00    +0.000 A 
ENDROOT
BRANCH   5  18
ATOM     14  O   UNL     1     105.413 126.549 142.665  0.00  0.00    +0.000 OA
ATOM     15  O   UNL     1     106.701 128.020 141.693  0.00  0.00    +0.000 OA
ATOM     16  O   UNL     1     107.691 126.700 141.709  0.00  0.00    +0.000 OA
ATOM     17  O   UNL     1     107.162 125.280 142.362  0.00  0.00    +0.000 OA
ATOM     18  C   UNL     1     105.678 127.259 142.338  0.00  0.00    +0.000 C 
ATOM     19  C   UNL     1     106.437 127.309 142.020  0.00  0.00    +0.000 C 
ATOM     20  C   UNL     1     106.932 126.650 142.028  0.00  0.00    +0.000 C 
ATOM     21  C   UNL     1     105.909 125.889 142.673  0.00  0.00    +0.000 C 
ATOM     22  C   UNL     1     106.668 125.939 142.354  0.00  0.00    +0.000 C 
ATOM     23  C   UNL     1     105.644 125.179 142.999  0.00  0.00    +0.000 C 
ENDBRANCH   5  18
BRANCH  12  24
ATOM     24  C   UNL     1     102.660 130.731 141.648  0.00  0.00    +0.000 A 
ATOM     25  C   UNL     1     101.881 130.666 141.912  0.00  0.00    +0.000 A 
ATOM     26  C   UNL     1     102.944 131.457 141.379  0.00  0.00    +0.000 A 
ATOM     27  C   UNL     1     101.386 131.326 141.907  0.00  0.00    +0.000 A 
ATOM     28  C   UNL     1     102.451 132.117 141.373  0.00  0.00    +0.000 A 
ATOM     29  C   UNL     1     101.672 132.052 141.637  0.00  0.00    +0.000 A 
ENDBRANCH  12  24
TORSDOF 2
ENDMDL
MODEL 7
REMARK VINA RESULT:      -9.4      7.921      9.332
REMARK  Name = 131833702
REMARK  2 active torsions:
REMARK  status: ('A' for Active; 'I' for Inactive)
REMARK    1  A    between atoms: C_9  and  C_13
REMARK    2  A    between atoms: C_22  and  C_24
REMARK                            x       y       z     vdW  Elec       q    Type
REMARK                         _______ _______ _______ _____ _____    ______ ____
ROOT
ATOM      1  O   UNL     1     113.313 127.213 136.567  0.00  0.00    +0.000 OA
ATOM      2  O   UNL     1     111.143 128.796 137.646  0.00  0.00    +0.000 OA
ATOM      3  O   UNL     1     112.813 129.879 135.596  0.00  0.00    +0.000 OA
ATOM      4  O   UNL     1     111.361 127.465 138.160  0.00  0.00    +0.000 OA
ATOM      5  C   UNL     1     111.978 129.337 136.621  0.00  0.00    +0.000 A 
ATOM      6  C   UNL     1     111.779 128.717 137.127  0.00  0.00    +0.000 A 
ATOM      7  C   UNL     1     112.614 129.258 136.101  0.00  0.00    +0.000 A 
ATOM      8  C   UNL     1     112.215 128.016 137.112  0.00  0.00    +0.000 A 
ATOM      9  C   UNL     1     112.851 127.937 136.592  0.00  0.00    +0.000 A 
ATOM     10  C   UNL     1     113.050 128.558 136.087  0.00  0.00    +0.000 A 
ATOM     11  C   UNL     1     111.997 127.377 137.644  0.00  0.00    +0.000 A 
ATOM     12  C   UNL     1     113.110 126.563 137.091  0.00  0.00    +0.000 A 
ATOM     13  C   UNL     1     112.448 126.645 137.633  0.00  0.00    +0.000 A 
ENDROOT
BRANCH   5  18
ATOM     14  O   UNL     1     110.865 130.111 136.169  0.00  0.00    +0.000 OA
ATOM     15  O   UNL     1     112.458 130.589 137.583  0.00  0.00    +0.000 OA
ATOM     16  O   UNL     1     111.585 131.989 137.612  0.00  0.00    +0.000 OA
ATOM     17  O   UNL     1     110.232 132.137 136.679  0.00  0.00    +0.000 OA
ATOM     18  C   UNL     1     111.542 130.038 136.636  0.00  0.00    +0.000 C 
ATOM     19  C   UNL     1     111.782 130.664 137.116  0.00  0.00    +0.000 C 
ATOM     20  C   UNL     1     111.345 131.363 137.131  0.00  0.00    +0.000 C 
ATOM     21  C   UNL     1     110.428 130.811 136.184  0.00  0.00    +0.000 C 
ATOM     22  C   UNL     1     110.668 131.437 136.665  0.00  0.00    +0.000 C 
ATOM     23  C   UNL     1     109.752 130.885 135.717  0.00  0.00    +0.000 C 
ENDBRANCH   5  18
BRANCH  12  24
ATOM     24  C   UNL     1     113.549 125.864 137.075  0.00  0.00    +0.000 A 
ATOM     25  C   UNL     1     114.147 125.739 137.629  0.00  0.00    +0.000 A 
ATOM     26  C   UNL     1     113.388 125.290 136.504  0.00  0.00    +0.000 A 
ATOM     27  C   UNL     1     114.585 125.040 137.612  0.00  0.00    +0.000 A 
ATOM     28  C   UNL     1     113.825 124.592 136.487  0.00  0.00    +0.000 A 
ATOM     29  C   UNL     1     114.424 124.466 137.041  0.00  0.00    +0.000 A 
ENDBRANCH  12  24
TORSDOF 2
ENDMDL
