MODEL 1
REMARK VINA RESULT:      -8.9      0.000      0.000
REMARK  Name = 12116708
REMARK  2 active torsions:
REMARK  status: ('A' for Active; 'I' for Inactive)
REMARK    1  A    between atoms: O_4  and  C_14
REMARK    2  A    between atoms: C_6  and  C_11
REMARK                            x       y       z     vdW  Elec       q    Type
REMARK                         _______ _______ _______ _____ _____    ______ ____
ROOT
ATOM      1  O   UNL     1     105.018 124.244 147.058  0.00  0.00    +0.000 OA
ATOM      2  O   UNL     1     106.174 124.205 147.212  0.00  0.00    +0.000 OA
ATOM      3  O   UNL     1     104.209 125.911 148.699  0.00  0.00    +0.000 OA
ATOM      4  O   UNL     1     102.848 125.719 148.264  0.00  0.00    +0.000 OA
ATOM      5  C   UNL     1     105.554 124.625 147.556  0.00  0.00    +0.000 C 
ATOM      6  C   UNL     1     105.285 125.181 148.103  0.00  0.00    +0.000 C 
ATOM      7  C   UNL     1     104.214 124.417 147.107  0.00  0.00    +0.000 A 
ATOM      8  C   UNL     1     103.944 124.973 147.654  0.00  0.00    +0.000 A 
ATOM      9  C   UNL     1     104.479 125.355 148.152  0.00  0.00    +0.000 C 
ATOM     10  C   UNL     1     103.666 124.012 146.583  0.00  0.00    +0.000 A 
ATOM     11  C   UNL     1     103.108 125.162 147.714  0.00  0.00    +0.000 A 
ATOM     12  C   UNL     1     102.826 124.189 146.629  0.00  0.00    +0.000 A 
ATOM     13  C   UNL     1     102.546 124.768 147.198  0.00  0.00    +0.000 A 
ATOM     14  C   UNL     1     103.944 123.458 146.039  0.00  0.00    +0.000 C 
ENDROOT
BRANCH   5  15
ATOM     15  C   UNL     1     106.328 124.746 147.815  0.00  0.00    +0.000 A 
ATOM     16  C   UNL     1     106.592 124.384 148.508  0.00  0.00    +0.000 A 
ATOM     17  C   UNL     1     106.838 125.228 147.381  0.00  0.00    +0.000 A 
ATOM     18  C   UNL     1     107.365 124.505 148.767  0.00  0.00    +0.000 A 
ATOM     19  C   UNL     1     107.612 125.348 147.640  0.00  0.00    +0.000 A 
ATOM     20  C   UNL     1     107.876 124.986 148.334  0.00  0.00    +0.000 A 
ENDBRANCH   5  15
BRANCH  12  21
ATOM     21  O   UNL     1     102.293 123.806 146.130  0.00  0.00    +0.000 OA
ATOM     22  C   UNL     1     101.482 123.871 146.263  0.00  0.00    +0.000 C 
ENDBRANCH  12  21
TORSDOF 2
ENDMDL
MODEL 2
REMARK VINA RESULT:      -8.6     13.313     13.788
REMARK  Name = 12116708
REMARK  2 active torsions:
REMARK  status: ('A' for Active; 'I' for Inactive)
REMARK    1  A    between atoms: O_4  and  C_14
REMARK    2  A    between atoms: C_6  and  C_11
REMARK                            x       y       z     vdW  Elec       q    Type
REMARK                         _______ _______ _______ _____ _____    ______ ____
ROOT
ATOM      1  O   UNL     1     112.522 126.784 136.160  0.00  0.00    +0.000 OA
ATOM      2  O   UNL     1     113.543 126.516 136.656  0.00  0.00    +0.000 OA
ATOM      3  O   UNL     1     111.307 124.634 135.992  0.00  0.00    +0.000 OA
ATOM      4  O   UNL     1     110.176 125.288 135.381  0.00  0.00    +0.000 OA
ATOM      5  C   UNL     1     112.873 126.089 136.434  0.00  0.00    +0.000 C 
ATOM      6  C   UNL     1     112.468 125.373 136.378  0.00  0.00    +0.000 C 
ATOM      7  C   UNL     1     111.766 126.762 135.830  0.00  0.00    +0.000 A 
ATOM      8  C   UNL     1     111.361 126.045 135.774  0.00  0.00    +0.000 A 
ATOM      9  C   UNL     1     111.712 125.350 136.048  0.00  0.00    +0.000 C 
ATOM     10  C   UNL     1     111.411 127.492 135.548  0.00  0.00    +0.000 A 
ATOM     11  C   UNL     1     110.573 126.009 135.433  0.00  0.00    +0.000 A 
ATOM     12  C   UNL     1     110.625 127.475 135.204  0.00  0.00    +0.000 A 
ATOM     13  C   UNL     1     110.203 126.729 135.146  0.00  0.00    +0.000 A 
ATOM     14  C   UNL     1     111.824 128.204 135.608  0.00  0.00    +0.000 C 
ENDROOT
BRANCH   5  15
ATOM     15  C   UNL     1     113.512 125.701 136.783  0.00  0.00    +0.000 A 
ATOM     16  C   UNL     1     113.573 125.663 137.604  0.00  0.00    +0.000 A 
ATOM     17  C   UNL     1     114.090 125.351 136.309  0.00  0.00    +0.000 A 
ATOM     18  C   UNL     1     114.212 125.275 137.953  0.00  0.00    +0.000 A 
ATOM     19  C   UNL     1     114.729 124.963 136.657  0.00  0.00    +0.000 A 
ATOM     20  C   UNL     1     114.790 124.925 137.480  0.00  0.00    +0.000 A 
ENDBRANCH   5  15
BRANCH  12  21
ATOM     21  O   UNL     1     110.276 128.171 134.930  0.00  0.00    +0.000 OA
ATOM     22  C   UNL     1     109.474 128.310 135.061  0.00  0.00    +0.000 C 
ENDBRANCH  12  21
TORSDOF 2
ENDMDL
MODEL 3
REMARK VINA RESULT:      -8.6      7.992      9.015
REMARK  Name = 12116708
REMARK  2 active torsions:
REMARK  status: ('A' for Active; 'I' for Inactive)
REMARK    1  A    between atoms: O_4  and  C_14
REMARK    2  A    between atoms: C_6  and  C_11
REMARK                            x       y       z     vdW  Elec       q    Type
REMARK                         _______ _______ _______ _____ _____    ______ ____
ROOT
ATOM      1  O   UNL     1     103.018 130.636 142.465  0.00  0.00    +0.000 OA
ATOM      2  O   UNL     1     102.429 131.616 142.694  0.00  0.00    +0.000 OA
ATOM      3  O   UNL     1     102.306 129.977 140.188  0.00  0.00    +0.000 OA
ATOM      4  O   UNL     1     103.163 128.818 140.225  0.00  0.00    +0.000 OA
ATOM      5  C   UNL     1     102.470 131.097 142.055  0.00  0.00    +0.000 C 
ATOM      6  C   UNL     1     102.233 130.878 141.296  0.00  0.00    +0.000 C 
ATOM      7  C   UNL     1     103.328 129.956 142.117  0.00  0.00    +0.000 A 
ATOM      8  C   UNL     1     103.091 129.736 141.358  0.00  0.00    +0.000 A 
ATOM      9  C   UNL     1     102.543 130.197 140.947  0.00  0.00    +0.000 C 
ATOM     10  C   UNL     1     103.898 129.483 142.555  0.00  0.00    +0.000 A 
ATOM     11  C   UNL     1     103.406 129.029 140.984  0.00  0.00    +0.000 A 
ATOM     12  C   UNL     1     104.224 128.774 142.197  0.00  0.00    +0.000 A 
ATOM     13  C   UNL     1     103.977 128.545 141.407  0.00  0.00    +0.000 A 
ATOM     14  C   UNL     1     104.129 129.711 143.313  0.00  0.00    +0.000 C 
ENDROOT
BRANCH   5  15
ATOM     15  C   UNL     1     101.975 131.756 142.020  0.00  0.00    +0.000 A 
ATOM     16  C   UNL     1     102.250 132.460 141.690  0.00  0.00    +0.000 A 
ATOM     17  C   UNL     1     101.206 131.710 142.314  0.00  0.00    +0.000 A 
ATOM     18  C   UNL     1     101.755 133.119 141.654  0.00  0.00    +0.000 A 
ATOM     19  C   UNL     1     100.711 132.369 142.278  0.00  0.00    +0.000 A 
ATOM     20  C   UNL     1     100.985 133.074 141.948  0.00  0.00    +0.000 A 
ENDBRANCH   5  15
BRANCH  12  21
ATOM     21  O   UNL     1     104.771 128.315 142.610  0.00  0.00    +0.000 OA
ATOM     22  C   UNL     1     105.235 127.764 142.208  0.00  0.00    +0.000 C 
ENDBRANCH  12  21
TORSDOF 2
ENDMDL
MODEL 4
REMARK VINA RESULT:      -8.6      2.451      3.135
REMARK  Name = 12116708
REMARK  2 active torsions:
REMARK  status: ('A' for Active; 'I' for Inactive)
REMARK    1  A    between atoms: O_4  and  C_14
REMARK    2  A    between atoms: C_6  and  C_11
REMARK                            x       y       z     vdW  Elec       q    Type
REMARK                         _______ _______ _______ _____ _____    ______ ____
ROOT
ATOM      1  O   UNL     1     106.357 124.939 146.590  0.00  0.00    +0.000 OA
ATOM      2  O   UNL     1     106.532 124.416 147.618  0.00  0.00    +0.000 OA
ATOM      3  O   UNL     1     107.434 127.157 146.807  0.00  0.00    +0.000 OA
ATOM      4  O   UNL     1     107.055 127.504 145.460  0.00  0.00    +0.000 OA
ATOM      5  C   UNL     1     106.731 125.148 147.295  0.00  0.00    +0.000 C 
ATOM      6  C   UNL     1     107.090 125.887 147.368  0.00  0.00    +0.000 C 
ATOM      7  C   UNL     1     106.342 125.468 145.958  0.00  0.00    +0.000 A 
ATOM      8  C   UNL     1     106.701 126.207 146.030  0.00  0.00    +0.000 A 
ATOM      9  C   UNL     1     107.075 126.417 146.735  0.00  0.00    +0.000 C 
ATOM     10  C   UNL     1     105.950 125.238 145.228  0.00  0.00    +0.000 A 
ATOM     11  C   UNL     1     106.693 126.768 145.378  0.00  0.00    +0.000 A 
ATOM     12  C   UNL     1     105.931 125.785 144.567  0.00  0.00    +0.000 A 
ATOM     13  C   UNL     1     106.305 126.555 144.642  0.00  0.00    +0.000 A 
ATOM     14  C   UNL     1     105.593 124.497 145.165  0.00  0.00    +0.000 C 
ENDROOT
BRANCH   5  15
ATOM     15  C   UNL     1     106.955 124.963 148.068  0.00  0.00    +0.000 A 
ATOM     16  C   UNL     1     106.415 125.048 148.685  0.00  0.00    +0.000 A 
ATOM     17  C   UNL     1     107.720 124.694 148.221  0.00  0.00    +0.000 A 
ATOM     18  C   UNL     1     106.639 124.863 149.457  0.00  0.00    +0.000 A 
ATOM     19  C   UNL     1     107.944 124.510 148.993  0.00  0.00    +0.000 A 
ATOM     20  C   UNL     1     107.403 124.594 149.612  0.00  0.00    +0.000 A 
ENDBRANCH   5  15
BRANCH  12  21
ATOM     21  O   UNL     1     105.557 125.573 143.863  0.00  0.00    +0.000 OA
ATOM     22  C   UNL     1     105.853 125.839 143.141  0.00  0.00    +0.000 C 
ENDBRANCH  12  21
TORSDOF 2
ENDMDL
MODEL 5
REMARK VINA RESULT:      -8.5      1.076      4.101
REMARK  Name = 12116708
REMARK  2 active torsions:
REMARK  status: ('A' for Active; 'I' for Inactive)
REMARK    1  A    between atoms: O_4  and  C_14
REMARK    2  A    between atoms: C_6  and  C_11
REMARK                            x       y       z     vdW  Elec       q    Type
REMARK                         _______ _______ _______ _____ _____    ______ ____
ROOT
ATOM      1  O   UNL     1     104.642 124.326 147.479  0.00  0.00    +0.000 OA
ATOM      2  O   UNL     1     103.535 123.962 147.535  0.00  0.00    +0.000 OA
ATOM      3  O   UNL     1     105.002 124.918 145.103  0.00  0.00    +0.000 OA
ATOM      4  O   UNL     1     106.366 125.298 145.375  0.00  0.00    +0.000 OA
ATOM      5  C   UNL     1     104.027 124.240 146.935  0.00  0.00    +0.000 C 
ATOM      6  C   UNL     1     104.147 124.437 146.143  0.00  0.00    +0.000 C 
ATOM      7  C   UNL     1     105.375 124.610 147.232  0.00  0.00    +0.000 A 
ATOM      8  C   UNL     1     105.495 124.807 146.440  0.00  0.00    +0.000 A 
ATOM      9  C   UNL     1     104.882 124.721 145.895  0.00  0.00    +0.000 C 
ATOM     10  C   UNL     1     106.007 124.695 147.808  0.00  0.00    +0.000 A 
ATOM     11  C   UNL     1     106.256 125.103 146.169  0.00  0.00    +0.000 A 
ATOM     12  C   UNL     1     106.774 124.990 147.556  0.00  0.00    +0.000 A 
ATOM     13  C   UNL     1     106.899 125.196 146.731  0.00  0.00    +0.000 A 
ATOM     14  C   UNL     1     105.878 124.496 148.598  0.00  0.00    +0.000 C 
ENDROOT
BRANCH   5  15
ATOM     15  C   UNL     1     103.249 124.026 146.764  0.00  0.00    +0.000 A 
ATOM     16  C   UNL     1     103.086 123.283 146.445  0.00  0.00    +0.000 A 
ATOM     17  C   UNL     1     102.634 124.556 146.913  0.00  0.00    +0.000 A 
ATOM     18  C   UNL     1     102.308 123.070 146.274  0.00  0.00    +0.000 A 
ATOM     19  C   UNL     1     101.856 124.342 146.742  0.00  0.00    +0.000 A 
ATOM     20  C   UNL     1     101.692 123.598 146.422  0.00  0.00    +0.000 A 
ENDBRANCH   5  15
BRANCH  12  21
ATOM     21  O   UNL     1     107.386 125.076 148.102  0.00  0.00    +0.000 OA
ATOM     22  C   UNL     1     108.156 125.212 147.841  0.00  0.00    +0.000 C 
ENDBRANCH  12  21
TORSDOF 2
ENDMDL
MODEL 6
REMARK VINA RESULT:      -8.5      6.945      8.752
REMARK  Name = 12116708
REMARK  2 active torsions:
REMARK  status: ('A' for Active; 'I' for Inactive)
REMARK    1  A    between atoms: O_4  and  C_14
REMARK    2  A    between atoms: C_6  and  C_11
REMARK                            x       y       z     vdW  Elec       q    Type
REMARK                         _______ _______ _______ _____ _____    ______ ____
ROOT
ATOM      1  O   UNL     1     104.962 123.497 139.577  0.00  0.00    +0.000 OA
ATOM      2  O   UNL     1     104.156 123.038 138.869  0.00  0.00    +0.000 OA
ATOM      3  O   UNL     1     104.476 125.924 139.611  0.00  0.00    +0.000 OA
ATOM      4  O   UNL     1     105.577 126.160 140.512  0.00  0.00    +0.000 OA
ATOM      5  C   UNL     1     104.332 123.798 139.136  0.00  0.00    +0.000 C 
ATOM      6  C   UNL     1     104.170 124.606 139.148  0.00  0.00    +0.000 C 
ATOM      7  C   UNL     1     105.429 124.005 140.029  0.00  0.00    +0.000 A 
ATOM      8  C   UNL     1     105.267 124.813 140.040  0.00  0.00    +0.000 A 
ATOM      9  C   UNL     1     104.638 125.115 139.600  0.00  0.00    +0.000 C 
ATOM     10  C   UNL     1     106.082 123.679 140.483  0.00  0.00    +0.000 A 
ATOM     11  C   UNL     1     105.746 125.353 140.507  0.00  0.00    +0.000 A 
ATOM     12  C   UNL     1     106.572 124.203 140.956  0.00  0.00    +0.000 A 
ATOM     13  C   UNL     1     106.403 125.045 140.968  0.00  0.00    +0.000 A 
ATOM     14  C   UNL     1     106.236 122.869 140.466  0.00  0.00    +0.000 C 
ENDROOT
BRANCH   5  15
ATOM     15  C   UNL     1     103.699 123.678 138.621  0.00  0.00    +0.000 A 
ATOM     16  C   UNL     1     102.929 123.647 138.915  0.00  0.00    +0.000 A 
ATOM     17  C   UNL     1     103.837 123.590 137.812  0.00  0.00    +0.000 A 
ATOM     18  C   UNL     1     102.296 123.527 138.399  0.00  0.00    +0.000 A 
ATOM     19  C   UNL     1     103.203 123.470 137.297  0.00  0.00    +0.000 A 
ATOM     20  C   UNL     1     102.432 123.439 137.591  0.00  0.00    +0.000 A 
ENDBRANCH   5  15
BRANCH  12  21
ATOM     21  O   UNL     1     107.200 123.899 141.395  0.00  0.00    +0.000 OA
ATOM     22  C   UNL     1     107.920 124.302 141.420  0.00  0.00    +0.000 C 
ENDBRANCH  12  21
TORSDOF 2
ENDMDL
MODEL 7
REMARK VINA RESULT:      -8.4     13.460     14.164
REMARK  Name = 12116708
REMARK  2 active torsions:
REMARK  status: ('A' for Active; 'I' for Inactive)
REMARK    1  A    between atoms: O_4  and  C_14
REMARK    2  A    between atoms: C_6  and  C_11
REMARK                            x       y       z     vdW  Elec       q    Type
REMARK                         _______ _______ _______ _____ _____    ______ ____
ROOT
ATOM      1  O   UNL     1     112.256 126.594 136.120  0.00  0.00    +0.000 OA
ATOM      2  O   UNL     1     112.827 125.702 136.609  0.00  0.00    +0.000 OA
ATOM      3  O   UNL     1     113.812 128.512 136.274  0.00  0.00    +0.000 OA
ATOM      4  O   UNL     1     112.856 129.376 135.625  0.00  0.00    +0.000 OA
ATOM      5  C   UNL     1     112.998 126.496 136.468  0.00  0.00    +0.000 C 
ATOM      6  C   UNL     1     113.516 127.135 136.519  0.00  0.00    +0.000 C 
ATOM      7  C   UNL     1     112.033 127.330 135.823  0.00  0.00    +0.000 A 
ATOM      8  C   UNL     1     112.552 127.969 135.874  0.00  0.00    +0.000 A 
ATOM      9  C   UNL     1     113.293 127.873 136.222  0.00  0.00    +0.000 C 
ATOM     10  C   UNL     1     111.257 127.419 135.463  0.00  0.00    +0.000 A 
ATOM     11  C   UNL     1     112.331 128.742 135.569  0.00  0.00    +0.000 A 
ATOM     12  C   UNL     1     111.020 128.184 135.152  0.00  0.00    +0.000 A 
ATOM     13  C   UNL     1     111.560 128.849 135.206  0.00  0.00    +0.000 A 
ATOM     14  C   UNL     1     110.746 126.774 135.416  0.00  0.00    +0.000 C 
ENDROOT
BRANCH   5  15
ATOM     15  C   UNL     1     113.554 126.014 136.840  0.00  0.00    +0.000 A 
ATOM     16  C   UNL     1     113.571 125.963 137.663  0.00  0.00    +0.000 A 
ATOM     17  C   UNL     1     114.095 125.584 136.388  0.00  0.00    +0.000 A 
ATOM     18  C   UNL     1     114.128 125.481 138.035  0.00  0.00    +0.000 A 
ATOM     19  C   UNL     1     114.652 125.102 136.760  0.00  0.00    +0.000 A 
ATOM     20  C   UNL     1     114.668 125.051 137.584  0.00  0.00    +0.000 A 
ENDBRANCH   5  15
BRANCH  12  21
ATOM     21  O   UNL     1     110.278 128.278 134.805  0.00  0.00    +0.000 OA
ATOM     22  C   UNL     1     109.969 129.034 134.689  0.00  0.00    +0.000 C 
ENDBRANCH  12  21
TORSDOF 2
ENDMDL
MODEL 8
REMARK VINA RESULT:      -8.3     10.641     12.376
REMARK  Name = 12116708
REMARK  2 active torsions:
REMARK  status: ('A' for Active; 'I' for Inactive)
REMARK    1  A    between atoms: O_4  and  C_14
REMARK    2  A    between atoms: C_6  and  C_11
REMARK                            x       y       z     vdW  Elec       q    Type
REMARK                         _______ _______ _______ _____ _____    ______ ____
ROOT
ATOM      1  O   UNL     1     113.806 126.420 139.189  0.00  0.00    +0.000 OA
ATOM      2  O   UNL     1     114.511 126.043 138.339  0.00  0.00    +0.000 OA
ATOM      3  O   UNL     1     111.521 125.849 138.427  0.00  0.00    +0.000 OA
ATOM      4  O   UNL     1     110.950 126.415 139.625  0.00  0.00    +0.000 OA
ATOM      5  C   UNL     1     113.696 126.042 138.464  0.00  0.00    +0.000 C 
ATOM      6  C   UNL     1     112.934 125.851 138.210  0.00  0.00    +0.000 C 
ATOM      7  C   UNL     1     113.155 126.608 139.660  0.00  0.00    +0.000 A 
ATOM      8  C   UNL     1     112.394 126.418 139.406  0.00  0.00    +0.000 A 
ATOM      9  C   UNL     1     112.283 126.040 138.681  0.00  0.00    +0.000 C 
ATOM     10  C   UNL     1     113.283 127.003 140.413  0.00  0.00    +0.000 A 
ATOM     11  C   UNL     1     111.708 126.609 139.887  0.00  0.00    +0.000 A 
ATOM     12  C   UNL     1     112.610 127.201 140.907  0.00  0.00    +0.000 A 
ATOM     13  C   UNL     1     111.817 127.003 140.643  0.00  0.00    +0.000 A 
ATOM     14  C   UNL     1     114.049 127.189 140.658  0.00  0.00    +0.000 C 
ENDROOT
BRANCH   5  15
ATOM     15  C   UNL     1     114.008 125.714 137.774  0.00  0.00    +0.000 A 
ATOM     16  C   UNL     1     114.049 126.166 137.086  0.00  0.00    +0.000 A 
ATOM     17  C   UNL     1     114.278 124.935 137.773  0.00  0.00    +0.000 A 
ATOM     18  C   UNL     1     114.361 125.839 136.396  0.00  0.00    +0.000 A 
ATOM     19  C   UNL     1     114.590 124.608 137.083  0.00  0.00    +0.000 A 
ATOM     20  C   UNL     1     114.631 125.060 136.394  0.00  0.00    +0.000 A 
ENDBRANCH   5  15
BRANCH  12  21
ATOM     21  O   UNL     1     112.723 127.580 141.631  0.00  0.00    +0.000 OA
ATOM     22  C   UNL     1     112.086 127.936 142.015  0.00  0.00    +0.000 C 
ENDBRANCH  12  21
TORSDOF 2
ENDMDL
MODEL 9
REMARK VINA RESULT:      -8.3      0.859      1.760
REMARK  Name = 12116708
REMARK  2 active torsions:
REMARK  status: ('A' for Active; 'I' for Inactive)
REMARK    1  A    between atoms: O_4  and  C_14
REMARK    2  A    between atoms: C_6  and  C_11
REMARK                            x       y       z     vdW  Elec       q    Type
REMARK                         _______ _______ _______ _____ _____    ______ ____
ROOT
ATOM      1  O   UNL     1     104.546 124.983 147.883  0.00  0.00    +0.000 OA
ATOM      2  O   UNL     1     105.589 125.301 148.300  0.00  0.00    +0.000 OA
ATOM      3  O   UNL     1     105.038 123.795 145.768  0.00  0.00    +0.000 OA
ATOM      4  O   UNL     1     103.633 123.560 145.541  0.00  0.00    +0.000 OA
ATOM      5  C   UNL     1     105.327 124.895 147.632  0.00  0.00    +0.000 C 
ATOM      6  C   UNL     1     105.491 124.500 146.927  0.00  0.00    +0.000 C 
ATOM      7  C   UNL     1     103.930 124.675 147.431  0.00  0.00    +0.000 A 
ATOM      8  C   UNL     1     104.094 124.279 146.726  0.00  0.00    +0.000 A 
ATOM      9  C   UNL     1     104.874 124.191 146.473  0.00  0.00    +0.000 C 
ATOM     10  C   UNL     1     103.121 124.773 147.704  0.00  0.00    +0.000 A 
ATOM     11  C   UNL     1     103.459 123.954 146.245  0.00  0.00    +0.000 A 
ATOM     12  C   UNL     1     102.474 124.454 147.236  0.00  0.00    +0.000 A 
ATOM     13  C   UNL     1     102.645 124.042 146.502  0.00  0.00    +0.000 A 
ATOM     14  C   UNL     1     102.967 125.170 148.410  0.00  0.00    +0.000 C 
ENDROOT
BRANCH   5  15
ATOM     15  C   UNL     1     106.134 125.022 147.748  0.00  0.00    +0.000 A 
ATOM     16  C   UNL     1     106.516 125.637 147.352  0.00  0.00    +0.000 A 
ATOM     17  C   UNL     1     106.559 124.534 148.260  0.00  0.00    +0.000 A 
ATOM     18  C   UNL     1     107.323 125.764 147.468  0.00  0.00    +0.000 A 
ATOM     19  C   UNL     1     107.366 124.661 148.376  0.00  0.00    +0.000 A 
ATOM     20  C   UNL     1     107.748 125.277 147.980  0.00  0.00    +0.000 A 
ENDBRANCH   5  15
BRANCH  12  21
ATOM     21  O   UNL     1     101.695 124.544 147.491  0.00  0.00    +0.000 OA
ATOM     22  C   UNL     1     101.083 124.162 147.090  0.00  0.00    +0.000 C 
ENDBRANCH  12  21
TORSDOF 2
ENDMDL
MODEL 10
REMARK VINA RESULT:      -8.3     12.973     13.917
REMARK  Name = 12116708
REMARK  2 active torsions:
REMARK  status: ('A' for Active; 'I' for Inactive)
REMARK    1  A    between atoms: O_4  and  C_14
REMARK    2  A    between atoms: C_6  and  C_11
REMARK                            x       y       z     vdW  Elec       q    Type
REMARK                         _______ _______ _______ _____ _____    ______ ____
ROOT
ATOM      1  O   UNL     1     113.286 126.305 136.711  0.00  0.00    +0.000 OA
ATOM      2  O   UNL     1     113.832 127.335 136.754  0.00  0.00    +0.000 OA
ATOM      3  O   UNL     1     111.091 126.786 135.674  0.00  0.00    +0.000 OA
ATOM      4  O   UNL     1     110.710 125.398 135.770  0.00  0.00    +0.000 OA
ATOM      5  C   UNL     1     113.097 127.076 136.485  0.00  0.00    +0.000 C 
ATOM      6  C   UNL     1     112.366 127.236 136.140  0.00  0.00    +0.000 C 
ATOM      7  C   UNL     1     112.745 125.695 136.592  0.00  0.00    +0.000 A 
ATOM      8  C   UNL     1     112.013 125.856 136.246  0.00  0.00    +0.000 A 
ATOM      9  C   UNL     1     111.823 126.626 136.020  0.00  0.00    +0.000 C 
ATOM     10  C   UNL     1     112.954 124.897 136.832  0.00  0.00    +0.000 A 
ATOM     11  C   UNL     1     111.440 125.228 136.117  0.00  0.00    +0.000 A 
ATOM     12  C   UNL     1     112.393 124.257 136.710  0.00  0.00    +0.000 A 
ATOM     13  C   UNL     1     111.631 124.424 136.350  0.00  0.00    +0.000 A 
ATOM     14  C   UNL     1     113.688 124.746 137.177  0.00  0.00    +0.000 C 
ENDROOT
BRANCH   5  15
ATOM     15  C   UNL     1     113.301 127.873 136.424  0.00  0.00    +0.000 A 
ATOM     16  C   UNL     1     113.704 128.145 135.758  0.00  0.00    +0.000 A 
ATOM     17  C   UNL     1     113.101 128.397 137.029  0.00  0.00    +0.000 A 
ATOM     18  C   UNL     1     113.908 128.942 135.697  0.00  0.00    +0.000 A 
ATOM     19  C   UNL     1     113.305 129.194 136.967  0.00  0.00    +0.000 A 
ATOM     20  C   UNL     1     113.708 129.467 136.301  0.00  0.00    +0.000 A 
ENDBRANCH   5  15
BRANCH  12  21
ATOM     21  O   UNL     1     112.585 123.488 136.937  0.00  0.00    +0.000 OA
ATOM     22  C   UNL     1     111.991 122.965 137.169  0.00  0.00    +0.000 C 
ENDBRANCH  12  21
TORSDOF 2
ENDMDL
