MODEL 1
REMARK VINA RESULT:      -7.3      0.000      0.000
REMARK  Name = 42608106
REMARK  7 active torsions:
REMARK  status: ('A' for Active; 'I' for Inactive)
REMARK    1  A    between atoms: O_2  and  C_15
REMARK    2  A    between atoms: O_4  and  C_19
REMARK    3  A    between atoms: O_5  and  C_20
REMARK    4  A    between atoms: O_6  and  C_21
REMARK    5  A    between atoms: O_7  and  C_22
REMARK    6  A    between atoms: O_8  and  C_23
REMARK    7  A    between atoms: C_9  and  C_11
REMARK                            x       y       z     vdW  Elec       q    Type
REMARK                         _______ _______ _______ _____ _____    ______ ____
ROOT
ATOM      1  O   UNL     1     113.345 127.564 136.405  0.00  0.00    +0.000 OA
ATOM      2  O   UNL     1     112.578 128.613 138.578  0.00  0.00    +0.000 OA
ATOM      3  C   UNL     1     112.948 127.076 136.991  0.00  0.00    +0.000 C 
ATOM      4  C   UNL     1     112.687 127.430 137.729  0.00  0.00    +0.000 C 
ATOM      5  C   UNL     1     113.224 128.737 137.274  0.00  0.00    +0.000 A 
ATOM      6  C   UNL     1     112.826 128.266 137.872  0.00  0.00    +0.000 C 
ATOM      7  C   UNL     1     113.475 128.398 136.565  0.00  0.00    +0.000 A 
ATOM      8  C   UNL     1     113.355 129.540 137.417  0.00  0.00    +0.000 A 
ATOM      9  C   UNL     1     113.857 128.861 135.999  0.00  0.00    +0.000 A 
ATOM     10  C   UNL     1     113.736 130.002 136.850  0.00  0.00    +0.000 A 
ATOM     11  C   UNL     1     113.988 129.663 136.141  0.00  0.00    +0.000 A 
ENDROOT
BRANCH   3  12
ATOM     12  C   UNL     1     112.819 126.275 136.846  0.00  0.00    +0.000 A 
ATOM     13  C   UNL     1     112.118 126.028 136.489  0.00  0.00    +0.000 A 
ATOM     14  C   UNL     1     113.391 125.720 137.058  0.00  0.00    +0.000 A 
ATOM     15  C   UNL     1     113.263 124.918 136.914  0.00  0.00    +0.000 A 
ATOM     16  C   UNL     1     111.989 125.225 136.344  0.00  0.00    +0.000 A 
ATOM     17  C   UNL     1     112.561 124.670 136.556  0.00  0.00    +0.000 A 
BRANCH  15  18
ATOM     18  O   UNL     1     113.835 124.364 137.126  0.00  0.00    +0.000 OA
ATOM     19  C   UNL     1     114.613 124.604 137.259  0.00  0.00    +0.000 C 
ENDBRANCH  15  18
BRANCH  16  20
ATOM     20  O   UNL     1     111.288 124.978 135.986  0.00  0.00    +0.000 OA
ATOM     21  C   UNL     1     110.866 125.497 135.502  0.00  0.00    +0.000 C 
ENDBRANCH  16  20
BRANCH  17  22
ATOM     22  O   UNL     1     112.433 123.869 136.411  0.00  0.00    +0.000 OA
ATOM     23  C   UNL     1     112.056 123.403 136.979  0.00  0.00    +0.000 C 
ENDBRANCH  17  22
ENDBRANCH   3  12
BRANCH   8  24
ATOM     24  O   UNL     1     113.103 129.879 138.126  0.00  0.00    +0.000 OA
ATOM     25  C   UNL     1     113.582 129.836 138.795  0.00  0.00    +0.000 C 
ENDBRANCH   8  24
BRANCH  10  26
ATOM     26  O   UNL     1     113.867 130.805 136.993  0.00  0.00    +0.000 OA
ATOM     27  C   UNL     1     113.336 131.366 136.704  0.00  0.00    +0.000 C 
ENDBRANCH  10  26
BRANCH  11  28
ATOM     28  O   UNL     1     114.369 130.126 135.575  0.00  0.00    +0.000 OA
ATOM     29  C   UNL     1     114.802 129.766 134.972  0.00  0.00    +0.000 C 
ENDBRANCH  11  28
TORSDOF 7
ENDMDL
MODEL 2
REMARK VINA RESULT:      -7.2      0.710      2.270
REMARK  Name = 42608106
REMARK  7 active torsions:
REMARK  status: ('A' for Active; 'I' for Inactive)
REMARK    1  A    between atoms: O_2  and  C_15
REMARK    2  A    between atoms: O_4  and  C_19
REMARK    3  A    between atoms: O_5  and  C_20
REMARK    4  A    between atoms: O_6  and  C_21
REMARK    5  A    between atoms: O_7  and  C_22
REMARK    6  A    between atoms: O_8  and  C_23
REMARK    7  A    between atoms: C_9  and  C_11
REMARK                            x       y       z     vdW  Elec       q    Type
REMARK                         _______ _______ _______ _____ _____    ______ ____
ROOT
ATOM      1  O   UNL     1     112.641 127.558 137.339  0.00  0.00    +0.000 OA
ATOM      2  O   UNL     1     113.804 128.781 135.452  0.00  0.00    +0.000 OA
ATOM      3  C   UNL     1     112.919 127.114 136.657  0.00  0.00    +0.000 C 
ATOM      4  C   UNL     1     113.313 127.526 136.015  0.00  0.00    +0.000 C 
ATOM      5  C   UNL     1     113.141 128.803 136.753  0.00  0.00    +0.000 A 
ATOM      6  C   UNL     1     113.425 128.377 136.064  0.00  0.00    +0.000 C 
ATOM      7  C   UNL     1     112.762 128.407 137.369  0.00  0.00    +0.000 A 
ATOM      8  C   UNL     1     113.251 129.621 136.793  0.00  0.00    +0.000 A 
ATOM      9  C   UNL     1     112.493 128.829 138.026  0.00  0.00    +0.000 A 
ATOM     10  C   UNL     1     112.982 130.041 137.450  0.00  0.00    +0.000 A 
ATOM     11  C   UNL     1     112.603 129.645 138.067  0.00  0.00    +0.000 A 
ENDROOT
BRANCH   3  12
ATOM     12  C   UNL     1     112.807 126.297 136.619  0.00  0.00    +0.000 A 
ATOM     13  C   UNL     1     113.395 125.787 136.893  0.00  0.00    +0.000 A 
ATOM     14  C   UNL     1     112.107 125.990 136.308  0.00  0.00    +0.000 A 
ATOM     15  C   UNL     1     111.995 125.175 136.270  0.00  0.00    +0.000 A 
ATOM     16  C   UNL     1     113.283 124.970 136.855  0.00  0.00    +0.000 A 
ATOM     17  C   UNL     1     112.583 124.664 136.543  0.00  0.00    +0.000 A 
BRANCH  15  18
ATOM     18  O   UNL     1     111.295 124.868 135.959  0.00  0.00    +0.000 OA
ATOM     19  C   UNL     1     110.791 125.353 135.521  0.00  0.00    +0.000 C 
ENDBRANCH  15  18
BRANCH  16  20
ATOM     20  O   UNL     1     113.871 124.460 137.128  0.00  0.00    +0.000 OA
ATOM     21  C   UNL     1     114.629 124.748 137.278  0.00  0.00    +0.000 C 
ENDBRANCH  16  20
BRANCH  17  22
ATOM     22  O   UNL     1     112.471 123.848 136.505  0.00  0.00    +0.000 OA
ATOM     23  C   UNL     1     112.084 123.456 137.120  0.00  0.00    +0.000 C 
ENDBRANCH  17  22
ENDBRANCH   3  12
BRANCH   8  24
ATOM     24  O   UNL     1     113.631 130.017 136.177  0.00  0.00    +0.000 OA
ATOM     25  C   UNL     1     114.454 130.062 136.161  0.00  0.00    +0.000 C 
ENDBRANCH   8  24
BRANCH  10  26
ATOM     26  O   UNL     1     113.093 130.858 137.490  0.00  0.00    +0.000 OA
ATOM     27  C   UNL     1     112.481 131.367 137.274  0.00  0.00    +0.000 C 
ENDBRANCH  10  26
BRANCH  11  28
ATOM     28  O   UNL     1     112.334 130.066 138.723  0.00  0.00    +0.000 OA
ATOM     29  C   UNL     1     112.155 129.667 139.423  0.00  0.00    +0.000 C 
ENDBRANCH  11  28
TORSDOF 7
ENDMDL
MODEL 3
REMARK VINA RESULT:      -7.1      0.574      5.009
REMARK  Name = 42608106
REMARK  7 active torsions:
REMARK  status: ('A' for Active; 'I' for Inactive)
REMARK    1  A    between atoms: O_2  and  C_15
REMARK    2  A    between atoms: O_4  and  C_19
REMARK    3  A    between atoms: O_5  and  C_20
REMARK    4  A    between atoms: O_6  and  C_21
REMARK    5  A    between atoms: O_7  and  C_22
REMARK    6  A    between atoms: O_8  and  C_23
REMARK    7  A    between atoms: C_9  and  C_11
REMARK                            x       y       z     vdW  Elec       q    Type
REMARK                         _______ _______ _______ _____ _____    ______ ____
ROOT
ATOM      1  O   UNL     1     113.431 127.100 136.708  0.00  0.00    +0.000 OA
ATOM      2  O   UNL     1     111.021 126.790 135.997  0.00  0.00    +0.000 OA
ATOM      3  C   UNL     1     112.955 127.791 136.522  0.00  0.00    +0.000 C 
ATOM      4  C   UNL     1     112.137 127.689 136.281  0.00  0.00    +0.000 C 
ATOM      5  C   UNL     1     112.298 126.219 136.418  0.00  0.00    +0.000 A 
ATOM      6  C   UNL     1     111.806 126.897 136.228  0.00  0.00    +0.000 C 
ATOM      7  C   UNL     1     113.083 126.317 136.650  0.00  0.00    +0.000 A 
ATOM      8  C   UNL     1     111.974 125.461 136.366  0.00  0.00    +0.000 A 
ATOM      9  C   UNL     1     113.545 125.658 136.830  0.00  0.00    +0.000 A 
ATOM     10  C   UNL     1     112.437 124.803 136.546  0.00  0.00    +0.000 A 
ATOM     11  C   UNL     1     113.223 124.901 136.778  0.00  0.00    +0.000 A 
ENDROOT
BRANCH   3  12
ATOM     12  C   UNL     1     113.280 128.548 136.575  0.00  0.00    +0.000 A 
ATOM     13  C   UNL     1     113.223 128.973 137.280  0.00  0.00    +0.000 A 
ATOM     14  C   UNL     1     113.663 128.878 135.923  0.00  0.00    +0.000 A 
ATOM     15  C   UNL     1     113.989 129.634 135.976  0.00  0.00    +0.000 A 
ATOM     16  C   UNL     1     113.549 129.729 137.332  0.00  0.00    +0.000 A 
ATOM     17  C   UNL     1     113.932 130.060 136.680  0.00  0.00    +0.000 A 
BRANCH  15  18
ATOM     18  O   UNL     1     114.372 129.964 135.324  0.00  0.00    +0.000 OA
ATOM     19  C   UNL     1     114.710 129.475 134.752  0.00  0.00    +0.000 C 
ENDBRANCH  15  18
BRANCH  16  20
ATOM     20  O   UNL     1     113.492 130.155 138.036  0.00  0.00    +0.000 OA
ATOM     21  C   UNL     1     113.444 129.756 138.757  0.00  0.00    +0.000 C 
ENDBRANCH  16  20
BRANCH  17  22
ATOM     22  O   UNL     1     114.258 130.816 136.733  0.00  0.00    +0.000 OA
ATOM     23  C   UNL     1     113.793 131.477 136.566  0.00  0.00    +0.000 C 
ENDBRANCH  17  22
ENDBRANCH   3  12
BRANCH   8  24
ATOM     24  O   UNL     1     111.189 125.363 136.134  0.00  0.00    +0.000 OA
ATOM     25  C   UNL     1     110.986 125.407 135.336  0.00  0.00    +0.000 C 
ENDBRANCH   8  24
BRANCH  10  26
ATOM     26  O   UNL     1     112.114 124.045 136.494  0.00  0.00    +0.000 OA
ATOM     27  C   UNL     1     111.850 123.662 137.175  0.00  0.00    +0.000 C 
ENDBRANCH  10  26
BRANCH  11  28
ATOM     28  O   UNL     1     113.685 124.241 136.957  0.00  0.00    +0.000 OA
ATOM     29  C   UNL     1     114.474 124.339 137.176  0.00  0.00    +0.000 C 
ENDBRANCH  11  28
TORSDOF 7
ENDMDL
MODEL 4
REMARK VINA RESULT:      -7.0      0.763      4.984
REMARK  Name = 42608106
REMARK  7 active torsions:
REMARK  status: ('A' for Active; 'I' for Inactive)
REMARK    1  A    between atoms: O_2  and  C_15
REMARK    2  A    between atoms: O_4  and  C_19
REMARK    3  A    between atoms: O_5  and  C_20
REMARK    4  A    between atoms: O_6  and  C_21
REMARK    5  A    between atoms: O_7  and  C_22
REMARK    6  A    between atoms: O_8  and  C_23
REMARK    7  A    between atoms: C_9  and  C_11
REMARK                            x       y       z     vdW  Elec       q    Type
REMARK                         _______ _______ _______ _____ _____    ______ ____
ROOT
ATOM      1  O   UNL     1     112.434 127.280 136.303  0.00  0.00    +0.000 OA
ATOM      2  O   UNL     1     114.242 125.883 137.395  0.00  0.00    +0.000 OA
ATOM      3  C   UNL     1     113.128 127.669 136.629  0.00  0.00    +0.000 C 
ATOM      4  C   UNL     1     113.743 127.198 137.000  0.00  0.00    +0.000 C 
ATOM      5  C   UNL     1     112.955 125.973 136.709  0.00  0.00    +0.000 A 
ATOM      6  C   UNL     1     113.656 126.344 137.040  0.00  0.00    +0.000 C 
ATOM      7  C   UNL     1     112.365 126.426 136.353  0.00  0.00    +0.000 A 
ATOM      8  C   UNL     1     112.878 125.152 136.751  0.00  0.00    +0.000 A 
ATOM      9  C   UNL     1     111.696 126.057 136.039  0.00  0.00    +0.000 A 
ATOM     10  C   UNL     1     112.209 124.785 136.437  0.00  0.00    +0.000 A 
ATOM     11  C   UNL     1     111.618 125.238 136.081  0.00  0.00    +0.000 A 
ENDROOT
BRANCH   3  12
ATOM     12  C   UNL     1     113.203 128.490 136.586  0.00  0.00    +0.000 A 
ATOM     13  C   UNL     1     112.847 128.967 137.157  0.00  0.00    +0.000 A 
ATOM     14  C   UNL     1     113.634 128.833 135.972  0.00  0.00    +0.000 A 
ATOM     15  C   UNL     1     113.709 129.652 135.928  0.00  0.00    +0.000 A 
ATOM     16  C   UNL     1     112.923 129.788 137.113  0.00  0.00    +0.000 A 
ATOM     17  C   UNL     1     113.354 130.131 136.499  0.00  0.00    +0.000 A 
BRANCH  15  18
ATOM     18  O   UNL     1     114.140 129.995 135.314  0.00  0.00    +0.000 OA
ATOM     19  C   UNL     1     114.262 129.578 134.612  0.00  0.00    +0.000 C 
ENDBRANCH  15  18
BRANCH  16  20
ATOM     20  O   UNL     1     112.567 130.266 137.684  0.00  0.00    +0.000 OA
ATOM     21  C   UNL     1     111.912 129.989 138.104  0.00  0.00    +0.000 C 
ENDBRANCH  16  20
BRANCH  17  22
ATOM     22  O   UNL     1     113.429 130.951 136.455  0.00  0.00    +0.000 OA
ATOM     23  C   UNL     1     114.060 131.327 136.831  0.00  0.00    +0.000 C 
ENDBRANCH  17  22
ENDBRANCH   3  12
BRANCH   8  24
ATOM     24  O   UNL     1     113.468 124.699 137.107  0.00  0.00    +0.000 OA
ATOM     25  C   UNL     1     114.153 124.512 136.688  0.00  0.00    +0.000 C 
ENDBRANCH   8  24
BRANCH  10  26
ATOM     26  O   UNL     1     112.131 123.964 136.479  0.00  0.00    +0.000 OA
ATOM     27  C   UNL     1     111.746 123.619 137.121  0.00  0.00    +0.000 C 
ENDBRANCH  10  26
BRANCH  11  28
ATOM     28  O   UNL     1     110.950 124.869 135.766  0.00  0.00    +0.000 OA
ATOM     29  C   UNL     1     110.441 125.291 135.273  0.00  0.00    +0.000 C 
ENDBRANCH  11  28
TORSDOF 7
ENDMDL
MODEL 5
REMARK VINA RESULT:      -7.0      0.755      5.016
REMARK  Name = 42608106
REMARK  7 active torsions:
REMARK  status: ('A' for Active; 'I' for Inactive)
REMARK    1  A    between atoms: O_2  and  C_15
REMARK    2  A    between atoms: O_4  and  C_19
REMARK    3  A    between atoms: O_5  and  C_20
REMARK    4  A    between atoms: O_6  and  C_21
REMARK    5  A    between atoms: O_7  and  C_22
REMARK    6  A    between atoms: O_8  and  C_23
REMARK    7  A    between atoms: C_9  and  C_11
REMARK                            x       y       z     vdW  Elec       q    Type
REMARK                         _______ _______ _______ _____ _____    ______ ____
ROOT
ATOM      1  O   UNL     1     112.429 127.290 136.316  0.00  0.00    +0.000 OA
ATOM      2  O   UNL     1     114.249 125.901 137.398  0.00  0.00    +0.000 OA
ATOM      3  C   UNL     1     113.122 127.682 136.640  0.00  0.00    +0.000 C 
ATOM      4  C   UNL     1     113.741 127.214 137.007  0.00  0.00    +0.000 C 
ATOM      5  C   UNL     1     112.959 125.985 136.718  0.00  0.00    +0.000 A 
ATOM      6  C   UNL     1     113.659 126.359 137.047  0.00  0.00    +0.000 C 
ATOM      7  C   UNL     1     112.364 126.435 136.365  0.00  0.00    +0.000 A 
ATOM      8  C   UNL     1     112.886 125.163 136.760  0.00  0.00    +0.000 A 
ATOM      9  C   UNL     1     111.697 126.063 136.054  0.00  0.00    +0.000 A 
ATOM     10  C   UNL     1     112.218 124.793 136.448  0.00  0.00    +0.000 A 
ATOM     11  C   UNL     1     111.623 125.243 136.095  0.00  0.00    +0.000 A 
ENDROOT
BRANCH   3  12
ATOM     12  C   UNL     1     113.193 128.503 136.597  0.00  0.00    +0.000 A 
ATOM     13  C   UNL     1     113.598 128.850 135.968  0.00  0.00    +0.000 A 
ATOM     14  C   UNL     1     112.858 128.977 137.184  0.00  0.00    +0.000 A 
ATOM     15  C   UNL     1     112.929 129.797 137.142  0.00  0.00    +0.000 A 
ATOM     16  C   UNL     1     113.669 129.672 135.926  0.00  0.00    +0.000 A 
ATOM     17  C   UNL     1     113.334 130.145 136.513  0.00  0.00    +0.000 A 
BRANCH  15  18
ATOM     18  O   UNL     1     112.594 130.271 137.728  0.00  0.00    +0.000 OA
ATOM     19  C   UNL     1     111.963 129.986 138.178  0.00  0.00    +0.000 C 
ENDBRANCH  15  18
BRANCH  16  20
ATOM     20  O   UNL     1     114.074 130.019 135.297  0.00  0.00    +0.000 OA
ATOM     21  C   UNL     1     114.228 129.582 134.614  0.00  0.00    +0.000 C 
ENDBRANCH  16  20
BRANCH  17  22
ATOM     22  O   UNL     1     113.404 130.965 136.471  0.00  0.00    +0.000 OA
ATOM     23  C   UNL     1     114.060 131.340 136.803  0.00  0.00    +0.000 C 
ENDBRANCH  17  22
ENDBRANCH   3  12
BRANCH   8  24
ATOM     24  O   UNL     1     113.480 124.713 137.113  0.00  0.00    +0.000 OA
ATOM     25  C   UNL     1     114.175 124.551 136.699  0.00  0.00    +0.000 C 
ENDBRANCH   8  24
BRANCH  10  26
ATOM     26  O   UNL     1     112.145 123.972 136.489  0.00  0.00    +0.000 OA
ATOM     27  C   UNL     1     111.744 123.626 137.121  0.00  0.00    +0.000 C 
ENDBRANCH  10  26
BRANCH  11  28
ATOM     28  O   UNL     1     110.956 124.872 135.783  0.00  0.00    +0.000 OA
ATOM     29  C   UNL     1     110.438 125.294 135.299  0.00  0.00    +0.000 C 
ENDBRANCH  11  28
TORSDOF 7
ENDMDL
MODEL 6
REMARK VINA RESULT:      -6.8      1.704      2.826
REMARK  Name = 42608106
REMARK  7 active torsions:
REMARK  status: ('A' for Active; 'I' for Inactive)
REMARK    1  A    between atoms: O_2  and  C_15
REMARK    2  A    between atoms: O_4  and  C_19
REMARK    3  A    between atoms: O_5  and  C_20
REMARK    4  A    between atoms: O_6  and  C_21
REMARK    5  A    between atoms: O_7  and  C_22
REMARK    6  A    between atoms: O_8  and  C_23
REMARK    7  A    between atoms: C_9  and  C_11
REMARK                            x       y       z     vdW  Elec       q    Type
REMARK                         _______ _______ _______ _____ _____    ______ ____
ROOT
ATOM      1  O   UNL     1     113.069 127.532 138.543  0.00  0.00    +0.000 OA
ATOM      2  O   UNL     1     113.081 127.114 141.040  0.00  0.00    +0.000 OA
ATOM      3  C   UNL     1     112.926 126.737 138.838  0.00  0.00    +0.000 C 
ATOM      4  C   UNL     1     112.930 126.592 139.684  0.00  0.00    +0.000 C 
ATOM      5  C   UNL     1     113.217 128.031 139.912  0.00  0.00    +0.000 A 
ATOM      6  C   UNL     1     113.076 127.244 140.225  0.00  0.00    +0.000 C 
ATOM      7  C   UNL     1     113.214 128.170 139.099  0.00  0.00    +0.000 A 
ATOM      8  C   UNL     1     113.357 128.653 140.436  0.00  0.00    +0.000 A 
ATOM      9  C   UNL     1     113.351 128.931 138.810  0.00  0.00    +0.000 A 
ATOM     10  C   UNL     1     113.494 129.413 140.147  0.00  0.00    +0.000 A 
ATOM     11  C   UNL     1     113.491 129.552 139.334  0.00  0.00    +0.000 A 
ENDROOT
BRANCH   3  12
ATOM     12  C   UNL     1     112.786 126.117 138.311  0.00  0.00    +0.000 A 
ATOM     13  C   UNL     1     113.414 125.653 138.044  0.00  0.00    +0.000 A 
ATOM     14  C   UNL     1     112.019 125.961 138.052  0.00  0.00    +0.000 A 
ATOM     15  C   UNL     1     111.879 125.342 137.527  0.00  0.00    +0.000 A 
ATOM     16  C   UNL     1     113.274 125.033 137.518  0.00  0.00    +0.000 A 
ATOM     17  C   UNL     1     112.506 124.877 137.259  0.00  0.00    +0.000 A 
BRANCH  15  18
ATOM     18  O   UNL     1     111.111 125.186 137.268  0.00  0.00    +0.000 OA
ATOM     19  C   UNL     1     110.563 125.800 137.207  0.00  0.00    +0.000 C 
ENDBRANCH  15  18
BRANCH  16  20
ATOM     20  O   UNL     1     113.901 124.569 137.250  0.00  0.00    +0.000 OA
ATOM     21  C   UNL     1     114.666 124.880 137.233  0.00  0.00    +0.000 C 
ENDBRANCH  16  20
BRANCH  17  22
ATOM     22  O   UNL     1     112.366 124.258 136.733  0.00  0.00    +0.000 OA
ATOM     23  C   UNL     1     112.162 123.512 137.020  0.00  0.00    +0.000 C 
ENDBRANCH  17  22
ENDBRANCH   3  12
BRANCH   8  24
ATOM     24  O   UNL     1     113.361 128.514 141.250  0.00  0.00    +0.000 OA
ATOM     25  C   UNL     1     112.652 128.514 141.670  0.00  0.00    +0.000 C 
ENDBRANCH   8  24
BRANCH  10  26
ATOM     26  O   UNL     1     113.634 130.035 140.671  0.00  0.00    +0.000 OA
ATOM     27  C   UNL     1     114.406 130.288 140.814  0.00  0.00    +0.000 C 
ENDBRANCH  10  26
BRANCH  11  28
ATOM     28  O   UNL     1     113.628 130.313 139.045  0.00  0.00    +0.000 OA
ATOM     29  C   UNL     1     113.454 130.493 138.259  0.00  0.00    +0.000 C 
ENDBRANCH  11  28
TORSDOF 7
ENDMDL
MODEL 7
REMARK VINA RESULT:      -6.8     12.432     14.125
REMARK  Name = 42608106
REMARK  7 active torsions:
REMARK  status: ('A' for Active; 'I' for Inactive)
REMARK    1  A    between atoms: O_2  and  C_15
REMARK    2  A    between atoms: O_4  and  C_19
REMARK    3  A    between atoms: O_5  and  C_20
REMARK    4  A    between atoms: O_6  and  C_21
REMARK    5  A    between atoms: O_7  and  C_22
REMARK    6  A    between atoms: O_8  and  C_23
REMARK    7  A    between atoms: C_9  and  C_11
REMARK                            x       y       z     vdW  Elec       q    Type
REMARK                         _______ _______ _______ _____ _____    ______ ____
ROOT
ATOM      1  O   UNL     1     104.124 125.235 146.943  0.00  0.00    +0.000 OA
ATOM      2  O   UNL     1     104.058 123.021 145.716  0.00  0.00    +0.000 OA
ATOM      3  C   UNL     1     104.790 125.007 146.450  0.00  0.00    +0.000 C 
ATOM      4  C   UNL     1     104.770 124.257 146.032  0.00  0.00    +0.000 C 
ATOM      5  C   UNL     1     103.429 123.989 146.611  0.00  0.00    +0.000 A 
ATOM      6  C   UNL     1     104.085 123.744 146.114  0.00  0.00    +0.000 C 
ATOM      7  C   UNL     1     103.448 124.709 147.012  0.00  0.00    +0.000 A 
ATOM      8  C   UNL     1     102.774 123.492 146.685  0.00  0.00    +0.000 A 
ATOM      9  C   UNL     1     102.811 124.933 147.487  0.00  0.00    +0.000 A 
ATOM     10  C   UNL     1     102.138 123.717 147.161  0.00  0.00    +0.000 A 
ATOM     11  C   UNL     1     102.157 124.437 147.562  0.00  0.00    +0.000 A 
ENDROOT
BRANCH   3  12
ATOM     12  C   UNL     1     105.443 125.505 146.377  0.00  0.00    +0.000 A 
ATOM     13  C   UNL     1     105.464 126.074 145.780  0.00  0.00    +0.000 A 
ATOM     14  C   UNL     1     106.076 125.435 146.902  0.00  0.00    +0.000 A 
ATOM     15  C   UNL     1     106.729 125.932 146.830  0.00  0.00    +0.000 A 
ATOM     16  C   UNL     1     106.118 126.573 145.709  0.00  0.00    +0.000 A 
ATOM     17  C   UNL     1     106.751 126.502 146.233  0.00  0.00    +0.000 A 
BRANCH  15  18
ATOM     18  O   UNL     1     107.362 125.861 147.355  0.00  0.00    +0.000 OA
ATOM     19  C   UNL     1     107.439 125.184 147.819  0.00  0.00    +0.000 C 
ENDBRANCH  15  18
BRANCH  16  20
ATOM     20  O   UNL     1     106.139 127.142 145.112  0.00  0.00    +0.000 OA
ATOM     21  C   UNL     1     105.538 127.170 144.547  0.00  0.00    +0.000 C 
ENDBRANCH  16  20
BRANCH  17  22
ATOM     22  O   UNL     1     107.404 126.999 146.161  0.00  0.00    +0.000 OA
ATOM     23  C   UNL     1     107.406 127.734 146.537  0.00  0.00    +0.000 C 
ENDBRANCH  17  22
ENDBRANCH   3  12
BRANCH   8  24
ATOM     24  O   UNL     1     102.755 122.771 146.284  0.00  0.00    +0.000 OA
ATOM     25  C   UNL     1     102.483 122.739 145.507  0.00  0.00    +0.000 C 
ENDBRANCH   8  24
BRANCH  10  26
ATOM     26  O   UNL     1     101.483 123.220 147.235  0.00  0.00    +0.000 OA
ATOM     27  C   UNL     1     101.404 122.739 147.900  0.00  0.00    +0.000 C 
ENDBRANCH  10  26
BRANCH  11  28
ATOM     28  O   UNL     1     101.521 124.661 148.037  0.00  0.00    +0.000 OA
ATOM     29  C   UNL     1     101.533 125.389 148.426  0.00  0.00    +0.000 C 
ENDBRANCH  11  28
TORSDOF 7
ENDMDL
MODEL 8
REMARK VINA RESULT:      -6.7     12.365     13.457
REMARK  Name = 42608106
REMARK  7 active torsions:
REMARK  status: ('A' for Active; 'I' for Inactive)
REMARK    1  A    between atoms: O_2  and  C_15
REMARK    2  A    between atoms: O_4  and  C_19
REMARK    3  A    between atoms: O_5  and  C_20
REMARK    4  A    between atoms: O_6  and  C_21
REMARK    5  A    between atoms: O_7  and  C_22
REMARK    6  A    between atoms: O_8  and  C_23
REMARK    7  A    between atoms: C_9  and  C_11
REMARK                            x       y       z     vdW  Elec       q    Type
REMARK                         _______ _______ _______ _____ _____    ______ ____
ROOT
ATOM      1  O   UNL     1     104.336 125.486 146.180  0.00  0.00    +0.000 OA
ATOM      2  O   UNL     1     106.066 125.019 147.969  0.00  0.00    +0.000 OA
ATOM      3  C   UNL     1     104.157 124.919 146.802  0.00  0.00    +0.000 C 
ATOM      4  C   UNL     1     104.742 124.759 147.410  0.00  0.00    +0.000 C 
ATOM      5  C   UNL     1     105.659 125.730 146.760  0.00  0.00    +0.000 A 
ATOM      6  C   UNL     1     105.499 125.167 147.389  0.00  0.00    +0.000 C 
ATOM      7  C   UNL     1     105.097 125.884 146.176  0.00  0.00    +0.000 A 
ATOM      8  C   UNL     1     106.387 126.119 146.745  0.00  0.00    +0.000 A 
ATOM      9  C   UNL     1     105.263 126.426 145.577  0.00  0.00    +0.000 A 
ATOM     10  C   UNL     1     106.552 126.661 146.145  0.00  0.00    +0.000 A 
ATOM     11  C   UNL     1     105.990 126.815 145.561  0.00  0.00    +0.000 A 
ENDROOT
BRANCH   3  12
ATOM     12  C   UNL     1     103.429 124.532 146.815  0.00  0.00    +0.000 A 
ATOM     13  C   UNL     1     102.831 124.794 147.319  0.00  0.00    +0.000 A 
ATOM     14  C   UNL     1     103.298 123.882 146.323  0.00  0.00    +0.000 A 
ATOM     15  C   UNL     1     102.571 123.495 146.335  0.00  0.00    +0.000 A 
ATOM     16  C   UNL     1     102.102 124.406 147.331  0.00  0.00    +0.000 A 
ATOM     17  C   UNL     1     101.972 123.757 146.839  0.00  0.00    +0.000 A 
BRANCH  15  18
ATOM     18  O   UNL     1     102.441 122.846 145.844  0.00  0.00    +0.000 OA
ATOM     19  C   UNL     1     102.904 122.739 145.169  0.00  0.00    +0.000 C 
ENDBRANCH  15  18
BRANCH  16  20
ATOM     20  O   UNL     1     101.504 124.668 147.835  0.00  0.00    +0.000 OA
ATOM     21  C   UNL     1     101.553 125.417 148.179  0.00  0.00    +0.000 C 
ENDBRANCH  16  20
BRANCH  17  22
ATOM     22  O   UNL     1     101.245 123.369 146.852  0.00  0.00    +0.000 OA
ATOM     23  C   UNL     1     101.122 122.739 147.370  0.00  0.00    +0.000 C 
ENDBRANCH  17  22
ENDBRANCH   3  12
BRANCH   8  24
ATOM     24  O   UNL     1     106.949 125.965 147.329  0.00  0.00    +0.000 OA
ATOM     25  C   UNL     1     107.435 125.301 147.269  0.00  0.00    +0.000 C 
ENDBRANCH   8  24
BRANCH  10  26
ATOM     26  O   UNL     1     107.280 127.050 146.130  0.00  0.00    +0.000 OA
ATOM     27  C   UNL     1     107.339 127.824 146.407  0.00  0.00    +0.000 C 
ENDBRANCH  10  26
BRANCH  11  28
ATOM     28  O   UNL     1     106.156 127.357 144.962  0.00  0.00    +0.000 OA
ATOM     29  C   UNL     1     105.695 127.370 144.278  0.00  0.00    +0.000 C 
ENDBRANCH  11  28
TORSDOF 7
ENDMDL
MODEL 9
REMARK VINA RESULT:      -6.6      1.726      5.194
REMARK  Name = 42608106
REMARK  7 active torsions:
REMARK  status: ('A' for Active; 'I' for Inactive)
REMARK    1  A    between atoms: O_2  and  C_15
REMARK    2  A    between atoms: O_4  and  C_19
REMARK    3  A    between atoms: O_5  and  C_20
REMARK    4  A    between atoms: O_6  and  C_21
REMARK    5  A    between atoms: O_7  and  C_22
REMARK    6  A    between atoms: O_8  and  C_23
REMARK    7  A    between atoms: C_9  and  C_11
REMARK                            x       y       z     vdW  Elec       q    Type
REMARK                         _______ _______ _______ _____ _____    ______ ____
ROOT
ATOM      1  O   UNL     1     112.344 126.908 138.432  0.00  0.00    +0.000 OA
ATOM      2  O   UNL     1     114.446 125.500 138.341  0.00  0.00    +0.000 OA
ATOM      3  C   UNL     1     113.027 127.140 138.899  0.00  0.00    +0.000 C 
ATOM      4  C   UNL     1     113.742 126.664 138.870  0.00  0.00    +0.000 C 
ATOM      5  C   UNL     1     113.071 125.746 137.915  0.00  0.00    +0.000 A 
ATOM      6  C   UNL     1     113.764 125.962 138.374  0.00  0.00    +0.000 C 
ATOM      7  C   UNL     1     112.385 126.203 137.943  0.00  0.00    +0.000 A 
ATOM      8  C   UNL     1     113.098 125.071 137.441  0.00  0.00    +0.000 A 
ATOM      9  C   UNL     1     111.726 125.985 137.496  0.00  0.00    +0.000 A 
ATOM     10  C   UNL     1     112.439 124.854 136.995  0.00  0.00    +0.000 A 
ATOM     11  C   UNL     1     111.753 125.311 137.023  0.00  0.00    +0.000 A 
ENDROOT
BRANCH   3  12
ATOM     12  C   UNL     1     112.997 127.816 139.372  0.00  0.00    +0.000 A 
ATOM     13  C   UNL     1     112.781 127.754 140.166  0.00  0.00    +0.000 A 
ATOM     14  C   UNL     1     113.183 128.553 139.051  0.00  0.00    +0.000 A 
ATOM     15  C   UNL     1     113.153 129.227 139.523  0.00  0.00    +0.000 A 
ATOM     16  C   UNL     1     112.751 128.430 140.638  0.00  0.00    +0.000 A 
ATOM     17  C   UNL     1     112.937 129.167 140.318  0.00  0.00    +0.000 A 
BRANCH  15  18
ATOM     18  O   UNL     1     113.340 129.964 139.202  0.00  0.00    +0.000 OA
ATOM     19  C   UNL     1     113.248 130.097 138.393  0.00  0.00    +0.000 C 
ENDBRANCH  15  18
BRANCH  16  20
ATOM     20  O   UNL     1     112.535 128.369 141.432  0.00  0.00    +0.000 OA
ATOM     21  C   UNL     1     112.021 127.771 141.675  0.00  0.00    +0.000 C 
ENDBRANCH  16  20
BRANCH  17  22
ATOM     22  O   UNL     1     112.907 129.842 140.790  0.00  0.00    +0.000 OA
ATOM     23  C   UNL     1     113.579 130.087 141.201  0.00  0.00    +0.000 C 
ENDBRANCH  17  22
ENDBRANCH   3  12
BRANCH   8  24
ATOM     24  O   UNL     1     113.785 124.614 137.413  0.00  0.00    +0.000 OA
ATOM     25  C   UNL     1     114.412 124.842 136.930  0.00  0.00    +0.000 C 
ENDBRANCH   8  24
BRANCH  10  26
ATOM     26  O   UNL     1     112.467 124.178 136.521  0.00  0.00    +0.000 OA
ATOM     27  C   UNL     1     112.141 123.471 136.792  0.00  0.00    +0.000 C 
ENDBRANCH  10  26
BRANCH  11  28
ATOM     28  O   UNL     1     111.094 125.092 136.576  0.00  0.00    +0.000 OA
ATOM     29  C   UNL     1     110.543 125.663 136.350  0.00  0.00    +0.000 C 
ENDBRANCH  11  28
TORSDOF 7
ENDMDL
