MODEL 1
REMARK VINA RESULT:      -8.6      0.000      0.000
REMARK  Name = 5378220
REMARK  2 active torsions:
REMARK  status: ('A' for Active; 'I' for Inactive)
REMARK    1  A    between atoms: O_2  and  C_17
REMARK    2  A    between atoms: C_6  and  C_8
REMARK                            x       y       z     vdW  Elec       q    Type
REMARK                         _______ _______ _______ _____ _____    ______ ____
ROOT
ATOM      1  O   UNL     1     105.599 124.427 147.762  0.00  0.00    +0.000 OA
ATOM      2  O   UNL     1     106.982 125.565 146.054  0.00  0.00    +0.000 OA
ATOM      3  O   UNL     1     107.849 124.426 149.611  0.00  0.00    +0.000 OA
ATOM      4  C   UNL     1     105.274 124.615 147.027  0.00  0.00    +0.000 A 
ATOM      5  C   UNL     1     106.844 124.998 147.358  0.00  0.00    +0.000 A 
ATOM      6  C   UNL     1     106.383 124.619 147.928  0.00  0.00    +0.000 A 
ATOM      7  C   UNL     1     105.735 124.994 146.458  0.00  0.00    +0.000 A 
ATOM      8  C   UNL     1     106.521 125.186 146.623  0.00  0.00    +0.000 A 
ATOM      9  C   UNL     1     107.664 125.203 147.519  0.00  0.00    +0.000 A 
ATOM     10  C   UNL     1     106.710 124.418 148.697  0.00  0.00    +0.000 A 
ATOM     11  C   UNL     1     107.527 124.615 148.875  0.00  0.00    +0.000 A 
ATOM     12  C   UNL     1     108.007 125.010 148.282  0.00  0.00    +0.000 A 
ENDROOT
BRANCH   4  14
ATOM     13  O   UNL     1     103.355 122.905 145.778  0.00  0.00    +0.000 OA
ATOM     14  C   UNL     1     104.490 124.423 146.861  0.00  0.00    +0.000 A 
ATOM     15  C   UNL     1     104.315 123.760 146.403  0.00  0.00    +0.000 A 
ATOM     16  C   UNL     1     103.878 124.894 147.154  0.00  0.00    +0.000 A 
ATOM     17  C   UNL     1     103.529 123.568 146.237  0.00  0.00    +0.000 A 
ATOM     18  C   UNL     1     102.919 124.039 146.530  0.00  0.00    +0.000 A 
ATOM     19  C   UNL     1     103.094 124.703 146.989  0.00  0.00    +0.000 A 
BRANCH  18  20
ATOM     20  O   UNL     1     102.134 123.847 146.364  0.00  0.00    +0.000 OA
ATOM     21  C   UNL     1     101.522 124.243 146.752  0.00  0.00    +0.000 C 
ENDBRANCH  18  20
ENDBRANCH   4  14
TORSDOF 2
ENDMDL
MODEL 2
REMARK VINA RESULT:      -8.4      7.342      8.360
REMARK  Name = 5378220
REMARK  2 active torsions:
REMARK  status: ('A' for Active; 'I' for Inactive)
REMARK    1  A    between atoms: O_2  and  C_17
REMARK    2  A    between atoms: C_6  and  C_8
REMARK                            x       y       z     vdW  Elec       q    Type
REMARK                         _______ _______ _______ _____ _____    ______ ____
ROOT
ATOM      1  O   UNL     1     104.552 124.622 139.403  0.00  0.00    +0.000 OA
ATOM      2  O   UNL     1     105.834 122.787 140.459  0.00  0.00    +0.000 OA
ATOM      3  O   UNL     1     105.712 126.533 141.269  0.00  0.00    +0.000 OA
ATOM      4  C   UNL     1     104.478 123.850 139.118  0.00  0.00    +0.000 A 
ATOM      5  C   UNL     1     105.480 124.169 140.390  0.00  0.00    +0.000 A 
ATOM      6  C   UNL     1     105.052 124.781 140.038  0.00  0.00    +0.000 A 
ATOM      7  C   UNL     1     104.905 123.239 139.470  0.00  0.00    +0.000 A 
ATOM      8  C   UNL     1     105.407 123.398 140.107  0.00  0.00    +0.000 A 
ATOM      9  C   UNL     1     106.005 124.323 141.053  0.00  0.00    +0.000 A 
ATOM     10  C   UNL     1     105.120 125.589 140.325  0.00  0.00    +0.000 A 
ATOM     11  C   UNL     1     105.640 125.761 140.987  0.00  0.00    +0.000 A 
ATOM     12  C   UNL     1     106.085 125.124 141.353  0.00  0.00    +0.000 A 
ENDROOT
BRANCH   4  14
ATOM     13  O   UNL     1     101.840 123.622 138.043  0.00  0.00    +0.000 OA
ATOM     14  C   UNL     1     103.977 123.691 138.483  0.00  0.00    +0.000 A 
ATOM     15  C   UNL     1     103.160 123.736 138.581  0.00  0.00    +0.000 A 
ATOM     16  C   UNL     1     104.294 123.486 137.749  0.00  0.00    +0.000 A 
ATOM     17  C   UNL     1     102.658 123.577 137.945  0.00  0.00    +0.000 A 
ATOM     18  C   UNL     1     102.976 123.372 137.212  0.00  0.00    +0.000 A 
ATOM     19  C   UNL     1     103.793 123.326 137.114  0.00  0.00    +0.000 A 
BRANCH  18  20
ATOM     20  O   UNL     1     102.474 123.212 136.575  0.00  0.00    +0.000 OA
ATOM     21  C   UNL     1     102.774 122.856 135.894  0.00  0.00    +0.000 C 
ENDBRANCH  18  20
ENDBRANCH   4  14
TORSDOF 2
ENDMDL
MODEL 3
REMARK VINA RESULT:      -8.1     11.166     12.326
REMARK  Name = 5378220
REMARK  2 active torsions:
REMARK  status: ('A' for Active; 'I' for Inactive)
REMARK    1  A    between atoms: O_2  and  C_17
REMARK    2  A    between atoms: C_6  and  C_8
REMARK                            x       y       z     vdW  Elec       q    Type
REMARK                         _______ _______ _______ _____ _____    ______ ____
ROOT
ATOM      1  O   UNL     1     111.991 125.809 136.982  0.00  0.00    +0.000 OA
ATOM      2  O   UNL     1     111.887 123.484 136.140  0.00  0.00    +0.000 OA
ATOM      3  O   UNL     1     114.746 125.399 137.832  0.00  0.00    +0.000 OA
ATOM      4  C   UNL     1     111.298 125.527 136.635  0.00  0.00    +0.000 A 
ATOM      5  C   UNL     1     112.614 124.542 136.768  0.00  0.00    +0.000 A 
ATOM      6  C   UNL     1     112.649 125.317 137.049  0.00  0.00    +0.000 A 
ATOM      7  C   UNL     1     111.263 124.752 136.354  0.00  0.00    +0.000 A 
ATOM      8  C   UNL     1     111.922 124.259 136.421  0.00  0.00    +0.000 A 
ATOM      9  C   UNL     1     113.294 124.019 136.832  0.00  0.00    +0.000 A 
ATOM     10  C   UNL     1     113.366 125.622 137.412  0.00  0.00    +0.000 A 
ATOM     11  C   UNL     1     114.054 125.114 137.484  0.00  0.00    +0.000 A 
ATOM     12  C   UNL     1     114.018 124.307 137.192  0.00  0.00    +0.000 A 
ENDROOT
BRANCH   4  14
ATOM     13  O   UNL     1     108.926 126.654 137.763  0.00  0.00    +0.000 OA
ATOM     14  C   UNL     1     110.640 126.019 136.568  0.00  0.00    +0.000 A 
ATOM     15  C   UNL     1     110.112 126.090 137.199  0.00  0.00    +0.000 A 
ATOM     16  C   UNL     1     110.508 126.441 135.872  0.00  0.00    +0.000 A 
ATOM     17  C   UNL     1     109.453 126.583 137.132  0.00  0.00    +0.000 A 
ATOM     18  C   UNL     1     109.323 127.005 136.435  0.00  0.00    +0.000 A 
ATOM     19  C   UNL     1     109.850 126.934 135.805  0.00  0.00    +0.000 A 
BRANCH  18  20
ATOM     20  O   UNL     1     108.664 127.498 136.369  0.00  0.00    +0.000 OA
ATOM     21  C   UNL     1     108.633 128.066 135.772  0.00  0.00    +0.000 C 
ENDBRANCH  18  20
ENDBRANCH   4  14
TORSDOF 2
ENDMDL
MODEL 4
REMARK VINA RESULT:      -7.8      0.926      4.432
REMARK  Name = 5378220
REMARK  2 active torsions:
REMARK  status: ('A' for Active; 'I' for Inactive)
REMARK    1  A    between atoms: O_2  and  C_17
REMARK    2  A    between atoms: C_6  and  C_8
REMARK                            x       y       z     vdW  Elec       q    Type
REMARK                         _______ _______ _______ _____ _____    ______ ____
ROOT
ATOM      1  O   UNL     1     104.322 124.102 146.604  0.00  0.00    +0.000 OA
ATOM      2  O   UNL     1     102.777 125.297 148.125  0.00  0.00    +0.000 OA
ATOM      3  O   UNL     1     102.071 122.739 145.356  0.00  0.00    +0.000 OA
ATOM      4  C   UNL     1     104.620 124.633 147.161  0.00  0.00    +0.000 A 
ATOM      5  C   UNL     1     102.995 124.368 147.062  0.00  0.00    +0.000 A 
ATOM      6  C   UNL     1     103.509 123.969 146.555  0.00  0.00    +0.000 A 
ATOM      7  C   UNL     1     104.105 125.031 147.668  0.00  0.00    +0.000 A 
ATOM      8  C   UNL     1     103.292 124.899 147.618  0.00  0.00    +0.000 A 
ATOM      9  C   UNL     1     102.146 124.237 147.019  0.00  0.00    +0.000 A 
ATOM     10  C   UNL     1     103.211 123.414 145.970  0.00  0.00    +0.000 A 
ATOM     11  C   UNL     1     102.366 123.271 145.914  0.00  0.00    +0.000 A 
ATOM     12  C   UNL     1     101.830 123.686 146.442  0.00  0.00    +0.000 A 
ENDROOT
BRANCH   4  14
ATOM     13  O   UNL     1     107.072 125.455 145.945  0.00  0.00    +0.000 OA
ATOM     14  C   UNL     1     105.432 124.766 147.211  0.00  0.00    +0.000 A 
ATOM     15  C   UNL     1     105.846 125.044 146.553  0.00  0.00    +0.000 A 
ATOM     16  C   UNL     1     105.832 124.622 147.918  0.00  0.00    +0.000 A 
ATOM     17  C   UNL     1     106.659 125.177 146.602  0.00  0.00    +0.000 A 
ATOM     18  C   UNL     1     107.058 125.032 147.310  0.00  0.00    +0.000 A 
ATOM     19  C   UNL     1     106.644 124.755 147.968  0.00  0.00    +0.000 A 
BRANCH  18  20
ATOM     20  O   UNL     1     107.871 125.165 147.360  0.00  0.00    +0.000 OA
ATOM     21  C   UNL     1     108.276 124.984 148.054  0.00  0.00    +0.000 C 
ENDBRANCH  18  20
ENDBRANCH   4  14
TORSDOF 2
ENDMDL
MODEL 5
REMARK VINA RESULT:      -7.7     11.971     13.096
REMARK  Name = 5378220
REMARK  2 active torsions:
REMARK  status: ('A' for Active; 'I' for Inactive)
REMARK    1  A    between atoms: O_2  and  C_17
REMARK    2  A    between atoms: C_6  and  C_8
REMARK                            x       y       z     vdW  Elec       q    Type
REMARK                         _______ _______ _______ _____ _____    ______ ____
ROOT
ATOM      1  O   UNL     1     110.926 126.334 136.564  0.00  0.00    +0.000 OA
ATOM      2  O   UNL     1     109.668 125.477 134.612  0.00  0.00    +0.000 OA
ATOM      3  O   UNL     1     108.962 128.454 136.924  0.00  0.00    +0.000 OA
ATOM      4  C   UNL     1     111.201 125.672 136.155  0.00  0.00    +0.000 A 
ATOM      5  C   UNL     1     109.813 126.424 135.673  0.00  0.00    +0.000 A 
ATOM      6  C   UNL     1     110.233 126.710 136.324  0.00  0.00    +0.000 A 
ATOM      7  C   UNL     1     110.782 125.387 135.504  0.00  0.00    +0.000 A 
ATOM      8  C   UNL     1     110.088 125.763 135.263  0.00  0.00    +0.000 A 
ATOM      9  C   UNL     1     109.089 126.807 135.412  0.00  0.00    +0.000 A 
ATOM     10  C   UNL     1     109.956 127.398 136.759  0.00  0.00    +0.000 A 
ATOM     11  C   UNL     1     109.235 127.793 136.512  0.00  0.00    +0.000 A 
ATOM     12  C   UNL     1     108.798 127.496 135.835  0.00  0.00    +0.000 A 
ENDROOT
BRANCH   4  14
ATOM     13  O   UNL     1     112.545 123.345 137.127  0.00  0.00    +0.000 OA
ATOM     14  C   UNL     1     111.894 125.297 136.396  0.00  0.00    +0.000 A 
ATOM     15  C   UNL     1     111.873 124.509 136.641  0.00  0.00    +0.000 A 
ATOM     16  C   UNL     1     112.610 125.708 136.392  0.00  0.00    +0.000 A 
ATOM     17  C   UNL     1     112.567 124.133 136.882  0.00  0.00    +0.000 A 
ATOM     18  C   UNL     1     113.282 124.545 136.878  0.00  0.00    +0.000 A 
ATOM     19  C   UNL     1     113.303 125.332 136.633  0.00  0.00    +0.000 A 
BRANCH  18  20
ATOM     20  O   UNL     1     113.976 124.168 137.119  0.00  0.00    +0.000 OA
ATOM     21  C   UNL     1     114.683 124.591 137.153  0.00  0.00    +0.000 C 
ENDBRANCH  18  20
ENDBRANCH   4  14
TORSDOF 2
ENDMDL
MODEL 6
REMARK VINA RESULT:      -7.6     10.762     12.486
REMARK  Name = 5378220
REMARK  2 active torsions:
REMARK  status: ('A' for Active; 'I' for Inactive)
REMARK    1  A    between atoms: O_2  and  C_17
REMARK    2  A    between atoms: C_6  and  C_8
REMARK                            x       y       z     vdW  Elec       q    Type
REMARK                         _______ _______ _______ _____ _____    ______ ____
ROOT
ATOM      1  O   UNL     1     112.738 125.846 138.119  0.00  0.00    +0.000 OA
ATOM      2  O   UNL     1     115.024 125.036 137.625  0.00  0.00    +0.000 OA
ATOM      3  O   UNL     1     111.622 123.883 136.280  0.00  0.00    +0.000 OA
ATOM      4  C   UNL     1     113.388 126.195 138.489  0.00  0.00    +0.000 A 
ATOM      5  C   UNL     1     113.611 124.958 137.420  0.00  0.00    +0.000 A 
ATOM      6  C   UNL     1     112.849 125.228 137.585  0.00  0.00    +0.000 A 
ATOM      7  C   UNL     1     114.150 125.925 138.324  0.00  0.00    +0.000 A 
ATOM      8  C   UNL     1     114.262 125.306 137.790  0.00  0.00    +0.000 A 
ATOM      9  C   UNL     1     113.741 124.314 136.865  0.00  0.00    +0.000 A 
ATOM     10  C   UNL     1     112.164 124.873 137.206  0.00  0.00    +0.000 A 
ATOM     11  C   UNL     1     112.274 124.229 136.649  0.00  0.00    +0.000 A 
ATOM     12  C   UNL     1     113.068 123.948 136.477  0.00  0.00    +0.000 A 
ENDROOT
BRANCH   4  14
ATOM     13  O   UNL     1     112.958 128.973 139.005  0.00  0.00    +0.000 OA
ATOM     14  C   UNL     1     113.276 126.813 139.023  0.00  0.00    +0.000 A 
ATOM     15  C   UNL     1     113.173 127.583 138.747  0.00  0.00    +0.000 A 
ATOM     16  C   UNL     1     113.267 126.662 139.834  0.00  0.00    +0.000 A 
ATOM     17  C   UNL     1     113.061 128.202 139.281  0.00  0.00    +0.000 A 
ATOM     18  C   UNL     1     113.053 128.050 140.092  0.00  0.00    +0.000 A 
ATOM     19  C   UNL     1     113.156 127.280 140.369  0.00  0.00    +0.000 A 
BRANCH  18  20
ATOM     20  O   UNL     1     112.941 128.669 140.627  0.00  0.00    +0.000 OA
ATOM     21  C   UNL     1     112.902 128.513 141.436  0.00  0.00    +0.000 C 
ENDBRANCH  18  20
ENDBRANCH   4  14
TORSDOF 2
ENDMDL
MODEL 7
REMARK VINA RESULT:      -7.6      8.932     10.008
REMARK  Name = 5378220
REMARK  2 active torsions:
REMARK  status: ('A' for Active; 'I' for Inactive)
REMARK    1  A    between atoms: O_2  and  C_17
REMARK    2  A    between atoms: C_6  and  C_8
REMARK                            x       y       z     vdW  Elec       q    Type
REMARK                         _______ _______ _______ _____ _____    ______ ____
ROOT
ATOM      1  O   UNL     1     102.764 132.000 141.232  0.00  0.00    +0.000 OA
ATOM      2  O   UNL     1     100.712 132.172 142.604  0.00  0.00    +0.000 OA
ATOM      3  O   UNL     1     102.802 134.892 140.890  0.00  0.00    +0.000 OA
ATOM      4  C   UNL     1     102.417 131.319 141.542  0.00  0.00    +0.000 A 
ATOM      5  C   UNL     1     101.744 132.796 141.837  0.00  0.00    +0.000 A 
ATOM      6  C   UNL     1     102.428 132.738 141.379  0.00  0.00    +0.000 A 
ATOM      7  C   UNL     1     101.733 131.376 141.999  0.00  0.00    +0.000 A 
ATOM      8  C   UNL     1     101.396 132.115 142.147  0.00  0.00    +0.000 A 
ATOM      9  C   UNL     1     101.383 133.559 141.997  0.00  0.00    +0.000 A 
ATOM     10  C   UNL     1     102.799 133.441 141.051  0.00  0.00    +0.000 A 
ATOM     11  C   UNL     1     102.453 134.212 141.201  0.00  0.00    +0.000 A 
ATOM     12  C   UNL     1     101.740 134.272 141.678  0.00  0.00    +0.000 A 
ENDROOT
BRANCH   4  14
ATOM     13  O   UNL     1     102.702 129.018 139.870  0.00  0.00    +0.000 OA
ATOM     14  C   UNL     1     102.754 130.581 141.394  0.00  0.00    +0.000 A 
ATOM     15  C   UNL     1     102.560 130.169 140.706  0.00  0.00    +0.000 A 
ATOM     16  C   UNL     1     103.285 130.253 141.934  0.00  0.00    +0.000 A 
ATOM     17  C   UNL     1     102.896 129.430 140.558  0.00  0.00    +0.000 A 
ATOM     18  C   UNL     1     103.427 129.103 141.099  0.00  0.00    +0.000 A 
ATOM     19  C   UNL     1     103.622 129.515 141.787  0.00  0.00    +0.000 A 
BRANCH  18  20
ATOM     20  O   UNL     1     103.764 128.364 140.951  0.00  0.00    +0.000 OA
ATOM     21  C   UNL     1     104.389 128.095 141.418  0.00  0.00    +0.000 C 
ENDBRANCH  18  20
ENDBRANCH   4  14
TORSDOF 2
ENDMDL
MODEL 8
REMARK VINA RESULT:      -7.6      0.864      1.533
REMARK  Name = 5378220
REMARK  2 active torsions:
REMARK  status: ('A' for Active; 'I' for Inactive)
REMARK    1  A    between atoms: O_2  and  C_17
REMARK    2  A    between atoms: C_6  and  C_8
REMARK                            x       y       z     vdW  Elec       q    Type
REMARK                         _______ _______ _______ _____ _____    ______ ____
ROOT
ATOM      1  O   UNL     1     105.306 124.674 147.047  0.00  0.00    +0.000 OA
ATOM      2  O   UNL     1     105.349 124.627 149.521  0.00  0.00    +0.000 OA
ATOM      3  O   UNL     1     108.105 125.479 146.994  0.00  0.00    +0.000 OA
ATOM      4  C   UNL     1     104.626 124.469 147.467  0.00  0.00    +0.000 A 
ATOM      5  C   UNL     1     106.014 124.848 148.275  0.00  0.00    +0.000 A 
ATOM      6  C   UNL     1     106.000 124.863 147.451  0.00  0.00    +0.000 A 
ATOM      7  C   UNL     1     104.640 124.453 148.292  0.00  0.00    +0.000 A 
ATOM      8  C   UNL     1     105.335 124.643 148.696  0.00  0.00    +0.000 A 
ATOM      9  C   UNL     1     106.731 125.043 148.708  0.00  0.00    +0.000 A 
ATOM     10  C   UNL     1     106.701 125.076 147.001  0.00  0.00    +0.000 A 
ATOM     11  C   UNL     1     107.426 125.274 147.417  0.00  0.00    +0.000 A 
ATOM     12  C   UNL     1     107.441 125.257 148.275  0.00  0.00    +0.000 A 
ENDROOT
BRANCH   4  14
ATOM     13  O   UNL     1     103.294 123.088 145.349  0.00  0.00    +0.000 OA
ATOM     14  C   UNL     1     103.933 124.280 147.063  0.00  0.00    +0.000 A 
ATOM     15  C   UNL     1     103.961 123.779 146.408  0.00  0.00    +0.000 A 
ATOM     16  C   UNL     1     103.211 124.591 147.313  0.00  0.00    +0.000 A 
ATOM     17  C   UNL     1     103.267 123.589 146.004  0.00  0.00    +0.000 A 
ATOM     18  C   UNL     1     102.545 123.900 146.255  0.00  0.00    +0.000 A 
ATOM     19  C   UNL     1     102.517 124.401 146.910  0.00  0.00    +0.000 A 
BRANCH  18  20
ATOM     20  O   UNL     1     101.851 123.711 145.850  0.00  0.00    +0.000 OA
ATOM     21  C   UNL     1     101.118 123.892 146.182  0.00  0.00    +0.000 C 
ENDBRANCH  18  20
ENDBRANCH   4  14
TORSDOF 2
ENDMDL
MODEL 9
REMARK VINA RESULT:      -7.5     12.926     14.146
REMARK  Name = 5378220
REMARK  2 active torsions:
REMARK  status: ('A' for Active; 'I' for Inactive)
REMARK    1  A    between atoms: O_2  and  C_17
REMARK    2  A    between atoms: C_6  and  C_8
REMARK                            x       y       z     vdW  Elec       q    Type
REMARK                         _______ _______ _______ _____ _____    ______ ____
ROOT
ATOM      1  O   UNL     1     113.895 127.504 136.040  0.00  0.00    +0.000 OA
ATOM      2  O   UNL     1     112.860 128.938 137.771  0.00  0.00    +0.000 OA
ATOM      3  O   UNL     1     114.852 129.864 134.628  0.00  0.00    +0.000 OA
ATOM      4  C   UNL     1     113.490 127.160 136.672  0.00  0.00    +0.000 A 
ATOM      5  C   UNL     1     113.610 128.802 136.563  0.00  0.00    +0.000 A 
ATOM      6  C   UNL     1     113.955 128.324 135.985  0.00  0.00    +0.000 A 
ATOM      7  C   UNL     1     113.145 127.639 137.249  0.00  0.00    +0.000 A 
ATOM      8  C   UNL     1     113.205 128.460 137.194  0.00  0.00    +0.000 A 
ATOM      9  C   UNL     1     113.666 129.659 136.517  0.00  0.00    +0.000 A 
ATOM     10  C   UNL     1     114.380 128.670 135.322  0.00  0.00    +0.000 A 
ATOM     11  C   UNL     1     114.446 129.524 135.260  0.00  0.00    +0.000 A 
ATOM     12  C   UNL     1     114.087 130.022 135.861  0.00  0.00    +0.000 A 
ENDROOT
BRANCH   4  14
ATOM     13  O   UNL     1     114.632 124.637 137.376  0.00  0.00    +0.000 OA
ATOM     14  C   UNL     1     113.430 126.340 136.726  0.00  0.00    +0.000 A 
ATOM     15  C   UNL     1     114.061 125.899 137.024  0.00  0.00    +0.000 A 
ATOM     16  C   UNL     1     112.739 125.959 136.484  0.00  0.00    +0.000 A 
ATOM     17  C   UNL     1     114.001 125.078 137.079  0.00  0.00    +0.000 A 
ATOM     18  C   UNL     1     113.310 124.698 136.836  0.00  0.00    +0.000 A 
ATOM     19  C   UNL     1     112.679 125.139 136.538  0.00  0.00    +0.000 A 
BRANCH  18  20
ATOM     20  O   UNL     1     113.250 123.876 136.891  0.00  0.00    +0.000 OA
ATOM     21  C   UNL     1     112.509 123.515 136.866  0.00  0.00    +0.000 C 
ENDBRANCH  18  20
ENDBRANCH   4  14
TORSDOF 2
ENDMDL
MODEL 10
REMARK VINA RESULT:      -7.5     12.390     13.101
REMARK  Name = 5378220
REMARK  2 active torsions:
REMARK  status: ('A' for Active; 'I' for Inactive)
REMARK    1  A    between atoms: O_2  and  C_17
REMARK    2  A    between atoms: C_6  and  C_8
REMARK                            x       y       z     vdW  Elec       q    Type
REMARK                         _______ _______ _______ _____ _____    ______ ____
ROOT
ATOM      1  O   UNL     1     110.579 127.164 136.070  0.00  0.00    +0.000 OA
ATOM      2  O   UNL     1     109.733 125.350 134.613  0.00  0.00    +0.000 OA
ATOM      3  O   UNL     1     112.395 125.298 137.372  0.00  0.00    +0.000 OA
ATOM      4  C   UNL     1     109.993 127.324 135.511  0.00  0.00    +0.000 A 
ATOM      5  C   UNL     1     110.600 125.796 135.658  0.00  0.00    +0.000 A 
ATOM      6  C   UNL     1     110.882 126.401 136.144  0.00  0.00    +0.000 A 
ATOM      7  C   UNL     1     109.711 126.719 135.025  0.00  0.00    +0.000 A 
ATOM      8  C   UNL     1     110.015 125.955 135.099  0.00  0.00    +0.000 A 
ATOM      9  C   UNL     1     110.908 124.997 135.726  0.00  0.00    +0.000 A 
ATOM     10  C   UNL     1     111.491 126.247 136.730  0.00  0.00    +0.000 A 
ATOM     11  C   UNL     1     111.810 125.454 136.812  0.00  0.00    +0.000 A 
ATOM     12  C   UNL     1     111.517 124.825 136.307  0.00  0.00    +0.000 A 
ENDROOT
BRANCH   4  14
ATOM     13  O   UNL     1     107.958 129.245 136.088  0.00  0.00    +0.000 OA
ATOM     14  C   UNL     1     109.690 128.087 135.437  0.00  0.00    +0.000 A 
ATOM     15  C   UNL     1     108.976 128.284 135.799  0.00  0.00    +0.000 A 
ATOM     16  C   UNL     1     110.101 128.654 135.000  0.00  0.00    +0.000 A 
ATOM     17  C   UNL     1     108.672 129.048 135.725  0.00  0.00    +0.000 A 
ATOM     18  C   UNL     1     109.084 129.614 135.289  0.00  0.00    +0.000 A 
ATOM     19  C   UNL     1     109.798 129.417 134.926  0.00  0.00    +0.000 A 
BRANCH  18  20
ATOM     20  O   UNL     1     108.780 130.378 135.215  0.00  0.00    +0.000 OA
ATOM     21  C   UNL     1     109.191 130.945 134.778  0.00  0.00    +0.000 C 
ENDBRANCH  18  20
ENDBRANCH   4  14
TORSDOF 2
ENDMDL
