MODEL 1
REMARK VINA RESULT:      -9.4      0.000      0.000
REMARK  Name = 44257624
REMARK  10 active torsions:
REMARK  status: ('A' for Active; 'I' for Inactive)
REMARK    1  A    between atoms: O_2  and  C_18
REMARK    2  A    between atoms: O_2  and  C_20
REMARK    3  A    between atoms: O_6  and  C_19
REMARK    4  A    between atoms: O_6  and  C_25
REMARK    5  A    between atoms: C_16  and  C_19
REMARK    6  A    between atoms: C_23  and  C_24
REMARK    7  A    between atoms: C_23  and  C_29
REMARK    8  A    between atoms: C_24  and  C_25
REMARK    9  A    between atoms: C_29  and  C_36
REMARK   10  A    between atoms: C_34  and  C_37
REMARK                            x       y       z     vdW  Elec       q    Type
REMARK                         _______ _______ _______ _____ _____    ______ ____
ROOT
ATOM      1  O   UNL     1     110.424 128.389 135.450  0.00  0.00    +0.000 OA
ENDROOT
BRANCH   1   5
ATOM      2  O   UNL     1     112.730 126.941 136.395  0.00  0.00    +0.000 OA
ATOM      3  O   UNL     1     113.032 129.493 135.062  0.00  0.00    +0.000 OA
ATOM      4  O   UNL     1     114.212 128.800 135.521  0.00  0.00    +0.000 OA
ATOM      5  C   UNL     1     111.243 128.337 135.540  0.00  0.00    +0.000 A 
ATOM      6  C   UNL     1     111.577 127.681 135.914  0.00  0.00    +0.000 A 
ATOM      7  C   UNL     1     111.728 128.940 135.256  0.00  0.00    +0.000 A 
ATOM      8  C   UNL     1     112.395 127.629 136.004  0.00  0.00    +0.000 A 
ATOM      9  C   UNL     1     112.547 128.889 135.346  0.00  0.00    +0.000 A 
ATOM     10  C   UNL     1     112.880 128.234 135.720  0.00  0.00    +0.000 A 
ATOM     11  C   UNL     1     111.091 127.077 136.198  0.00  0.00    +0.000 C 
ATOM     12  C   UNL     1     111.395 129.596 134.882  0.00  0.00    +0.000 C 
ATOM     13  C   UNL     1     113.733 128.191 135.808  0.00  0.00    +0.000 A 
ATOM     14  C   UNL     1     113.582 126.882 136.492  0.00  0.00    +0.000 A 
ATOM     15  C   UNL     1     114.087 127.511 136.196  0.00  0.00    +0.000 A 
BRANCH  14  16
ATOM     16  C   UNL     1     113.912 126.225 136.866  0.00  0.00    +0.000 A 
ATOM     17  C   UNL     1     113.895 126.167 137.689  0.00  0.00    +0.000 A 
ATOM     18  C   UNL     1     114.260 125.627 136.418  0.00  0.00    +0.000 A 
ATOM     19  C   UNL     1     114.226 125.511 138.063  0.00  0.00    +0.000 A 
ATOM     20  C   UNL     1     114.591 124.970 136.791  0.00  0.00    +0.000 A 
ATOM     21  C   UNL     1     114.574 124.912 137.614  0.00  0.00    +0.000 A 
ENDBRANCH  14  16
ENDBRANCH   1   5
BRANCH   1  30
ATOM     22  O   UNL     1     110.278 128.937 136.761  0.00  0.00    +0.000 OA
ATOM     23  O   UNL     1     108.618 130.016 137.681  0.00  0.00    +0.000 OA
ATOM     24  O   UNL     1     108.009 129.734 136.174  0.00  0.00    +0.000 OA
ATOM     25  O   UNL     1     108.912 128.920 135.058  0.00  0.00    +0.000 OA
ATOM     26  C   UNL     1     109.070 129.609 137.123  0.00  0.00    +0.000 C 
ATOM     27  C   UNL     1     108.765 129.468 136.370  0.00  0.00    +0.000 C 
ATOM     28  C   UNL     1     109.827 129.343 137.319  0.00  0.00    +0.000 C 
ATOM     29  C   UNL     1     109.217 129.061 135.812  0.00  0.00    +0.000 C 
ATOM     30  C   UNL     1     109.973 128.795 136.007  0.00  0.00    +0.000 C 
BRANCH  28  31
ATOM     31  C   UNL     1     110.131 129.485 138.073  0.00  0.00    +0.000 C 
BRANCH  31  32
ATOM     32  O   UNL     1     110.854 129.870 138.161  0.00  0.00    +0.000 OA
BRANCH  32  34
ATOM     33  O   UNL     1     111.130 129.153 139.366  0.00  0.00    +0.000 OA
ATOM     34  C   UNL     1     111.285 129.786 138.860  0.00  0.00    +0.000 C 
BRANCH  34  35
ATOM     35  C   UNL     1     111.868 130.335 139.054  0.00  0.00    +0.000 C 
BRANCH  35  37
ATOM     36  O   UNL     1     112.710 130.589 138.287  0.00  0.00    +0.000 OA
ATOM     37  C   UNL     1     112.665 130.137 138.975  0.00  0.00    +0.000 C 
ATOM     38  C   UNL     1     112.620 129.685 139.664  0.00  0.00    +0.000 C 
BRANCH  37  39
ATOM     39  C   UNL     1     113.462 129.938 138.897  0.00  0.00    +0.000 C 
BRANCH  39  42
ATOM     40  O   UNL     1     114.392 130.745 138.173  0.00  0.00    +0.000 OA
ATOM     41  O   UNL     1     114.251 130.910 139.586  0.00  0.00    +0.000 OA
ATOM     42  C   UNL     1     114.035 130.531 138.886  0.00  0.00    +0.000 C 
ENDBRANCH  39  42
ENDBRANCH  37  39
ENDBRANCH  35  37
ENDBRANCH  34  35
ENDBRANCH  32  34
ENDBRANCH  31  32
ENDBRANCH  28  31
ENDBRANCH   1  30
TORSDOF 10
ENDMDL
MODEL 2
REMARK VINA RESULT:      -9.1      1.970      2.736
REMARK  Name = 44257624
REMARK  10 active torsions:
REMARK  status: ('A' for Active; 'I' for Inactive)
REMARK    1  A    between atoms: O_2  and  C_18
REMARK    2  A    between atoms: O_2  and  C_20
REMARK    3  A    between atoms: O_6  and  C_19
REMARK    4  A    between atoms: O_6  and  C_25
REMARK    5  A    between atoms: C_16  and  C_19
REMARK    6  A    between atoms: C_23  and  C_24
REMARK    7  A    between atoms: C_23  and  C_29
REMARK    8  A    between atoms: C_24  and  C_25
REMARK    9  A    between atoms: C_29  and  C_36
REMARK   10  A    between atoms: C_34  and  C_37
REMARK                            x       y       z     vdW  Elec       q    Type
REMARK                         _______ _______ _______ _____ _____    ______ ____
ROOT
ATOM      1  O   UNL     1     110.777 128.367 135.153  0.00  0.00    +0.000 OA
ENDROOT
BRANCH   1   5
ATOM      2  O   UNL     1     112.571 126.386 136.232  0.00  0.00    +0.000 OA
ATOM      3  O   UNL     1     109.925 125.644 135.320  0.00  0.00    +0.000 OA
ATOM      4  O   UNL     1     110.793 124.622 135.854  0.00  0.00    +0.000 OA
ATOM      5  C   UNL     1     110.928 127.582 135.358  0.00  0.00    +0.000 A 
ATOM      6  C   UNL     1     111.657 127.374 135.686  0.00  0.00    +0.000 A 
ATOM      7  C   UNL     1     110.352 127.005 135.236  0.00  0.00    +0.000 A 
ATOM      8  C   UNL     1     111.808 126.589 135.892  0.00  0.00    +0.000 A 
ATOM      9  C   UNL     1     110.503 126.220 135.442  0.00  0.00    +0.000 A 
ATOM     10  C   UNL     1     111.230 126.013 135.769  0.00  0.00    +0.000 A 
ATOM     11  C   UNL     1     112.234 127.951 135.808  0.00  0.00    +0.000 C 
ATOM     12  C   UNL     1     109.623 127.213 134.909  0.00  0.00    +0.000 C 
ATOM     13  C   UNL     1     111.376 125.193 135.979  0.00  0.00    +0.000 A 
ATOM     14  C   UNL     1     112.733 125.571 136.448  0.00  0.00    +0.000 A 
ATOM     15  C   UNL     1     112.133 124.969 136.321  0.00  0.00    +0.000 A 
BRANCH  14  16
ATOM     16  C   UNL     1     113.462 125.366 136.775  0.00  0.00    +0.000 A 
ATOM     17  C   UNL     1     113.589 125.450 137.586  0.00  0.00    +0.000 A 
ATOM     18  C   UNL     1     114.065 125.076 136.292  0.00  0.00    +0.000 A 
ATOM     19  C   UNL     1     114.318 125.245 137.914  0.00  0.00    +0.000 A 
ATOM     20  C   UNL     1     114.794 124.871 136.619  0.00  0.00    +0.000 A 
ATOM     21  C   UNL     1     114.920 124.956 137.429  0.00  0.00    +0.000 A 
ENDBRANCH  14  16
ENDBRANCH   1   5
BRANCH   1  30
ATOM     22  O   UNL     1     110.213 128.597 136.445  0.00  0.00    +0.000 OA
ATOM     23  O   UNL     1     109.346 130.396 137.326  0.00  0.00    +0.000 OA
ATOM     24  O   UNL     1     109.760 130.950 135.828  0.00  0.00    +0.000 OA
ATOM     25  O   UNL     1     110.476 129.936 134.742  0.00  0.00    +0.000 OA
ATOM     26  C   UNL     1     109.704 129.888 136.783  0.00  0.00    +0.000 C 
ATOM     27  C   UNL     1     109.911 130.166 136.034  0.00  0.00    +0.000 C 
ATOM     28  C   UNL     1     109.855 129.103 136.988  0.00  0.00    +0.000 C 
ATOM     29  C   UNL     1     110.269 129.658 135.490  0.00  0.00    +0.000 C 
ATOM     30  C   UNL     1     110.420 128.873 135.696  0.00  0.00    +0.000 C 
BRANCH  28  31
ATOM     31  C   UNL     1     109.648 128.827 137.737  0.00  0.00    +0.000 C 
BRANCH  31  32
ATOM     32  O   UNL     1     110.212 128.458 138.212  0.00  0.00    +0.000 OA
BRANCH  32  34
ATOM     33  O   UNL     1     109.252 127.593 138.822  0.00  0.00    +0.000 OA
ATOM     34  C   UNL     1     109.975 127.990 138.849  0.00  0.00    +0.000 C 
BRANCH  34  35
ATOM     35  C   UNL     1     110.458 127.920 139.513  0.00  0.00    +0.000 C 
BRANCH  35  37
ATOM     36  O   UNL     1     110.031 126.934 139.967  0.00  0.00    +0.000 OA
ATOM     37  C   UNL     1     110.775 127.187 139.718  0.00  0.00    +0.000 C 
ATOM     38  C   UNL     1     111.520 127.440 139.468  0.00  0.00    +0.000 C 
BRANCH  37  39
ATOM     39  C   UNL     1     111.093 126.454 139.923  0.00  0.00    +0.000 C 
BRANCH  39  42
ATOM     40  O   UNL     1     110.995 126.133 141.312  0.00  0.00    +0.000 OA
ATOM     41  O   UNL     1     112.263 126.467 140.743  0.00  0.00    +0.000 OA
ATOM     42  C   UNL     1     111.451 126.351 140.659  0.00  0.00    +0.000 C 
ENDBRANCH  39  42
ENDBRANCH  37  39
ENDBRANCH  35  37
ENDBRANCH  34  35
ENDBRANCH  32  34
ENDBRANCH  31  32
ENDBRANCH  28  31
ENDBRANCH   1  30
TORSDOF 10
ENDMDL
MODEL 3
REMARK VINA RESULT:      -9.0      1.628      4.028
REMARK  Name = 44257624
REMARK  10 active torsions:
REMARK  status: ('A' for Active; 'I' for Inactive)
REMARK    1  A    between atoms: O_2  and  C_18
REMARK    2  A    between atoms: O_2  and  C_20
REMARK    3  A    between atoms: O_6  and  C_19
REMARK    4  A    between atoms: O_6  and  C_25
REMARK    5  A    between atoms: C_16  and  C_19
REMARK    6  A    between atoms: C_23  and  C_24
REMARK    7  A    between atoms: C_23  and  C_29
REMARK    8  A    between atoms: C_24  and  C_25
REMARK    9  A    between atoms: C_29  and  C_36
REMARK   10  A    between atoms: C_34  and  C_37
REMARK                            x       y       z     vdW  Elec       q    Type
REMARK                         _______ _______ _______ _____ _____    ______ ____
ROOT
ATOM      1  O   UNL     1     112.240 129.651 138.606  0.00  0.00    +0.000 OA
ENDROOT
BRANCH   1   5
ATOM      2  O   UNL     1     113.141 127.010 137.887  0.00  0.00    +0.000 OA
ATOM      3  O   UNL     1     111.045 127.373 139.851  0.00  0.00    +0.000 OA
ATOM      4  O   UNL     1     111.468 126.034 139.519  0.00  0.00    +0.000 OA
ATOM      5  C   UNL     1     112.187 128.833 138.698  0.00  0.00    +0.000 A 
ATOM      6  C   UNL     1     112.678 128.335 138.258  0.00  0.00    +0.000 A 
ATOM      7  C   UNL     1     111.643 128.511 139.228  0.00  0.00    +0.000 A 
ATOM      8  C   UNL     1     112.624 127.517 138.350  0.00  0.00    +0.000 A 
ATOM      9  C   UNL     1     111.590 127.693 139.320  0.00  0.00    +0.000 A 
ATOM     10  C   UNL     1     112.080 127.197 138.882  0.00  0.00    +0.000 A 
ATOM     11  C   UNL     1     113.221 128.656 137.728  0.00  0.00    +0.000 C 
ATOM     12  C   UNL     1     111.152 129.009 139.667  0.00  0.00    +0.000 C 
ATOM     13  C   UNL     1     112.015 126.346 138.986  0.00  0.00    +0.000 A 
ATOM     14  C   UNL     1     113.090 126.157 137.979  0.00  0.00    +0.000 A 
ATOM     15  C   UNL     1     112.523 125.822 138.532  0.00  0.00    +0.000 A 
BRANCH  14  16
ATOM     16  C   UNL     1     113.582 125.662 137.539  0.00  0.00    +0.000 A 
ATOM     17  C   UNL     1     113.350 125.413 136.787  0.00  0.00    +0.000 A 
ATOM     18  C   UNL     1     114.305 125.416 137.850  0.00  0.00    +0.000 A 
ATOM     19  C   UNL     1     113.842 124.918 136.347  0.00  0.00    +0.000 A 
ATOM     20  C   UNL     1     114.797 124.921 137.411  0.00  0.00    +0.000 A 
ATOM     21  C   UNL     1     114.566 124.672 136.659  0.00  0.00    +0.000 A 
ENDBRANCH  14  16
ENDBRANCH   1   5
BRANCH   1  30
ATOM     22  O   UNL     1     111.148 129.629 137.684  0.00  0.00    +0.000 OA
ATOM     23  O   UNL     1     110.338 131.190 136.391  0.00  0.00    +0.000 OA
ATOM     24  O   UNL     1     111.572 132.003 137.126  0.00  0.00    +0.000 OA
ATOM     25  O   UNL     1     112.523 131.233 138.233  0.00  0.00    +0.000 OA
ATOM     26  C   UNL     1     110.814 130.805 136.945  0.00  0.00    +0.000 C 
ATOM     27  C   UNL     1     111.430 131.212 137.312  0.00  0.00    +0.000 C 
ATOM     28  C   UNL     1     110.673 130.013 137.131  0.00  0.00    +0.000 C 
ATOM     29  C   UNL     1     111.906 130.826 137.866  0.00  0.00    +0.000 C 
ATOM     30  C   UNL     1     111.765 130.035 138.052  0.00  0.00    +0.000 C 
BRANCH  28  31
ATOM     31  C   UNL     1     110.056 129.607 136.763  0.00  0.00    +0.000 C 
BRANCH  31  32
ATOM     32  O   UNL     1     110.212 128.924 136.330  0.00  0.00    +0.000 OA
BRANCH  32  34
ATOM     33  O   UNL     1     108.918 128.386 136.610  0.00  0.00    +0.000 OA
ATOM     34  C   UNL     1     109.599 128.403 136.145  0.00  0.00    +0.000 C 
BRANCH  34  35
ATOM     35  C   UNL     1     109.667 127.899 135.496  0.00  0.00    +0.000 C 
BRANCH  35  37
ATOM     36  O   UNL     1     109.042 127.003 135.904  0.00  0.00    +0.000 OA
ATOM     37  C   UNL     1     109.807 127.094 135.610  0.00  0.00    +0.000 C 
ATOM     38  C   UNL     1     110.573 127.185 135.316  0.00  0.00    +0.000 C 
BRANCH  37  39
ATOM     39  C   UNL     1     109.947 126.289 135.724  0.00  0.00    +0.000 C 
BRANCH  39  42
ATOM     40  O   UNL     1     109.307 125.656 134.615  0.00  0.00    +0.000 OA
ATOM     41  O   UNL     1     110.687 125.399 134.885  0.00  0.00    +0.000 OA
ATOM     42  C   UNL     1     109.980 125.781 135.075  0.00  0.00    +0.000 C 
ENDBRANCH  39  42
ENDBRANCH  37  39
ENDBRANCH  35  37
ENDBRANCH  34  35
ENDBRANCH  32  34
ENDBRANCH  31  32
ENDBRANCH  28  31
ENDBRANCH   1  30
TORSDOF 10
ENDMDL
MODEL 4
REMARK VINA RESULT:      -8.9      1.888      3.365
REMARK  Name = 44257624
REMARK  10 active torsions:
REMARK  status: ('A' for Active; 'I' for Inactive)
REMARK    1  A    between atoms: O_2  and  C_18
REMARK    2  A    between atoms: O_2  and  C_20
REMARK    3  A    between atoms: O_6  and  C_19
REMARK    4  A    between atoms: O_6  and  C_25
REMARK    5  A    between atoms: C_16  and  C_19
REMARK    6  A    between atoms: C_23  and  C_24
REMARK    7  A    between atoms: C_23  and  C_29
REMARK    8  A    between atoms: C_24  and  C_25
REMARK    9  A    between atoms: C_29  and  C_36
REMARK   10  A    between atoms: C_34  and  C_37
REMARK                            x       y       z     vdW  Elec       q    Type
REMARK                         _______ _______ _______ _____ _____    ______ ____
ROOT
ATOM      1  O   UNL     1     112.455 129.206 135.756  0.00  0.00    +0.000 OA
ENDROOT
BRANCH   1   5
ATOM      2  O   UNL     1     112.209 126.369 136.201  0.00  0.00    +0.000 OA
ATOM      3  O   UNL     1     110.249 127.792 134.616  0.00  0.00    +0.000 OA
ATOM      4  O   UNL     1     110.089 126.371 134.815  0.00  0.00    +0.000 OA
ATOM      5  C   UNL     1     112.043 128.501 135.637  0.00  0.00    +0.000 A 
ATOM      6  C   UNL     1     112.321 127.798 135.969  0.00  0.00    +0.000 A 
ATOM      7  C   UNL     1     111.352 128.498 135.186  0.00  0.00    +0.000 A 
ATOM      8  C   UNL     1     111.908 127.094 135.850  0.00  0.00    +0.000 A 
ATOM      9  C   UNL     1     110.939 127.794 135.067  0.00  0.00    +0.000 A 
ATOM     10  C   UNL     1     111.218 127.092 135.399  0.00  0.00    +0.000 A 
ATOM     11  C   UNL     1     113.012 127.801 136.420  0.00  0.00    +0.000 C 
ATOM     12  C   UNL     1     111.074 129.201 134.854  0.00  0.00    +0.000 C 
ATOM     13  C   UNL     1     110.779 126.365 135.268  0.00  0.00    +0.000 A 
ATOM     14  C   UNL     1     111.783 125.633 136.081  0.00  0.00    +0.000 A 
ATOM     15  C   UNL     1     111.064 125.630 135.611  0.00  0.00    +0.000 A 
BRANCH  14  16
ATOM     16  C   UNL     1     112.063 124.932 136.414  0.00  0.00    +0.000 A 
ATOM     17  C   UNL     1     112.824 124.666 136.236  0.00  0.00    +0.000 A 
ATOM     18  C   UNL     1     111.584 124.498 136.926  0.00  0.00    +0.000 A 
ATOM     19  C   UNL     1     113.104 123.965 136.569  0.00  0.00    +0.000 A 
ATOM     20  C   UNL     1     111.863 123.797 137.259  0.00  0.00    +0.000 A 
ATOM     21  C   UNL     1     112.623 123.531 137.081  0.00  0.00    +0.000 A 
ENDBRANCH  14  16
ENDBRANCH   1   5
BRANCH   1  30
ATOM     22  O   UNL     1     111.646 129.492 136.898  0.00  0.00    +0.000 OA
ATOM     23  O   UNL     1     111.773 131.095 138.374  0.00  0.00    +0.000 OA
ATOM     24  O   UNL     1     113.052 131.466 137.399  0.00  0.00    +0.000 OA
ATOM     25  O   UNL     1     113.393 130.522 136.090  0.00  0.00    +0.000 OA
ATOM     26  C   UNL     1     111.944 130.622 137.719  0.00  0.00    +0.000 C 
ATOM     27  C   UNL     1     112.583 130.808 137.232  0.00  0.00    +0.000 C 
ATOM     28  C   UNL     1     111.475 129.964 137.552  0.00  0.00    +0.000 C 
ATOM     29  C   UNL     1     112.753 130.336 136.577  0.00  0.00    +0.000 C 
ATOM     30  C   UNL     1     112.285 129.678 136.410  0.00  0.00    +0.000 C 
BRANCH  28  31
ATOM     31  C   UNL     1     110.836 129.779 138.040  0.00  0.00    +0.000 C 
BRANCH  31  32
ATOM     32  O   UNL     1     110.795 129.041 138.404  0.00  0.00    +0.000 OA
BRANCH  32  34
ATOM     33  O   UNL     1     109.366 129.042 138.363  0.00  0.00    +0.000 OA
ATOM     34  C   UNL     1     110.071 128.757 138.683  0.00  0.00    +0.000 C 
BRANCH  34  35
ATOM     35  C   UNL     1     110.053 128.190 139.280  0.00  0.00    +0.000 C 
BRANCH  35  37
ATOM     36  O   UNL     1     109.126 127.613 138.869  0.00  0.00    +0.000 OA
ATOM     37  C   UNL     1     109.890 127.402 139.098  0.00  0.00    +0.000 C 
ATOM     38  C   UNL     1     110.654 127.191 139.326  0.00  0.00    +0.000 C 
BRANCH  37  39
ATOM     39  C   UNL     1     109.727 126.614 138.915  0.00  0.00    +0.000 C 
BRANCH  39  42
ATOM     40  O   UNL     1     108.683 126.040 139.704  0.00  0.00    +0.000 OA
ATOM     41  O   UNL     1     110.039 125.635 139.908  0.00  0.00    +0.000 OA
ATOM     42  C   UNL     1     109.484 126.096 139.509  0.00  0.00    +0.000 C 
ENDBRANCH  39  42
ENDBRANCH  37  39
ENDBRANCH  35  37
ENDBRANCH  34  35
ENDBRANCH  32  34
ENDBRANCH  31  32
ENDBRANCH  28  31
ENDBRANCH   1  30
TORSDOF 10
ENDMDL
MODEL 5
REMARK VINA RESULT:      -8.9      2.057      4.387
REMARK  Name = 44257624
REMARK  10 active torsions:
REMARK  status: ('A' for Active; 'I' for Inactive)
REMARK    1  A    between atoms: O_2  and  C_18
REMARK    2  A    between atoms: O_2  and  C_20
REMARK    3  A    between atoms: O_6  and  C_19
REMARK    4  A    between atoms: O_6  and  C_25
REMARK    5  A    between atoms: C_16  and  C_19
REMARK    6  A    between atoms: C_23  and  C_24
REMARK    7  A    between atoms: C_23  and  C_29
REMARK    8  A    between atoms: C_24  and  C_25
REMARK    9  A    between atoms: C_29  and  C_36
REMARK   10  A    between atoms: C_34  and  C_37
REMARK                            x       y       z     vdW  Elec       q    Type
REMARK                         _______ _______ _______ _____ _____    ______ ____
ROOT
ATOM      1  O   UNL     1     112.565 127.526 141.273  0.00  0.00    +0.000 OA
ENDROOT
BRANCH   1   5
ATOM      2  O   UNL     1     113.380 126.269 138.812  0.00  0.00    +0.000 OA
ATOM      3  O   UNL     1     110.589 126.348 139.578  0.00  0.00    +0.000 OA
ATOM      4  O   UNL     1     110.956 125.709 138.337  0.00  0.00    +0.000 OA
ATOM      5  C   UNL     1     112.366 127.121 140.583  0.00  0.00    +0.000 A 
ATOM      6  C   UNL     1     112.956 126.899 140.049  0.00  0.00    +0.000 A 
ATOM      7  C   UNL     1     111.578 126.937 140.425  0.00  0.00    +0.000 A 
ATOM      8  C   UNL     1     112.757 126.494 139.359  0.00  0.00    +0.000 A 
ATOM      9  C   UNL     1     111.378 126.532 139.735  0.00  0.00    +0.000 A 
ATOM     10  C   UNL     1     111.968 126.311 139.202  0.00  0.00    +0.000 A 
ATOM     11  C   UNL     1     113.744 127.083 140.207  0.00  0.00    +0.000 C 
ATOM     12  C   UNL     1     110.988 127.159 140.959  0.00  0.00    +0.000 C 
ATOM     13  C   UNL     1     111.748 125.889 138.487  0.00  0.00    +0.000 A 
ATOM     14  C   UNL     1     113.178 125.847 138.091  0.00  0.00    +0.000 A 
ATOM     15  C   UNL     1     112.357 125.655 137.927  0.00  0.00    +0.000 A 
BRANCH  14  16
ATOM     16  C   UNL     1     113.770 125.627 137.560  0.00  0.00    +0.000 A 
ATOM     17  C   UNL     1     114.192 124.928 137.679  0.00  0.00    +0.000 A 
ATOM     18  C   UNL     1     113.939 126.105 136.909  0.00  0.00    +0.000 A 
ATOM     19  C   UNL     1     114.784 124.708 137.148  0.00  0.00    +0.000 A 
ATOM     20  C   UNL     1     114.530 125.885 136.378  0.00  0.00    +0.000 A 
ATOM     21  C   UNL     1     114.952 125.187 136.497  0.00  0.00    +0.000 A 
ENDBRANCH  14  16
ENDBRANCH   1   5
BRANCH   1  30
ATOM     22  O   UNL     1     112.631 128.781 140.593  0.00  0.00    +0.000 OA
ATOM     23  O   UNL     1     112.451 130.824 141.342  0.00  0.00    +0.000 OA
ATOM     24  O   UNL     1     112.264 129.962 142.737  0.00  0.00    +0.000 OA
ATOM     25  O   UNL     1     112.321 128.314 142.703  0.00  0.00    +0.000 OA
ATOM     26  C   UNL     1     112.480 129.999 141.325  0.00  0.00    +0.000 C 
ATOM     27  C   UNL     1     112.386 129.569 142.023  0.00  0.00    +0.000 C 
ATOM     28  C   UNL     1     112.602 129.605 140.610  0.00  0.00    +0.000 C 
ATOM     29  C   UNL     1     112.415 128.744 142.005  0.00  0.00    +0.000 C 
ATOM     30  C   UNL     1     112.537 128.350 141.290  0.00  0.00    +0.000 C 
BRANCH  28  31
ATOM     31  C   UNL     1     112.696 130.037 139.913  0.00  0.00    +0.000 C 
BRANCH  31  32
ATOM     32  O   UNL     1     112.224 129.870 139.258  0.00  0.00    +0.000 OA
BRANCH  32  34
ATOM     33  O   UNL     1     112.360 130.996 138.389  0.00  0.00    +0.000 OA
ATOM     34  C   UNL     1     112.417 130.184 138.519  0.00  0.00    +0.000 C 
BRANCH  34  35
ATOM     35  C   UNL     1     112.666 129.685 137.912  0.00  0.00    +0.000 C 
BRANCH  35  37
ATOM     36  O   UNL     1     111.604 129.351 137.562  0.00  0.00    +0.000 OA
ATOM     37  C   UNL     1     112.263 129.679 137.191  0.00  0.00    +0.000 C 
ATOM     38  C   UNL     1     112.924 130.007 136.820  0.00  0.00    +0.000 C 
BRANCH  37  39
ATOM     39  C   UNL     1     111.862 129.673 136.471  0.00  0.00    +0.000 C 
BRANCH  39  42
ATOM     40  O   UNL     1     112.512 128.927 135.440  0.00  0.00    +0.000 OA
ATOM     41  O   UNL     1     111.321 128.420 136.046  0.00  0.00    +0.000 OA
ATOM     42  C   UNL     1     111.898 129.007 135.986  0.00  0.00    +0.000 C 
ENDBRANCH  39  42
ENDBRANCH  37  39
ENDBRANCH  35  37
ENDBRANCH  34  35
ENDBRANCH  32  34
ENDBRANCH  31  32
ENDBRANCH  28  31
ENDBRANCH   1  30
TORSDOF 10
ENDMDL
MODEL 6
REMARK VINA RESULT:      -8.9      1.029      1.535
REMARK  Name = 44257624
REMARK  10 active torsions:
REMARK  status: ('A' for Active; 'I' for Inactive)
REMARK    1  A    between atoms: O_2  and  C_18
REMARK    2  A    between atoms: O_2  and  C_20
REMARK    3  A    between atoms: O_6  and  C_19
REMARK    4  A    between atoms: O_6  and  C_25
REMARK    5  A    between atoms: C_16  and  C_19
REMARK    6  A    between atoms: C_23  and  C_24
REMARK    7  A    between atoms: C_23  and  C_29
REMARK    8  A    between atoms: C_24  and  C_25
REMARK    9  A    between atoms: C_29  and  C_36
REMARK   10  A    between atoms: C_34  and  C_37
REMARK                            x       y       z     vdW  Elec       q    Type
REMARK                         _______ _______ _______ _____ _____    ______ ____
ROOT
ATOM      1  O   UNL     1     110.419 128.703 136.883  0.00  0.00    +0.000 OA
ENDROOT
BRANCH   1   5
ATOM      2  O   UNL     1     112.699 126.942 136.905  0.00  0.00    +0.000 OA
ATOM      3  O   UNL     1     112.876 129.574 135.713  0.00  0.00    +0.000 OA
ATOM      4  O   UNL     1     114.041 128.722 135.703  0.00  0.00    +0.000 OA
ATOM      5  C   UNL     1     111.208 128.561 136.690  0.00  0.00    +0.000 A 
ATOM      6  C   UNL     1     111.558 127.839 136.887  0.00  0.00    +0.000 A 
ATOM      7  C   UNL     1     111.648 129.138 136.298  0.00  0.00    +0.000 A 
ATOM      8  C   UNL     1     112.347 127.697 136.693  0.00  0.00    +0.000 A 
ATOM      9  C   UNL     1     112.437 128.996 136.104  0.00  0.00    +0.000 A 
ATOM     10  C   UNL     1     112.786 128.275 136.302  0.00  0.00    +0.000 A 
ATOM     11  C   UNL     1     111.118 127.262 137.279  0.00  0.00    +0.000 C 
ATOM     12  C   UNL     1     111.298 129.860 136.101  0.00  0.00    +0.000 C 
ATOM     13  C   UNL     1     113.609 128.139 136.094  0.00  0.00    +0.000 A 
ATOM     14  C   UNL     1     113.521 126.788 136.705  0.00  0.00    +0.000 A 
ATOM     15  C   UNL     1     113.979 127.390 136.297  0.00  0.00    +0.000 A 
BRANCH  14  16
ATOM     16  C   UNL     1     113.868 126.066 136.904  0.00  0.00    +0.000 A 
ATOM     17  C   UNL     1     113.915 125.463 136.343  0.00  0.00    +0.000 A 
ATOM     18  C   UNL     1     114.167 125.947 137.663  0.00  0.00    +0.000 A 
ATOM     19  C   UNL     1     114.262 124.741 136.542  0.00  0.00    +0.000 A 
ATOM     20  C   UNL     1     114.514 125.226 137.863  0.00  0.00    +0.000 A 
ATOM     21  C   UNL     1     114.562 124.623 137.302  0.00  0.00    +0.000 A 
ENDBRANCH  14  16
ENDBRANCH   1   5
BRANCH   1  30
ATOM     22  O   UNL     1     110.780 129.110 138.205  0.00  0.00    +0.000 OA
ATOM     23  O   UNL     1     109.665 130.231 139.710  0.00  0.00    +0.000 OA
ATOM     24  O   UNL     1     108.566 130.181 138.480  0.00  0.00    +0.000 OA
ATOM     25  O   UNL     1     108.943 129.418 137.067  0.00  0.00    +0.000 OA
ATOM     26  C   UNL     1     109.854 129.849 139.003  0.00  0.00    +0.000 C 
ATOM     27  C   UNL     1     109.304 129.824 138.388  0.00  0.00    +0.000 C 
ATOM     28  C   UNL     1     110.592 129.491 138.911  0.00  0.00    +0.000 C 
ATOM     29  C   UNL     1     109.493 129.442 137.681  0.00  0.00    +0.000 C 
ATOM     30  C   UNL     1     110.231 129.085 137.590  0.00  0.00    +0.000 C 
BRANCH  28  31
ATOM     31  C   UNL     1     111.141 129.517 139.527  0.00  0.00    +0.000 C 
BRANCH  31  32
ATOM     32  O   UNL     1     111.859 129.908 139.424  0.00  0.00    +0.000 OA
BRANCH  32  34
ATOM     33  O   UNL     1     112.359 129.357 140.643  0.00  0.00    +0.000 OA
ATOM     34  C   UNL     1     112.490 129.754 139.932  0.00  0.00    +0.000 C 
BRANCH  34  35
ATOM     35  C   UNL     1     113.252 129.996 139.729  0.00  0.00    +0.000 C 
BRANCH  35  37
ATOM     36  O   UNL     1     113.453 130.919 140.414  0.00  0.00    +0.000 OA
ATOM     37  C   UNL     1     113.799 130.176 140.320  0.00  0.00    +0.000 C 
ATOM     38  C   UNL     1     114.145 129.433 140.225  0.00  0.00    +0.000 C 
BRANCH  37  39
ATOM     39  C   UNL     1     114.347 130.356 140.910  0.00  0.00    +0.000 C 
BRANCH  39  42
ATOM     40  O   UNL     1     115.679 130.452 140.403  0.00  0.00    +0.000 OA
ATOM     41  O   UNL     1     115.008 131.622 140.877  0.00  0.00    +0.000 OA
ATOM     42  C   UNL     1     115.011 130.810 140.730  0.00  0.00    +0.000 C 
ENDBRANCH  39  42
ENDBRANCH  37  39
ENDBRANCH  35  37
ENDBRANCH  34  35
ENDBRANCH  32  34
ENDBRANCH  31  32
ENDBRANCH  28  31
ENDBRANCH   1  30
TORSDOF 10
ENDMDL
MODEL 7
REMARK VINA RESULT:      -8.8      1.769      3.453
REMARK  Name = 44257624
REMARK  10 active torsions:
REMARK  status: ('A' for Active; 'I' for Inactive)
REMARK    1  A    between atoms: O_2  and  C_18
REMARK    2  A    between atoms: O_2  and  C_20
REMARK    3  A    between atoms: O_6  and  C_19
REMARK    4  A    between atoms: O_6  and  C_25
REMARK    5  A    between atoms: C_16  and  C_19
REMARK    6  A    between atoms: C_23  and  C_24
REMARK    7  A    between atoms: C_23  and  C_29
REMARK    8  A    between atoms: C_24  and  C_25
REMARK    9  A    between atoms: C_29  and  C_36
REMARK   10  A    between atoms: C_34  and  C_37
REMARK                            x       y       z     vdW  Elec       q    Type
REMARK                         _______ _______ _______ _____ _____    ______ ____
ROOT
ATOM      1  O   UNL     1     111.449 125.989 136.051  0.00  0.00    +0.000 OA
ENDROOT
BRANCH   1   5
ATOM      2  O   UNL     1     112.993 128.402 135.737  0.00  0.00    +0.000 OA
ATOM      3  O   UNL     1     110.261 128.261 134.788  0.00  0.00    +0.000 OA
ATOM      4  O   UNL     1     111.001 129.488 134.612  0.00  0.00    +0.000 OA
ATOM      5  C   UNL     1     111.502 126.768 135.786  0.00  0.00    +0.000 A 
ATOM      6  C   UNL     1     112.204 127.192 135.889  0.00  0.00    +0.000 A 
ATOM      7  C   UNL     1     110.856 127.125 135.420  0.00  0.00    +0.000 A 
ATOM      8  C   UNL     1     112.257 127.972 135.624  0.00  0.00    +0.000 A 
ATOM      9  C   UNL     1     110.909 127.905 135.155  0.00  0.00    +0.000 A 
ATOM     10  C   UNL     1     111.609 128.328 135.258  0.00  0.00    +0.000 A 
ATOM     11  C   UNL     1     112.851 126.835 136.256  0.00  0.00    +0.000 C 
ATOM     12  C   UNL     1     110.154 126.702 135.317  0.00  0.00    +0.000 C 
ATOM     13  C   UNL     1     111.653 129.139 134.978  0.00  0.00    +0.000 A 
ATOM     14  C   UNL     1     113.054 129.214 135.464  0.00  0.00    +0.000 A 
ATOM     15  C   UNL     1     112.380 129.585 135.081  0.00  0.00    +0.000 A 
BRANCH  14  16
ATOM     16  C   UNL     1     113.756 129.634 135.567  0.00  0.00    +0.000 A 
ATOM     17  C   UNL     1     113.875 130.076 136.254  0.00  0.00    +0.000 A 
ATOM     18  C   UNL     1     114.340 129.613 134.984  0.00  0.00    +0.000 A 
ATOM     19  C   UNL     1     114.577 130.497 136.357  0.00  0.00    +0.000 A 
ATOM     20  C   UNL     1     115.042 130.034 135.087  0.00  0.00    +0.000 A 
ATOM     21  C   UNL     1     115.160 130.476 135.774  0.00  0.00    +0.000 A 
ENDBRANCH  14  16
ENDBRANCH   1   5
BRANCH   1  30
ATOM     22  O   UNL     1     110.868 126.413 137.286  0.00  0.00    +0.000 OA
ATOM     23  O   UNL     1     110.617 125.362 139.182  0.00  0.00    +0.000 OA
ATOM     24  O   UNL     1     111.363 124.200 138.278  0.00  0.00    +0.000 OA
ATOM     25  O   UNL     1     111.778 124.513 136.712  0.00  0.00    +0.000 OA
ATOM     26  C   UNL     1     110.825 125.519 138.399  0.00  0.00    +0.000 C 
ATOM     27  C   UNL     1     111.198 124.938 137.947  0.00  0.00    +0.000 C 
ATOM     28  C   UNL     1     110.661 126.257 138.068  0.00  0.00    +0.000 C 
ATOM     29  C   UNL     1     111.406 125.095 137.164  0.00  0.00    +0.000 C 
ATOM     30  C   UNL     1     111.241 125.832 136.833  0.00  0.00    +0.000 C 
BRANCH  28  31
ATOM     31  C   UNL     1     110.288 126.837 138.521  0.00  0.00    +0.000 C 
BRANCH  31  32
ATOM     32  O   UNL     1     110.637 127.579 138.610  0.00  0.00    +0.000 OA
BRANCH  32  34
ATOM     33  O   UNL     1     109.371 128.240 138.636  0.00  0.00    +0.000 OA
ATOM     34  C   UNL     1     110.175 128.231 138.817  0.00  0.00    +0.000 C 
BRANCH  34  35
ATOM     35  C   UNL     1     110.518 128.873 139.204  0.00  0.00    +0.000 C 
BRANCH  35  37
ATOM     36  O   UNL     1     111.472 129.349 138.731  0.00  0.00    +0.000 OA
ATOM     37  C   UNL     1     110.679 129.568 138.789  0.00  0.00    +0.000 C 
ATOM     38  C   UNL     1     109.885 129.786 138.848  0.00  0.00    +0.000 C 
BRANCH  37  39
ATOM     39  C   UNL     1     110.839 130.262 138.375  0.00  0.00    +0.000 C 
BRANCH  39  42
ATOM     40  O   UNL     1     110.732 131.445 139.169  0.00  0.00    +0.000 OA
ATOM     41  O   UNL     1     112.016 130.988 138.737  0.00  0.00    +0.000 OA
ATOM     42  C   UNL     1     111.196 130.898 138.760  0.00  0.00    +0.000 C 
ENDBRANCH  39  42
ENDBRANCH  37  39
ENDBRANCH  35  37
ENDBRANCH  34  35
ENDBRANCH  32  34
ENDBRANCH  31  32
ENDBRANCH  28  31
ENDBRANCH   1  30
TORSDOF 10
ENDMDL
MODEL 8
REMARK VINA RESULT:      -8.8      2.186      4.202
REMARK  Name = 44257624
REMARK  10 active torsions:
REMARK  status: ('A' for Active; 'I' for Inactive)
REMARK    1  A    between atoms: O_2  and  C_18
REMARK    2  A    between atoms: O_2  and  C_20
REMARK    3  A    between atoms: O_6  and  C_19
REMARK    4  A    between atoms: O_6  and  C_25
REMARK    5  A    between atoms: C_16  and  C_19
REMARK    6  A    between atoms: C_23  and  C_24
REMARK    7  A    between atoms: C_23  and  C_29
REMARK    8  A    between atoms: C_24  and  C_25
REMARK    9  A    between atoms: C_29  and  C_36
REMARK   10  A    between atoms: C_34  and  C_37
REMARK                            x       y       z     vdW  Elec       q    Type
REMARK                         _______ _______ _______ _____ _____    ______ ____
ROOT
ATOM      1  O   UNL     1     112.318 127.268 140.071  0.00  0.00    +0.000 OA
ENDROOT
BRANCH   1   5
ATOM      2  O   UNL     1     111.653 126.512 137.371  0.00  0.00    +0.000 OA
ATOM      3  O   UNL     1     114.283 125.969 138.452  0.00  0.00    +0.000 OA
ATOM      4  O   UNL     1     113.989 125.575 137.095  0.00  0.00    +0.000 OA
ATOM      5  C   UNL     1     112.540 126.925 139.354  0.00  0.00    +0.000 A 
ATOM      6  C   UNL     1     112.001 126.888 138.730  0.00  0.00    +0.000 A 
ATOM      7  C   UNL     1     113.300 126.619 139.261  0.00  0.00    +0.000 A 
ATOM      8  C   UNL     1     112.223 126.544 138.013  0.00  0.00    +0.000 A 
ATOM      9  C   UNL     1     113.522 126.275 138.545  0.00  0.00    +0.000 A 
ATOM     10  C   UNL     1     112.984 126.238 137.921  0.00  0.00    +0.000 A 
ATOM     11  C   UNL     1     111.241 127.194 138.823  0.00  0.00    +0.000 C 
ATOM     12  C   UNL     1     113.839 126.656 139.886  0.00  0.00    +0.000 C 
ATOM     13  C   UNL     1     113.227 125.879 137.180  0.00  0.00    +0.000 A 
ATOM     14  C   UNL     1     111.879 126.156 136.623  0.00  0.00    +0.000 A 
ATOM     15  C   UNL     1     112.671 125.837 136.526  0.00  0.00    +0.000 A 
BRANCH  14  16
ATOM     16  C   UNL     1     111.338 126.120 136.000  0.00  0.00    +0.000 A 
ATOM     17  C   UNL     1     111.238 126.771 135.503  0.00  0.00    +0.000 A 
ATOM     18  C   UNL     1     110.898 125.434 135.875  0.00  0.00    +0.000 A 
ATOM     19  C   UNL     1     110.697 126.735 134.881  0.00  0.00    +0.000 A 
ATOM     20  C   UNL     1     110.357 125.397 135.253  0.00  0.00    +0.000 A 
ATOM     21  C   UNL     1     110.257 126.048 134.756  0.00  0.00    +0.000 A 
ENDBRANCH  14  16
ENDBRANCH   1   5
BRANCH   1  30
ATOM     22  O   UNL     1     112.599 128.581 139.581  0.00  0.00    +0.000 OA
ATOM     23  O   UNL     1     112.952 130.456 140.640  0.00  0.00    +0.000 OA
ATOM     24  O   UNL     1     112.708 129.425 141.905  0.00  0.00    +0.000 OA
ATOM     25  O   UNL     1     112.391 127.831 141.620  0.00  0.00    +0.000 OA
ATOM     26  C   UNL     1     112.794 129.658 140.498  0.00  0.00    +0.000 C 
ATOM     27  C   UNL     1     112.671 129.144 141.130  0.00  0.00    +0.000 C 
ATOM     28  C   UNL     1     112.757 129.377 139.723  0.00  0.00    +0.000 C 
ATOM     29  C   UNL     1     112.513 128.346 140.988  0.00  0.00    +0.000 C 
ATOM     30  C   UNL     1     112.476 128.064 140.213  0.00  0.00    +0.000 C 
BRANCH  28  31
ATOM     31  C   UNL     1     112.880 129.893 139.091  0.00  0.00    +0.000 C 
BRANCH  31  32
ATOM     32  O   UNL     1     113.422 129.702 138.500  0.00  0.00    +0.000 OA
BRANCH  32  34
ATOM     33  O   UNL     1     113.703 130.910 137.792  0.00  0.00    +0.000 OA
ATOM     34  C   UNL     1     113.434 130.130 137.795  0.00  0.00    +0.000 C 
BRANCH  34  35
ATOM     35  C   UNL     1     113.177 129.780 137.095  0.00  0.00    +0.000 C 
BRANCH  35  37
ATOM     36  O   UNL     1     114.191 129.272 136.821  0.00  0.00    +0.000 OA
ATOM     37  C   UNL     1     113.668 129.775 136.431  0.00  0.00    +0.000 C 
ATOM     38  C   UNL     1     113.143 130.279 136.041  0.00  0.00    +0.000 C 
BRANCH  37  39
ATOM     39  C   UNL     1     114.157 129.771 135.767  0.00  0.00    +0.000 C 
BRANCH  39  42
ATOM     40  O   UNL     1     113.543 129.161 134.630  0.00  0.00    +0.000 OA
ATOM     41  O   UNL     1     114.637 128.514 135.285  0.00  0.00    +0.000 OA
ATOM     42  C   UNL     1     114.113 129.148 135.227  0.00  0.00    +0.000 C 
ENDBRANCH  39  42
ENDBRANCH  37  39
ENDBRANCH  35  37
ENDBRANCH  34  35
ENDBRANCH  32  34
ENDBRANCH  31  32
ENDBRANCH  28  31
ENDBRANCH   1  30
TORSDOF 10
ENDMDL
MODEL 9
REMARK VINA RESULT:      -8.8      1.309      2.231
REMARK  Name = 44257624
REMARK  10 active torsions:
REMARK  status: ('A' for Active; 'I' for Inactive)
REMARK    1  A    between atoms: O_2  and  C_18
REMARK    2  A    between atoms: O_2  and  C_20
REMARK    3  A    between atoms: O_6  and  C_19
REMARK    4  A    between atoms: O_6  and  C_25
REMARK    5  A    between atoms: C_16  and  C_19
REMARK    6  A    between atoms: C_23  and  C_24
REMARK    7  A    between atoms: C_23  and  C_29
REMARK    8  A    between atoms: C_24  and  C_25
REMARK    9  A    between atoms: C_29  and  C_36
REMARK   10  A    between atoms: C_34  and  C_37
REMARK                            x       y       z     vdW  Elec       q    Type
REMARK                         _______ _______ _______ _____ _____    ______ ____
ROOT
ATOM      1  O   UNL     1     109.654 127.854 136.877  0.00  0.00    +0.000 OA
ENDROOT
BRANCH   1   5
ATOM      2  O   UNL     1     112.157 126.443 137.095  0.00  0.00    +0.000 OA
ATOM      3  O   UNL     1     110.961 127.696 139.414  0.00  0.00    +0.000 OA
ATOM      4  O   UNL     1     112.215 126.999 139.565  0.00  0.00    +0.000 OA
ATOM      5  C   UNL     1     110.286 127.596 137.341  0.00  0.00    +0.000 A 
ATOM      6  C   UNL     1     110.896 127.157 136.999  0.00  0.00    +0.000 A 
ATOM      7  C   UNL     1     110.308 127.775 138.146  0.00  0.00    +0.000 A 
ATOM      8  C   UNL     1     111.528 126.898 137.463  0.00  0.00    +0.000 A 
ATOM      9  C   UNL     1     110.940 127.516 138.609  0.00  0.00    +0.000 A 
ATOM     10  C   UNL     1     111.549 127.079 138.268  0.00  0.00    +0.000 A 
ATOM     11  C   UNL     1     110.874 126.978 136.194  0.00  0.00    +0.000 C 
ATOM     12  C   UNL     1     109.697 128.214 138.487  0.00  0.00    +0.000 C 
ATOM     13  C   UNL     1     112.201 126.815 138.761  0.00  0.00    +0.000 A 
ATOM     14  C   UNL     1     112.817 126.171 137.573  0.00  0.00    +0.000 A 
ATOM     15  C   UNL     1     112.840 126.358 138.411  0.00  0.00    +0.000 A 
BRANCH  14  16
ATOM     16  C   UNL     1     113.426 125.733 137.229  0.00  0.00    +0.000 A 
ATOM     17  C   UNL     1     114.040 126.118 136.836  0.00  0.00    +0.000 A 
ATOM     18  C   UNL     1     113.420 124.909 137.278  0.00  0.00    +0.000 A 
ATOM     19  C   UNL     1     114.649 125.680 136.492  0.00  0.00    +0.000 A 
ATOM     20  C   UNL     1     114.028 124.471 136.935  0.00  0.00    +0.000 A 
ATOM     21  C   UNL     1     114.642 124.856 136.541  0.00  0.00    +0.000 A 
ENDBRANCH  14  16
ENDBRANCH   1   5
BRANCH   1  30
ATOM     22  O   UNL     1     110.401 129.005 136.479  0.00  0.00    +0.000 OA
ATOM     23  O   UNL     1     109.790 130.801 135.399  0.00  0.00    +0.000 OA
ATOM     24  O   UNL     1     108.364 129.973 135.457  0.00  0.00    +0.000 OA
ATOM     25  O   UNL     1     108.296 128.499 136.196  0.00  0.00    +0.000 OA
ATOM     26  C   UNL     1     109.756 130.064 135.769  0.00  0.00    +0.000 C 
ATOM     27  C   UNL     1     109.043 129.650 135.798  0.00  0.00    +0.000 C 
ATOM     28  C   UNL     1     110.435 129.742 136.109  0.00  0.00    +0.000 C 
ATOM     29  C   UNL     1     109.009 128.913 136.168  0.00  0.00    +0.000 C 
ATOM     30  C   UNL     1     109.688 128.590 136.508  0.00  0.00    +0.000 C 
BRANCH  28  31
ATOM     31  C   UNL     1     111.148 130.157 136.080  0.00  0.00    +0.000 C 
BRANCH  31  32
ATOM     32  O   UNL     1     111.552 130.333 136.776  0.00  0.00    +0.000 OA
BRANCH  32  34
ATOM     33  O   UNL     1     112.812 130.236 136.112  0.00  0.00    +0.000 OA
ATOM     34  C   UNL     1     112.363 130.484 136.757  0.00  0.00    +0.000 C 
BRANCH  34  35
ATOM     35  C   UNL     1     112.724 130.883 137.382  0.00  0.00    +0.000 C 
BRANCH  35  37
ATOM     36  O   UNL     1     112.592 130.463 138.462  0.00  0.00    +0.000 OA
ATOM     37  C   UNL     1     113.205 130.472 137.911  0.00  0.00    +0.000 C 
ATOM     38  C   UNL     1     113.819 130.482 137.359  0.00  0.00    +0.000 C 
BRANCH  37  39
ATOM     39  C   UNL     1     113.687 130.061 138.439  0.00  0.00    +0.000 C 
BRANCH  39  42
ATOM     40  O   UNL     1     114.374 131.006 139.264  0.00  0.00    +0.000 OA
ATOM     41  O   UNL     1     113.470 130.067 139.852  0.00  0.00    +0.000 OA
ATOM     42  C   UNL     1     113.843 130.378 139.185  0.00  0.00    +0.000 C 
ENDBRANCH  39  42
ENDBRANCH  37  39
ENDBRANCH  35  37
ENDBRANCH  34  35
ENDBRANCH  32  34
ENDBRANCH  31  32
ENDBRANCH  28  31
ENDBRANCH   1  30
TORSDOF 10
ENDMDL
MODEL 10
REMARK VINA RESULT:      -8.7      1.724      3.606
REMARK  Name = 44257624
REMARK  10 active torsions:
REMARK  status: ('A' for Active; 'I' for Inactive)
REMARK    1  A    between atoms: O_2  and  C_18
REMARK    2  A    between atoms: O_2  and  C_20
REMARK    3  A    between atoms: O_6  and  C_19
REMARK    4  A    between atoms: O_6  and  C_25
REMARK    5  A    between atoms: C_16  and  C_19
REMARK    6  A    between atoms: C_23  and  C_24
REMARK    7  A    between atoms: C_23  and  C_29
REMARK    8  A    between atoms: C_24  and  C_25
REMARK    9  A    between atoms: C_29  and  C_36
REMARK   10  A    between atoms: C_34  and  C_37
REMARK                            x       y       z     vdW  Elec       q    Type
REMARK                         _______ _______ _______ _____ _____    ______ ____
ROOT
ATOM      1  O   UNL     1     110.843 130.016 136.315  0.00  0.00    +0.000 OA
ENDROOT
BRANCH   1   5
ATOM      2  O   UNL     1     112.364 128.441 138.188  0.00  0.00    +0.000 OA
ATOM      3  O   UNL     1     113.144 128.586 135.404  0.00  0.00    +0.000 OA
ATOM      4  O   UNL     1     113.933 127.786 136.310  0.00  0.00    +0.000 OA
ATOM      5  C   UNL     1     111.481 129.516 136.469  0.00  0.00    +0.000 A 
ATOM      6  C   UNL     1     111.607 129.231 137.234  0.00  0.00    +0.000 A 
ATOM      7  C   UNL     1     111.994 129.301 135.860  0.00  0.00    +0.000 A 
ATOM      8  C   UNL     1     112.245 128.731 137.388  0.00  0.00    +0.000 A 
ATOM      9  C   UNL     1     112.632 128.801 136.014  0.00  0.00    +0.000 A 
ATOM     10  C   UNL     1     112.757 128.516 136.778  0.00  0.00    +0.000 A 
ATOM     11  C   UNL     1     111.094 129.446 137.843  0.00  0.00    +0.000 C 
ATOM     12  C   UNL     1     111.868 129.586 135.095  0.00  0.00    +0.000 C 
ATOM     13  C   UNL     1     113.425 127.996 136.926  0.00  0.00    +0.000 A 
ATOM     14  C   UNL     1     113.027 127.920 138.355  0.00  0.00    +0.000 A 
ATOM     15  C   UNL     1     113.561 127.696 137.720  0.00  0.00    +0.000 A 
BRANCH  14  16
ATOM     16  C   UNL     1     113.150 127.637 139.120  0.00  0.00    +0.000 A 
ATOM     17  C   UNL     1     113.591 128.080 139.658  0.00  0.00    +0.000 A 
ATOM     18  C   UNL     1     112.832 126.910 139.346  0.00  0.00    +0.000 A 
ATOM     19  C   UNL     1     113.714 127.797 140.423  0.00  0.00    +0.000 A 
ATOM     20  C   UNL     1     112.955 126.626 140.111  0.00  0.00    +0.000 A 
ATOM     21  C   UNL     1     113.396 127.069 140.649  0.00  0.00    +0.000 A 
ENDBRANCH  14  16
ENDBRANCH   1   5
BRANCH   1  30
ATOM     22  O   UNL     1     110.038 128.917 135.882  0.00  0.00    +0.000 OA
ATOM     23  O   UNL     1     107.877 128.742 135.630  0.00  0.00    +0.000 OA
ATOM     24  O   UNL     1     108.004 130.302 136.152  0.00  0.00    +0.000 OA
ATOM     25  O   UNL     1     109.487 130.939 136.495  0.00  0.00    +0.000 OA
ATOM     26  C   UNL     1     108.619 129.060 135.801  0.00  0.00    +0.000 C 
ATOM     27  C   UNL     1     108.682 129.840 136.062  0.00  0.00    +0.000 C 
ATOM     28  C   UNL     1     109.297 128.599 135.711  0.00  0.00    +0.000 C 
ATOM     29  C   UNL     1     109.424 130.159 136.234  0.00  0.00    +0.000 C 
ATOM     30  C   UNL     1     110.102 129.697 136.144  0.00  0.00    +0.000 C 
BRANCH  28  31
ATOM     31  C   UNL     1     109.233 127.819 135.450  0.00  0.00    +0.000 C 
BRANCH  31  32
ATOM     32  O   UNL     1     109.606 127.212 135.865  0.00  0.00    +0.000 OA
BRANCH  32  34
ATOM     33  O   UNL     1     109.843 126.473 134.665  0.00  0.00    +0.000 OA
ATOM     34  C   UNL     1     109.780 126.499 135.487  0.00  0.00    +0.000 C 
BRANCH  34  35
ATOM     35  C   UNL     1     109.892 125.814 135.931  0.00  0.00    +0.000 C 
BRANCH  35  37
ATOM     36  O   UNL     1     110.591 125.748 136.862  0.00  0.00    +0.000 OA
ATOM     37  C   UNL     1     110.655 125.531 136.070  0.00  0.00    +0.000 C 
ATOM     38  C   UNL     1     110.718 125.313 135.276  0.00  0.00    +0.000 C 
BRANCH  37  39
ATOM     39  C   UNL     1     111.417 125.248 136.208  0.00  0.00    +0.000 C 
BRANCH  39  42
ATOM     40  O   UNL     1     111.607 123.832 136.181  0.00  0.00    +0.000 OA
ATOM     41  O   UNL     1     111.551 124.522 137.431  0.00  0.00    +0.000 OA
ATOM     42  C   UNL     1     111.525 124.534 136.607  0.00  0.00    +0.000 C 
ENDBRANCH  39  42
ENDBRANCH  37  39
ENDBRANCH  35  37
ENDBRANCH  34  35
ENDBRANCH  32  34
ENDBRANCH  31  32
ENDBRANCH  28  31
ENDBRANCH   1  30
TORSDOF 10
ENDMDL
