MODEL 1
REMARK VINA RESULT:      -9.0      0.000      0.000
REMARK  Name = 44260080
REMARK  5 active torsions:
REMARK  status: ('A' for Active; 'I' for Inactive)
REMARK    1  A    between atoms: O_4  and  C_13
REMARK    2  A    between atoms: O_5  and  C_16
REMARK    3  A    between atoms: O_7  and  C_20
REMARK    4  A    between atoms: O_10  and  C_26
REMARK    5  A    between atoms: C_17  and  C_18
REMARK                            x       y       z     vdW  Elec       q    Type
REMARK                         _______ _______ _______ _____ _____    ______ ____
ROOT
ATOM      1  O   UNL     1     104.465 124.073 146.837  0.00  0.00    +0.000 OA
ATOM      2  O   UNL     1     101.270 123.508 146.157  0.00  0.00    +0.000 OA
ATOM      3  O   UNL     1     102.166 122.739 145.550  0.00  0.00    +0.000 OA
ATOM      4  O   UNL     1     102.749 125.536 147.990  0.00  0.00    +0.000 OA
ATOM      5  C   UNL     1     103.067 124.446 147.072  0.00  0.00    +0.000 A 
ATOM      6  C   UNL     1     103.624 123.968 146.695  0.00  0.00    +0.000 A 
ATOM      7  C   UNL     1     102.263 124.334 146.927  0.00  0.00    +0.000 A 
ATOM      8  C   UNL     1     102.015 123.745 146.406  0.00  0.00    +0.000 A 
ATOM      9  C   UNL     1     102.571 123.267 146.029  0.00  0.00    +0.000 A 
ATOM     10  C   UNL     1     103.376 123.378 146.173  0.00  0.00    +0.000 A 
ATOM     11  C   UNL     1     104.729 124.686 147.379  0.00  0.00    +0.000 A 
ATOM     12  C   UNL     1     103.313 125.062 147.617  0.00  0.00    +0.000 A 
ATOM     13  C   UNL     1     104.150 125.183 147.772  0.00  0.00    +0.000 A 
ATOM     14  C   UNL     1     101.364 122.888 145.629  0.00  0.00    +0.000 C 
ENDROOT
BRANCH  11  17
ATOM     15  O   UNL     1     107.180 124.322 148.941  0.00  0.00    +0.000 OA
ATOM     16  O   UNL     1     107.914 125.027 148.089  0.00  0.00    +0.000 OA
ATOM     17  C   UNL     1     105.535 124.795 147.522  0.00  0.00    +0.000 A 
ATOM     18  C   UNL     1     105.884 124.466 148.193  0.00  0.00    +0.000 A 
ATOM     19  C   UNL     1     106.689 124.575 148.335  0.00  0.00    +0.000 A 
ATOM     20  C   UNL     1     105.991 125.233 146.992  0.00  0.00    +0.000 A 
ATOM     21  C   UNL     1     107.145 125.013 147.806  0.00  0.00    +0.000 A 
ATOM     22  C   UNL     1     106.796 125.342 147.134  0.00  0.00    +0.000 A 
ATOM     23  C   UNL     1     107.936 124.600 148.789  0.00  0.00    +0.000 C 
BRANCH  22  24
ATOM     24  O   UNL     1     107.253 125.781 146.605  0.00  0.00    +0.000 OA
ATOM     25  C   UNL     1     106.888 126.291 146.069  0.00  0.00    +0.000 C 
ENDBRANCH  22  24
ENDBRANCH  11  17
BRANCH   7  26
ATOM     26  O   UNL     1     101.706 124.812 147.304  0.00  0.00    +0.000 OA
ATOM     27  C   UNL     1     101.357 124.562 148.009  0.00  0.00    +0.000 C 
ENDBRANCH   7  26
BRANCH  10  28
ATOM     28  O   UNL     1     103.932 122.901 145.796  0.00  0.00    +0.000 OA
ATOM     29  C   UNL     1     104.035 122.952 144.979  0.00  0.00    +0.000 C 
ENDBRANCH  10  28
BRANCH  13  30
ATOM     30  O   UNL     1     104.395 125.773 148.294  0.00  0.00    +0.000 OA
ATOM     31  C   UNL     1     103.982 126.486 148.333  0.00  0.00    +0.000 C 
ENDBRANCH  13  30
TORSDOF 5
ENDMDL
MODEL 2
REMARK VINA RESULT:      -8.3     13.132     14.399
REMARK  Name = 44260080
REMARK  5 active torsions:
REMARK  status: ('A' for Active; 'I' for Inactive)
REMARK    1  A    between atoms: O_4  and  C_13
REMARK    2  A    between atoms: O_5  and  C_16
REMARK    3  A    between atoms: O_7  and  C_20
REMARK    4  A    between atoms: O_10  and  C_26
REMARK    5  A    between atoms: C_17  and  C_18
REMARK                            x       y       z     vdW  Elec       q    Type
REMARK                         _______ _______ _______ _____ _____    ______ ____
ROOT
ATOM      1  O   UNL     1     113.222 127.254 136.402  0.00  0.00    +0.000 OA
ATOM      2  O   UNL     1     111.429 124.466 136.382  0.00  0.00    +0.000 OA
ATOM      3  O   UNL     1     112.655 124.396 136.886  0.00  0.00    +0.000 OA
ATOM      4  O   UNL     1     110.883 127.378 135.442  0.00  0.00    +0.000 OA
ATOM      5  C   UNL     1     111.955 126.603 136.061  0.00  0.00    +0.000 A 
ATOM      6  C   UNL     1     112.717 126.560 136.374  0.00  0.00    +0.000 A 
ATOM      7  C   UNL     1     111.479 125.929 136.039  0.00  0.00    +0.000 A 
ATOM      8  C   UNL     1     111.765 125.213 136.330  0.00  0.00    +0.000 A 
ATOM      9  C   UNL     1     112.527 125.170 136.643  0.00  0.00    +0.000 A 
ATOM     10  C   UNL     1     113.003 125.843 136.666  0.00  0.00    +0.000 A 
ATOM     11  C   UNL     1     112.930 128.004 136.100  0.00  0.00    +0.000 A 
ATOM     12  C   UNL     1     111.646 127.344 135.754  0.00  0.00    +0.000 A 
ATOM     13  C   UNL     1     112.137 128.049 135.774  0.00  0.00    +0.000 A 
ATOM     14  C   UNL     1     111.978 123.963 136.725  0.00  0.00    +0.000 C 
ENDROOT
BRANCH  11  17
ATOM     15  O   UNL     1     114.875 129.868 134.952  0.00  0.00    +0.000 OA
ATOM     16  O   UNL     1     114.885 130.638 136.033  0.00  0.00    +0.000 OA
ATOM     17  C   UNL     1     113.409 128.676 136.123  0.00  0.00    +0.000 A 
ATOM     18  C   UNL     1     113.880 128.870 135.475  0.00  0.00    +0.000 A 
ATOM     19  C   UNL     1     114.358 129.541 135.498  0.00  0.00    +0.000 A 
ATOM     20  C   UNL     1     113.415 129.154 136.795  0.00  0.00    +0.000 A 
ATOM     21  C   UNL     1     114.364 130.019 136.170  0.00  0.00    +0.000 A 
ATOM     22  C   UNL     1     113.893 129.826 136.819  0.00  0.00    +0.000 A 
ATOM     23  C   UNL     1     115.200 130.544 135.281  0.00  0.00    +0.000 C 
BRANCH  22  24
ATOM     24  O   UNL     1     113.899 130.305 137.491  0.00  0.00    +0.000 OA
ATOM     25  C   UNL     1     113.602 130.018 138.205  0.00  0.00    +0.000 C 
ENDBRANCH  22  24
ENDBRANCH  11  17
BRANCH   7  26
ATOM     26  O   UNL     1     110.717 125.973 135.726  0.00  0.00    +0.000 OA
ATOM     27  C   UNL     1     110.585 125.783 134.934  0.00  0.00    +0.000 C 
ENDBRANCH   7  26
BRANCH  10  28
ATOM     28  O   UNL     1     113.764 125.799 136.978  0.00  0.00    +0.000 OA
ATOM     29  C   UNL     1     114.354 125.386 136.575  0.00  0.00    +0.000 C 
ENDBRANCH  10  28
BRANCH  13  30
ATOM     30  O   UNL     1     111.849 128.765 135.482  0.00  0.00    +0.000 OA
ATOM     31  C   UNL     1     111.053 128.958 135.579  0.00  0.00    +0.000 C 
ENDBRANCH  13  30
TORSDOF 5
ENDMDL
MODEL 3
REMARK VINA RESULT:      -8.3      0.938      2.171
REMARK  Name = 44260080
REMARK  5 active torsions:
REMARK  status: ('A' for Active; 'I' for Inactive)
REMARK    1  A    between atoms: O_4  and  C_13
REMARK    2  A    between atoms: O_5  and  C_16
REMARK    3  A    between atoms: O_7  and  C_20
REMARK    4  A    between atoms: O_10  and  C_26
REMARK    5  A    between atoms: C_17  and  C_18
REMARK                            x       y       z     vdW  Elec       q    Type
REMARK                         _______ _______ _______ _____ _____    ______ ____
ROOT
ATOM      1  O   UNL     1     104.522 125.117 147.507  0.00  0.00    +0.000 OA
ATOM      2  O   UNL     1     101.361 124.195 147.125  0.00  0.00    +0.000 OA
ATOM      3  O   UNL     1     101.668 124.872 148.225  0.00  0.00    +0.000 OA
ATOM      4  O   UNL     1     103.928 123.825 145.412  0.00  0.00    +0.000 OA
ATOM      5  C   UNL     1     103.527 124.434 146.677  0.00  0.00    +0.000 A 
ATOM      6  C   UNL     1     103.717 124.855 147.360  0.00  0.00    +0.000 A 
ATOM      7  C   UNL     1     102.750 124.188 146.548  0.00  0.00    +0.000 A 
ATOM      8  C   UNL     1     102.164 124.363 147.101  0.00  0.00    +0.000 A 
ATOM      9  C   UNL     1     102.355 124.783 147.785  0.00  0.00    +0.000 A 
ATOM     10  C   UNL     1     103.131 125.030 147.915  0.00  0.00    +0.000 A 
ATOM     11  C   UNL     1     105.137 124.938 146.933  0.00  0.00    +0.000 A 
ATOM     12  C   UNL     1     104.127 124.246 146.093  0.00  0.00    +0.000 A 
ATOM     13  C   UNL     1     104.939 124.500 146.222  0.00  0.00    +0.000 A 
ATOM     14  C   UNL     1     101.056 124.510 147.818  0.00  0.00    +0.000 C 
ENDROOT
BRANCH  11  17
ATOM     15  O   UNL     1     107.835 124.610 148.023  0.00  0.00    +0.000 OA
ATOM     16  O   UNL     1     108.250 125.777 147.545  0.00  0.00    +0.000 OA
ATOM     17  C   UNL     1     105.913 125.186 147.065  0.00  0.00    +0.000 A 
ATOM     18  C   UNL     1     106.432 124.709 147.494  0.00  0.00    +0.000 A 
ATOM     19  C   UNL     1     107.207 124.956 147.626  0.00  0.00    +0.000 A 
ATOM     20  C   UNL     1     106.170 125.911 146.768  0.00  0.00    +0.000 A 
ATOM     21  C   UNL     1     107.464 125.682 147.329  0.00  0.00    +0.000 A 
ATOM     22  C   UNL     1     106.946 126.159 146.899  0.00  0.00    +0.000 A 
ATOM     23  C   UNL     1     108.479 125.116 147.973  0.00  0.00    +0.000 C 
BRANCH  22  24
ATOM     24  O   UNL     1     107.204 126.884 146.602  0.00  0.00    +0.000 OA
ATOM     25  C   UNL     1     106.681 127.521 146.556  0.00  0.00    +0.000 C 
ENDBRANCH  22  24
ENDBRANCH  11  17
BRANCH   7  26
ATOM     26  O   UNL     1     102.559 123.767 145.864  0.00  0.00    +0.000 OA
ATOM     27  C   UNL     1     102.549 122.943 145.876  0.00  0.00    +0.000 C 
ENDBRANCH   7  26
BRANCH  10  28
ATOM     28  O   UNL     1     103.322 125.450 148.597  0.00  0.00    +0.000 OA
ATOM     29  C   UNL     1     103.310 125.073 149.331  0.00  0.00    +0.000 C 
ENDBRANCH  10  28
BRANCH  13  30
ATOM     30  O   UNL     1     105.523 124.324 145.666  0.00  0.00    +0.000 OA
ATOM     31  C   UNL     1     105.337 124.316 144.862  0.00  0.00    +0.000 C 
ENDBRANCH  13  30
TORSDOF 5
ENDMDL
MODEL 4
REMARK VINA RESULT:      -8.2      1.209      4.696
REMARK  Name = 44260080
REMARK  5 active torsions:
REMARK  status: ('A' for Active; 'I' for Inactive)
REMARK    1  A    between atoms: O_4  and  C_13
REMARK    2  A    between atoms: O_5  and  C_16
REMARK    3  A    between atoms: O_7  and  C_20
REMARK    4  A    between atoms: O_10  and  C_26
REMARK    5  A    between atoms: C_17  and  C_18
REMARK                            x       y       z     vdW  Elec       q    Type
REMARK                         _______ _______ _______ _____ _____    ______ ____
ROOT
ATOM      1  O   UNL     1     104.520 124.683 147.966  0.00  0.00    +0.000 OA
ATOM      2  O   UNL     1     107.568 125.196 146.769  0.00  0.00    +0.000 OA
ATOM      3  O   UNL     1     107.406 125.300 148.082  0.00  0.00    +0.000 OA
ATOM      4  O   UNL     1     104.839 124.487 145.462  0.00  0.00    +0.000 OA
ATOM      5  C   UNL     1     105.391 124.742 146.789  0.00  0.00    +0.000 A 
ATOM      6  C   UNL     1     105.290 124.807 147.606  0.00  0.00    +0.000 A 
ATOM      7  C   UNL     1     106.136 124.863 146.455  0.00  0.00    +0.000 A 
ATOM      8  C   UNL     1     106.779 125.048 146.937  0.00  0.00    +0.000 A 
ATOM      9  C   UNL     1     106.678 125.113 147.753  0.00  0.00    +0.000 A 
ATOM     10  C   UNL     1     105.934 124.992 148.088  0.00  0.00    +0.000 A 
ATOM     11  C   UNL     1     103.846 124.490 147.469  0.00  0.00    +0.000 A 
ATOM     12  C   UNL     1     104.729 124.550 146.277  0.00  0.00    +0.000 A 
ATOM     13  C   UNL     1     103.951 124.423 146.619  0.00  0.00    +0.000 A 
ATOM     14  C   UNL     1     107.954 125.351 147.475  0.00  0.00    +0.000 C 
ENDROOT
BRANCH  11  17
ATOM     15  O   UNL     1     101.721 122.809 148.582  0.00  0.00    +0.000 OA
ATOM     16  O   UNL     1     100.923 123.844 148.814  0.00  0.00    +0.000 OA
ATOM     17  C   UNL     1     103.102 124.370 147.806  0.00  0.00    +0.000 A 
ATOM     18  C   UNL     1     102.855 123.607 147.999  0.00  0.00    +0.000 A 
ATOM     19  C   UNL     1     102.111 123.487 148.336  0.00  0.00    +0.000 A 
ATOM     20  C   UNL     1     102.607 125.014 147.950  0.00  0.00    +0.000 A 
ATOM     21  C   UNL     1     101.616 124.131 148.480  0.00  0.00    +0.000 A 
ATOM     22  C   UNL     1     101.863 124.894 148.288  0.00  0.00    +0.000 A 
ATOM     23  C   UNL     1     100.989 123.029 148.876  0.00  0.00    +0.000 C 
BRANCH  22  24
ATOM     24  O   UNL     1     101.367 125.537 148.432  0.00  0.00    +0.000 OA
ATOM     25  C   UNL     1     101.689 126.274 148.617  0.00  0.00    +0.000 C 
ENDBRANCH  22  24
ENDBRANCH  11  17
BRANCH   7  26
ATOM     26  O   UNL     1     106.237 124.798 145.639  0.00  0.00    +0.000 OA
ATOM     27  C   UNL     1     106.146 125.462 145.158  0.00  0.00    +0.000 C 
ENDBRANCH   7  26
BRANCH  10  28
ATOM     28  O   UNL     1     105.833 125.057 148.903  0.00  0.00    +0.000 OA
ATOM     29  C   UNL     1     105.882 125.795 149.268  0.00  0.00    +0.000 C 
ENDBRANCH  10  28
BRANCH  13  30
ATOM     30  O   UNL     1     103.309 124.238 146.135  0.00  0.00    +0.000 OA
ATOM     31  C   UNL     1     103.390 123.667 145.545  0.00  0.00    +0.000 C 
ENDBRANCH  13  30
TORSDOF 5
ENDMDL
MODEL 5
REMARK VINA RESULT:      -8.1      2.218      4.276
REMARK  Name = 44260080
REMARK  5 active torsions:
REMARK  status: ('A' for Active; 'I' for Inactive)
REMARK    1  A    between atoms: O_4  and  C_13
REMARK    2  A    between atoms: O_5  and  C_16
REMARK    3  A    between atoms: O_7  and  C_20
REMARK    4  A    between atoms: O_10  and  C_26
REMARK    5  A    between atoms: C_17  and  C_18
REMARK                            x       y       z     vdW  Elec       q    Type
REMARK                         _______ _______ _______ _____ _____    ______ ____
ROOT
ATOM      1  O   UNL     1     106.722 126.323 146.101  0.00  0.00    +0.000 OA
ATOM      2  O   UNL     1     106.214 127.048 142.907  0.00  0.00    +0.000 OA
ATOM      3  O   UNL     1     106.966 127.887 143.608  0.00  0.00    +0.000 OA
ATOM      4  O   UNL     1     105.288 124.727 144.757  0.00  0.00    +0.000 OA
ATOM      5  C   UNL     1     106.092 125.944 144.834  0.00  0.00    +0.000 A 
ATOM      6  C   UNL     1     106.560 126.465 145.270  0.00  0.00    +0.000 A 
ATOM      7  C   UNL     1     105.944 126.092 144.036  0.00  0.00    +0.000 A 
ATOM      8  C   UNL     1     106.263 126.760 143.674  0.00  0.00    +0.000 A 
ATOM      9  C   UNL     1     106.730 127.282 144.110  0.00  0.00    +0.000 A 
ATOM     10  C   UNL     1     106.879 127.135 144.908  0.00  0.00    +0.000 A 
ATOM     11  C   UNL     1     106.393 125.628 146.485  0.00  0.00    +0.000 A 
ATOM     12  C   UNL     1     105.755 125.244 145.200  0.00  0.00    +0.000 A 
ATOM     13  C   UNL     1     105.906 125.084 146.031  0.00  0.00    +0.000 A 
ATOM     14  C   UNL     1     106.647 127.743 142.868  0.00  0.00    +0.000 C 
ENDROOT
BRANCH  11  17
ATOM     15  O   UNL     1     107.922 124.444 148.683  0.00  0.00    +0.000 OA
ATOM     16  O   UNL     1     107.126 124.958 149.612  0.00  0.00    +0.000 OA
ATOM     17  C   UNL     1     106.543 125.483 147.283  0.00  0.00    +0.000 A 
ATOM     18  C   UNL     1     107.187 125.018 147.504  0.00  0.00    +0.000 A 
ATOM     19  C   UNL     1     107.337 124.873 148.302  0.00  0.00    +0.000 A 
ATOM     20  C   UNL     1     106.047 125.803 147.860  0.00  0.00    +0.000 A 
ATOM     21  C   UNL     1     106.842 125.193 148.879  0.00  0.00    +0.000 A 
ATOM     22  C   UNL     1     106.197 125.658 148.659  0.00  0.00    +0.000 A 
ATOM     23  C   UNL     1     107.792 124.495 149.491  0.00  0.00    +0.000 C 
BRANCH  22  24
ATOM     24  O   UNL     1     105.702 125.977 149.236  0.00  0.00    +0.000 OA
ATOM     25  C   UNL     1     105.306 126.687 149.093  0.00  0.00    +0.000 C 
ENDBRANCH  22  24
ENDBRANCH  11  17
BRANCH   7  26
ATOM     26  O   UNL     1     105.477 125.570 143.600  0.00  0.00    +0.000 OA
ATOM     27  C   UNL     1     105.829 124.965 143.164  0.00  0.00    +0.000 C 
ENDBRANCH   7  26
BRANCH  10  28
ATOM     28  O   UNL     1     107.346 127.656 145.343  0.00  0.00    +0.000 OA
ATOM     29  C   UNL     1     107.061 128.407 145.532  0.00  0.00    +0.000 C 
ENDBRANCH  10  28
BRANCH  13  30
ATOM     30  O   UNL     1     105.586 124.415 146.391  0.00  0.00    +0.000 OA
ATOM     31  C   UNL     1     104.812 124.184 146.218  0.00  0.00    +0.000 C 
ENDBRANCH  13  30
TORSDOF 5
ENDMDL
MODEL 6
REMARK VINA RESULT:      -7.9      2.392      3.735
REMARK  Name = 44260080
REMARK  5 active torsions:
REMARK  status: ('A' for Active; 'I' for Inactive)
REMARK    1  A    between atoms: O_4  and  C_13
REMARK    2  A    between atoms: O_5  and  C_16
REMARK    3  A    between atoms: O_7  and  C_20
REMARK    4  A    between atoms: O_10  and  C_26
REMARK    5  A    between atoms: C_17  and  C_18
REMARK                            x       y       z     vdW  Elec       q    Type
REMARK                         _______ _______ _______ _____ _____    ______ ____
ROOT
ATOM      1  O   UNL     1     106.271 125.170 145.995  0.00  0.00    +0.000 OA
ATOM      2  O   UNL     1     105.802 126.351 142.933  0.00  0.00    +0.000 OA
ATOM      3  O   UNL     1     105.713 125.037 143.098  0.00  0.00    +0.000 OA
ATOM      4  O   UNL     1     106.440 127.676 145.672  0.00  0.00    +0.000 OA
ATOM      5  C   UNL     1     106.213 126.343 145.119  0.00  0.00    +0.000 A 
ATOM      6  C   UNL     1     106.158 125.526 145.221  0.00  0.00    +0.000 A 
ATOM      7  C   UNL     1     106.103 126.673 144.371  0.00  0.00    +0.000 A 
ATOM      8  C   UNL     1     105.937 126.187 143.726  0.00  0.00    +0.000 A 
ATOM      9  C   UNL     1     105.881 125.370 143.828  0.00  0.00    +0.000 A 
ATOM     10  C   UNL     1     105.991 125.039 144.575  0.00  0.00    +0.000 A 
ATOM     11  C   UNL     1     106.444 125.671 146.671  0.00  0.00    +0.000 A 
ATOM     12  C   UNL     1     106.386 126.860 145.783  0.00  0.00    +0.000 A 
ATOM     13  C   UNL     1     106.502 126.521 146.565  0.00  0.00    +0.000 A 
ATOM     14  C   UNL     1     105.665 125.641 142.546  0.00  0.00    +0.000 C 
ENDROOT
BRANCH  11  17
ATOM     15  O   UNL     1     108.099 124.608 148.840  0.00  0.00    +0.000 OA
ATOM     16  O   UNL     1     107.050 124.347 149.611  0.00  0.00    +0.000 OA
ATOM     17  C   UNL     1     106.554 125.338 147.418  0.00  0.00    +0.000 A 
ATOM     18  C   UNL     1     107.315 125.167 147.686  0.00  0.00    +0.000 A 
ATOM     19  C   UNL     1     107.425 124.834 148.433  0.00  0.00    +0.000 A 
ATOM     20  C   UNL     1     105.902 125.176 147.897  0.00  0.00    +0.000 A 
ATOM     21  C   UNL     1     106.773 124.672 148.911  0.00  0.00    +0.000 A 
ATOM     22  C   UNL     1     106.011 124.843 148.644  0.00  0.00    +0.000 A 
ATOM     23  C   UNL     1     107.868 124.307 149.567  0.00  0.00    +0.000 C 
BRANCH  22  24
ATOM     24  O   UNL     1     105.359 124.681 149.123  0.00  0.00    +0.000 OA
ATOM     25  C   UNL     1     104.598 124.701 148.805  0.00  0.00    +0.000 C 
ENDBRANCH  22  24
ENDBRANCH  11  17
BRANCH   7  26
ATOM     26  O   UNL     1     106.158 127.490 144.268  0.00  0.00    +0.000 OA
ATOM     27  C   UNL     1     106.882 127.833 144.073  0.00  0.00    +0.000 C 
ENDBRANCH   7  26
BRANCH  10  28
ATOM     28  O   UNL     1     105.936 124.224 144.678  0.00  0.00    +0.000 OA
ATOM     29  C   UNL     1     105.203 123.850 144.624  0.00  0.00    +0.000 C 
ENDBRANCH  10  28
BRANCH  13  30
ATOM     30  O   UNL     1     106.668 127.010 147.209  0.00  0.00    +0.000 OA
ATOM     31  C   UNL     1     106.308 127.750 147.267  0.00  0.00    +0.000 C 
ENDBRANCH  13  30
TORSDOF 5
ENDMDL
MODEL 7
REMARK VINA RESULT:      -7.9     11.620     14.057
REMARK  Name = 44260080
REMARK  5 active torsions:
REMARK  status: ('A' for Active; 'I' for Inactive)
REMARK    1  A    between atoms: O_4  and  C_13
REMARK    2  A    between atoms: O_5  and  C_16
REMARK    3  A    between atoms: O_7  and  C_20
REMARK    4  A    between atoms: O_10  and  C_26
REMARK    5  A    between atoms: C_17  and  C_18
REMARK                            x       y       z     vdW  Elec       q    Type
REMARK                         _______ _______ _______ _____ _____    ______ ____
ROOT
ATOM      1  O   UNL     1     112.776 127.556 136.390  0.00  0.00    +0.000 OA
ATOM      2  O   UNL     1     113.681 130.658 137.131  0.00  0.00    +0.000 OA
ATOM      3  O   UNL     1     114.154 130.140 136.005  0.00  0.00    +0.000 OA
ATOM      4  O   UNL     1     111.878 128.553 138.537  0.00  0.00    +0.000 OA
ATOM      5  C   UNL     1     112.686 128.678 137.328  0.00  0.00    +0.000 A 
ATOM      6  C   UNL     1     112.981 128.356 136.628  0.00  0.00    +0.000 A 
ATOM      7  C   UNL     1     112.890 129.448 137.545  0.00  0.00    +0.000 A 
ATOM      8  C   UNL     1     113.387 129.895 137.063  0.00  0.00    +0.000 A 
ATOM      9  C   UNL     1     113.682 129.573 136.363  0.00  0.00    +0.000 A 
ATOM     10  C   UNL     1     113.479 128.803 136.145  0.00  0.00    +0.000 A 
ATOM     11  C   UNL     1     112.258 127.085 136.889  0.00  0.00    +0.000 A 
ATOM     12  C   UNL     1     112.168 128.223 137.839  0.00  0.00    +0.000 A 
ATOM     13  C   UNL     1     111.952 127.420 137.618  0.00  0.00    +0.000 A 
ATOM     14  C   UNL     1     114.154 130.808 136.478  0.00  0.00    +0.000 C 
ENDROOT
BRANCH  11  17
ATOM     15  O   UNL     1     112.602 124.178 136.939  0.00  0.00    +0.000 OA
ATOM     16  O   UNL     1     111.585 123.969 136.113  0.00  0.00    +0.000 OA
ATOM     17  C   UNL     1     112.057 126.316 136.669  0.00  0.00    +0.000 A 
ATOM     18  C   UNL     1     112.487 125.676 136.962  0.00  0.00    +0.000 A 
ATOM     19  C   UNL     1     112.285 124.907 136.742  0.00  0.00    +0.000 A 
ATOM     20  C   UNL     1     111.424 126.187 136.155  0.00  0.00    +0.000 A 
ATOM     21  C   UNL     1     111.652 124.778 136.229  0.00  0.00    +0.000 A 
ATOM     22  C   UNL     1     111.221 125.418 135.935  0.00  0.00    +0.000 A 
ATOM     23  C   UNL     1     112.171 123.599 136.551  0.00  0.00    +0.000 C 
BRANCH  22  24
ATOM     24  O   UNL     1     110.589 125.288 135.421  0.00  0.00    +0.000 OA
ATOM     25  C   UNL     1     110.330 125.894 134.925  0.00  0.00    +0.000 C 
ENDBRANCH  22  24
ENDBRANCH  11  17
BRANCH   7  26
ATOM     26  O   UNL     1     112.596 129.770 138.245  0.00  0.00    +0.000 OA
ATOM     27  C   UNL     1     113.045 129.737 138.936  0.00  0.00    +0.000 C 
ENDBRANCH   7  26
BRANCH  10  28
ATOM     28  O   UNL     1     113.773 128.482 135.445  0.00  0.00    +0.000 OA
ATOM     29  C   UNL     1     114.582 128.345 135.362  0.00  0.00    +0.000 C 
ENDBRANCH  10  28
BRANCH  13  30
ATOM     30  O   UNL     1     111.454 126.975 138.102  0.00  0.00    +0.000 OA
ATOM     31  C   UNL     1     110.834 127.343 138.503  0.00  0.00    +0.000 C 
ENDBRANCH  13  30
TORSDOF 5
ENDMDL
MODEL 8
REMARK VINA RESULT:      -7.9     11.186     13.620
REMARK  Name = 44260080
REMARK  5 active torsions:
REMARK  status: ('A' for Active; 'I' for Inactive)
REMARK    1  A    between atoms: O_4  and  C_13
REMARK    2  A    between atoms: O_5  and  C_16
REMARK    3  A    between atoms: O_7  and  C_20
REMARK    4  A    between atoms: O_10  and  C_26
REMARK    5  A    between atoms: C_17  and  C_18
REMARK                            x       y       z     vdW  Elec       q    Type
REMARK                         _______ _______ _______ _____ _____    ______ ____
ROOT
ATOM      1  O   UNL     1     110.731 127.209 136.062  0.00  0.00    +0.000 OA
ATOM      2  O   UNL     1     110.442 130.279 134.846  0.00  0.00    +0.000 OA
ATOM      3  O   UNL     1     109.368 129.501 134.794  0.00  0.00    +0.000 OA
ATOM      4  O   UNL     1     112.776 128.699 136.158  0.00  0.00    +0.000 OA
ATOM      5  C   UNL     1     111.376 128.496 135.793  0.00  0.00    +0.000 A 
ATOM      6  C   UNL     1     110.709 128.013 135.760  0.00  0.00    +0.000 A 
ATOM      7  C   UNL     1     111.342 129.267 135.500  0.00  0.00    +0.000 A 
ATOM      8  C   UNL     1     110.641 129.554 135.174  0.00  0.00    +0.000 A 
ATOM      9  C   UNL     1     109.973 129.070 135.142  0.00  0.00    +0.000 A 
ATOM     10  C   UNL     1     110.006 128.300 135.435  0.00  0.00    +0.000 A 
ATOM     11  C   UNL     1     111.459 126.904 136.402  0.00  0.00    +0.000 A 
ATOM     12  C   UNL     1     112.113 128.209 136.129  0.00  0.00    +0.000 A 
ATOM     13  C   UNL     1     112.155 127.407 136.436  0.00  0.00    +0.000 A 
ATOM     14  C   UNL     1     109.657 130.245 134.612  0.00  0.00    +0.000 C 
ENDROOT
BRANCH  11  17
ATOM     15  O   UNL     1     111.982 124.033 136.152  0.00  0.00    +0.000 OA
ATOM     16  O   UNL     1     111.638 123.786 137.410  0.00  0.00    +0.000 OA
ATOM     17  C   UNL     1     111.491 126.133 136.695  0.00  0.00    +0.000 A 
ATOM     18  C   UNL     1     111.735 125.515 136.206  0.00  0.00    +0.000 A 
ATOM     19  C   UNL     1     111.766 124.744 136.498  0.00  0.00    +0.000 A 
ATOM     20  C   UNL     1     111.277 125.980 137.477  0.00  0.00    +0.000 A 
ATOM     21  C   UNL     1     111.553 124.592 137.280  0.00  0.00    +0.000 A 
ATOM     22  C   UNL     1     111.308 125.209 137.770  0.00  0.00    +0.000 A 
ATOM     23  C   UNL     1     111.903 123.442 136.715  0.00  0.00    +0.000 C 
BRANCH  22  24
ATOM     24  O   UNL     1     111.095 125.056 138.552  0.00  0.00    +0.000 OA
ATOM     25  C   UNL     1     110.636 125.600 138.969  0.00  0.00    +0.000 C 
ENDBRANCH  22  24
ENDBRANCH  11  17
BRANCH   7  26
ATOM     26  O   UNL     1     112.009 129.750 135.532  0.00  0.00    +0.000 OA
ATOM     27  C   UNL     1     112.110 130.273 136.162  0.00  0.00    +0.000 C 
ENDBRANCH   7  26
BRANCH  10  28
ATOM     28  O   UNL     1     109.339 127.817 135.402  0.00  0.00    +0.000 OA
ATOM     29  C   UNL     1     108.666 128.012 135.837  0.00  0.00    +0.000 C 
ENDBRANCH  10  28
BRANCH  13  30
ATOM     30  O   UNL     1     112.857 127.123 136.761  0.00  0.00    +0.000 OA
ATOM     31  C   UNL     1     113.582 127.401 136.482  0.00  0.00    +0.000 C 
ENDBRANCH  13  30
TORSDOF 5
ENDMDL
MODEL 9
REMARK VINA RESULT:      -7.9     11.709     13.845
REMARK  Name = 44260080
REMARK  5 active torsions:
REMARK  status: ('A' for Active; 'I' for Inactive)
REMARK    1  A    between atoms: O_4  and  C_13
REMARK    2  A    between atoms: O_5  and  C_16
REMARK    3  A    between atoms: O_7  and  C_20
REMARK    4  A    between atoms: O_10  and  C_26
REMARK    5  A    between atoms: C_17  and  C_18
REMARK                            x       y       z     vdW  Elec       q    Type
REMARK                         _______ _______ _______ _____ _____    ______ ____
ROOT
ATOM      1  O   UNL     1     111.886 127.048 136.854  0.00  0.00    +0.000 OA
ATOM      2  O   UNL     1     112.830 123.872 136.778  0.00  0.00    +0.000 OA
ATOM      3  O   UNL     1     111.562 124.121 137.081  0.00  0.00    +0.000 OA
ATOM      4  O   UNL     1     114.303 126.562 136.277  0.00  0.00    +0.000 OA
ATOM      5  C   UNL     1     112.969 126.087 136.633  0.00  0.00    +0.000 A 
ATOM      6  C   UNL     1     112.181 126.242 136.821  0.00  0.00    +0.000 A 
ATOM      7  C   UNL     1     113.240 125.308 136.604  0.00  0.00    +0.000 A 
ATOM      8  C   UNL     1     112.724 124.685 136.764  0.00  0.00    +0.000 A 
ATOM      9  C   UNL     1     111.936 124.840 136.952  0.00  0.00    +0.000 A 
ATOM     10  C   UNL     1     111.664 125.618 136.981  0.00  0.00    +0.000 A 
ATOM     11  C   UNL     1     112.419 127.702 136.689  0.00  0.00    +0.000 A 
ATOM     12  C   UNL     1     113.516 126.726 136.465  0.00  0.00    +0.000 A 
ATOM     13  C   UNL     1     113.240 127.540 136.493  0.00  0.00    +0.000 A 
ATOM     14  C   UNL     1     112.113 123.525 136.974  0.00  0.00    +0.000 C 
ENDROOT
BRANCH  11  17
ATOM     15  O   UNL     1     112.001 130.277 138.019  0.00  0.00    +0.000 OA
ATOM     16  O   UNL     1     111.389 130.804 136.966  0.00  0.00    +0.000 OA
ATOM     17  C   UNL     1     112.145 128.479 136.718  0.00  0.00    +0.000 A 
ATOM     18  C   UNL     1     112.251 128.929 137.401  0.00  0.00    +0.000 A 
ATOM     19  C   UNL     1     111.977 129.707 137.431  0.00  0.00    +0.000 A 
ATOM     20  C   UNL     1     111.764 128.807 136.064  0.00  0.00    +0.000 A 
ATOM     21  C   UNL     1     111.596 130.034 136.776  0.00  0.00    +0.000 A 
ATOM     22  C   UNL     1     111.490 129.584 136.092  0.00  0.00    +0.000 A 
ATOM     23  C   UNL     1     111.639 130.954 137.733  0.00  0.00    +0.000 C 
BRANCH  22  24
ATOM     24  O   UNL     1     111.109 129.912 135.438  0.00  0.00    +0.000 OA
ATOM     25  C   UNL     1     110.728 129.423 134.894  0.00  0.00    +0.000 C 
ENDBRANCH  22  24
ENDBRANCH  11  17
BRANCH   7  26
ATOM     26  O   UNL     1     114.028 125.152 136.416  0.00  0.00    +0.000 OA
ATOM     27  C   UNL     1     114.583 125.049 137.017  0.00  0.00    +0.000 C 
ENDBRANCH   7  26
BRANCH  10  28
ATOM     28  O   UNL     1     110.877 125.774 137.170  0.00  0.00    +0.000 OA
ATOM     29  C   UNL     1     110.611 125.680 137.945  0.00  0.00    +0.000 C 
ENDBRANCH  10  28
BRANCH  13  30
ATOM     30  O   UNL     1     113.758 128.161 136.333  0.00  0.00    +0.000 OA
ATOM     31  C   UNL     1     114.306 128.092 135.720  0.00  0.00    +0.000 C 
ENDBRANCH  13  30
TORSDOF 5
ENDMDL
MODEL 10
REMARK VINA RESULT:      -7.9     12.861     14.320
REMARK  Name = 44260080
REMARK  5 active torsions:
REMARK  status: ('A' for Active; 'I' for Inactive)
REMARK    1  A    between atoms: O_4  and  C_13
REMARK    2  A    between atoms: O_5  and  C_16
REMARK    3  A    between atoms: O_7  and  C_20
REMARK    4  A    between atoms: O_10  and  C_26
REMARK    5  A    between atoms: C_17  and  C_18
REMARK                            x       y       z     vdW  Elec       q    Type
REMARK                         _______ _______ _______ _____ _____    ______ ____
ROOT
ATOM      1  O   UNL     1     112.074 127.978 135.616  0.00  0.00    +0.000 OA
ATOM      2  O   UNL     1     110.063 125.381 135.166  0.00  0.00    +0.000 OA
ATOM      3  O   UNL     1     109.702 126.533 134.614  0.00  0.00    +0.000 OA
ATOM      4  O   UNL     1     112.756 125.777 136.668  0.00  0.00    +0.000 OA
ATOM      5  C   UNL     1     111.812 126.559 135.873  0.00  0.00    +0.000 A 
ATOM      6  C   UNL     1     111.588 127.275 135.530  0.00  0.00    +0.000 A 
ATOM      7  C   UNL     1     111.336 125.891 135.782  0.00  0.00    +0.000 A 
ATOM      8  C   UNL     1     110.637 125.938 135.348  0.00  0.00    +0.000 A 
ATOM      9  C   UNL     1     110.412 126.654 135.005  0.00  0.00    +0.000 A 
ATOM     10  C   UNL     1     110.887 127.323 135.095  0.00  0.00    +0.000 A 
ATOM     11  C   UNL     1     112.804 127.935 136.068  0.00  0.00    +0.000 A 
ATOM     12  C   UNL     1     112.538 126.497 136.327  0.00  0.00    +0.000 A 
ATOM     13  C   UNL     1     113.038 127.190 136.426  0.00  0.00    +0.000 A 
ATOM     14  C   UNL     1     109.486 125.749 134.713  0.00  0.00    +0.000 C 
ENDROOT
BRANCH  11  17
ATOM     15  O   UNL     1     114.931 129.762 135.225  0.00  0.00    +0.000 OA
ATOM     16  O   UNL     1     114.766 130.556 136.275  0.00  0.00    +0.000 OA
ATOM     17  C   UNL     1     113.278 128.604 136.157  0.00  0.00    +0.000 A 
ATOM     18  C   UNL     1     113.854 128.781 135.594  0.00  0.00    +0.000 A 
ATOM     19  C   UNL     1     114.327 129.451 135.682  0.00  0.00    +0.000 A 
ATOM     20  C   UNL     1     113.174 129.098 136.810  0.00  0.00    +0.000 A 
ATOM     21  C   UNL     1     114.224 129.944 136.336  0.00  0.00    +0.000 A 
ATOM     22  C   UNL     1     113.648 129.768 136.900  0.00  0.00    +0.000 A 
ATOM     23  C   UNL     1     115.203 130.444 135.590  0.00  0.00    +0.000 C 
BRANCH  22  24
ATOM     24  O   UNL     1     113.545 130.262 137.552  0.00  0.00    +0.000 OA
ATOM     25  C   UNL     1     112.795 130.360 137.881  0.00  0.00    +0.000 C 
ENDBRANCH  22  24
ENDBRANCH  11  17
BRANCH   7  26
ATOM     26  O   UNL     1     111.561 125.176 136.126  0.00  0.00    +0.000 OA
ATOM     27  C   UNL     1     111.275 124.968 136.871  0.00  0.00    +0.000 C 
ENDBRANCH   7  26
BRANCH  10  28
ATOM     28  O   UNL     1     110.663 128.037 134.752  0.00  0.00    +0.000 OA
ATOM     29  C   UNL     1     110.010 128.449 135.044  0.00  0.00    +0.000 C 
ENDBRANCH  10  28
BRANCH  13  30
ATOM     30  O   UNL     1     113.738 127.139 136.860  0.00  0.00    +0.000 OA
ATOM     31  C   UNL     1     114.180 126.443 136.849  0.00  0.00    +0.000 C 
ENDBRANCH  13  30
TORSDOF 5
ENDMDL
