MODEL 1
REMARK VINA RESULT:     -10.7      0.000      0.000
REMARK  Name = 42607911
REMARK  12 active torsions:
REMARK  status: ('A' for Active; 'I' for Inactive)
REMARK    1  A    between atoms: O_2  and  C_15
REMARK    2  A    between atoms: O_2  and  C_22
REMARK    3  A    between atoms: O_3  and  C_19
REMARK    4  A    between atoms: O_3  and  C_21
REMARK    5  A    between atoms: O_6  and  C_20
REMARK    6  A    between atoms: O_6  and  C_31
REMARK    7  A    between atoms: C_18  and  C_20
REMARK    8  A    between atoms: C_22  and  C_32
REMARK    9  A    between atoms: C_27  and  C_33
REMARK   10  A    between atoms: C_31  and  C_34
REMARK   11  A    between atoms: C_37  and  C_40
REMARK   12  A    between atoms: C_42  and  C_43
REMARK                            x       y       z     vdW  Elec       q    Type
REMARK                         _______ _______ _______ _____ _____    ______ ____
ROOT
ATOM      1  O   UNL     1     112.331 128.668 141.479  0.00  0.00    +0.000 OA
ATOM      2  O   UNL     1     112.092 130.678 142.296  0.00  0.00    +0.000 OA
ATOM      3  O   UNL     1     111.038 128.168 143.165  0.00  0.00    +0.000 OA
ATOM      4  C   UNL     1     111.565 129.423 142.730  0.00  0.00    +0.000 C 
ATOM      5  C   UNL     1     112.020 129.862 142.200  0.00  0.00    +0.000 C 
ATOM      6  C   UNL     1     111.493 128.607 142.634  0.00  0.00    +0.000 C 
ATOM      7  C   UNL     1     112.403 129.485 141.574  0.00  0.00    +0.000 C 
ATOM      8  C   UNL     1     111.876 128.229 142.008  0.00  0.00    +0.000 C 
ENDROOT
BRANCH   4   9
ATOM      9  O   UNL     1     111.182 129.800 143.356  0.00  0.00    +0.000 OA
BRANCH   9  11
ATOM     10  O   UNL     1     112.018 129.326 144.413  0.00  0.00    +0.000 OA
ATOM     11  C   UNL     1     111.584 129.934 144.064  0.00  0.00    +0.000 C 
BRANCH  11  12
ATOM     12  C   UNL     1     111.550 130.676 144.424  0.00  0.00    +0.000 C 
ATOM     13  C   UNL     1     111.428 130.735 145.237  0.00  0.00    +0.000 C 
BRANCH  13  15
ATOM     14  O   UNL     1     111.293 133.703 146.674  0.00  0.00    +0.000 OA
ATOM     15  C   UNL     1     111.394 131.477 145.596  0.00  0.00    +0.000 A 
ATOM     16  C   UNL     1     110.680 131.891 145.621  0.00  0.00    +0.000 A 
ATOM     17  C   UNL     1     112.073 131.805 145.931  0.00  0.00    +0.000 A 
ATOM     18  C   UNL     1     110.647 132.633 145.980  0.00  0.00    +0.000 A 
ATOM     19  C   UNL     1     112.039 132.547 146.290  0.00  0.00    +0.000 A 
ATOM     20  C   UNL     1     111.327 132.961 146.315  0.00  0.00    +0.000 A 
ENDBRANCH  13  15
ENDBRANCH  11  12
ENDBRANCH   9  11
ENDBRANCH   4   9
BRANCH   8  21
ATOM     21  O   UNL     1     111.803 127.413 141.913  0.00  0.00    +0.000 OA
BRANCH  21  25
ATOM     22  O   UNL     1     112.675 126.245 139.392  0.00  0.00    +0.000 OA
ATOM     23  O   UNL     1     109.856 126.651 139.873  0.00  0.00    +0.000 OA
ATOM     24  O   UNL     1     110.325 126.075 138.636  0.00  0.00    +0.000 OA
ATOM     25  C   UNL     1     111.627 127.099 141.171  0.00  0.00    +0.000 A 
ATOM     26  C   UNL     1     112.258 126.828 140.654  0.00  0.00    +0.000 A 
ATOM     27  C   UNL     1     112.065 126.503 139.883  0.00  0.00    +0.000 A 
ATOM     28  C   UNL     1     110.810 127.040 140.908  0.00  0.00    +0.000 A 
ATOM     29  C   UNL     1     111.281 126.446 139.632  0.00  0.00    +0.000 A 
ATOM     30  C   UNL     1     112.502 125.930 138.649  0.00  0.00    +0.000 C 
ATOM     31  C   UNL     1     111.720 125.874 138.397  0.00  0.00    +0.000 C 
ATOM     32  C   UNL     1     110.637 126.711 140.134  0.00  0.00    +0.000 A 
ATOM     33  C   UNL     1     111.109 126.132 138.889  0.00  0.00    +0.000 C 
BRANCH  30  35
ATOM     34  O   UNL     1     114.945 124.899 136.684  0.00  0.00    +0.000 OA
ATOM     35  C   UNL     1     113.114 125.672 138.157  0.00  0.00    +0.000 A 
ATOM     36  C   UNL     1     112.940 125.252 137.469  0.00  0.00    +0.000 A 
ATOM     37  C   UNL     1     113.898 125.834 138.355  0.00  0.00    +0.000 A 
ATOM     38  C   UNL     1     113.550 124.995 136.978  0.00  0.00    +0.000 A 
ATOM     39  C   UNL     1     114.508 125.576 137.864  0.00  0.00    +0.000 A 
ATOM     40  C   UNL     1     114.335 125.157 137.175  0.00  0.00    +0.000 A 
ENDBRANCH  30  35
ENDBRANCH  21  25
ENDBRANCH   8  21
BRANCH   7  41
ATOM     41  C   UNL     1     112.858 129.923 141.044  0.00  0.00    +0.000 C 
BRANCH  41  42
ATOM     42  O   UNL     1     112.620 129.997 140.258  0.00  0.00    +0.000 OA
BRANCH  42  44
ATOM     43  O   UNL     1     113.697 130.812 139.793  0.00  0.00    +0.000 OA
ATOM     44  C   UNL     1     113.172 130.187 139.675  0.00  0.00    +0.000 C 
BRANCH  44  45
ATOM     45  C   UNL     1     113.199 129.751 138.975  0.00  0.00    +0.000 C 
ATOM     46  C   UNL     1     112.845 130.046 138.291  0.00  0.00    +0.000 C 
BRANCH  46  48
ATOM     47  O   UNL     1     112.952 128.305 135.490  0.00  0.00    +0.000 OA
ATOM     48  C   UNL     1     112.873 129.611 137.591  0.00  0.00    +0.000 A 
ATOM     49  C   UNL     1     113.599 129.427 137.247  0.00  0.00    +0.000 A 
ATOM     50  C   UNL     1     112.172 129.359 137.234  0.00  0.00    +0.000 A 
ATOM     51  C   UNL     1     113.626 128.993 136.547  0.00  0.00    +0.000 A 
ATOM     52  C   UNL     1     112.199 128.924 136.534  0.00  0.00    +0.000 A 
ATOM     53  C   UNL     1     112.926 128.741 136.191  0.00  0.00    +0.000 A 
ENDBRANCH  46  48
ENDBRANCH  44  45
ENDBRANCH  42  44
ENDBRANCH  41  42
ENDBRANCH   7  41
TORSDOF 12
ENDMDL
MODEL 2
REMARK VINA RESULT:     -10.7      7.368     10.029
REMARK  Name = 42607911
REMARK  12 active torsions:
REMARK  status: ('A' for Active; 'I' for Inactive)
REMARK    1  A    between atoms: O_2  and  C_15
REMARK    2  A    between atoms: O_2  and  C_22
REMARK    3  A    between atoms: O_3  and  C_19
REMARK    4  A    between atoms: O_3  and  C_21
REMARK    5  A    between atoms: O_6  and  C_20
REMARK    6  A    between atoms: O_6  and  C_31
REMARK    7  A    between atoms: C_18  and  C_20
REMARK    8  A    between atoms: C_22  and  C_32
REMARK    9  A    between atoms: C_27  and  C_33
REMARK   10  A    between atoms: C_31  and  C_34
REMARK   11  A    between atoms: C_37  and  C_40
REMARK   12  A    between atoms: C_42  and  C_43
REMARK                            x       y       z     vdW  Elec       q    Type
REMARK                         _______ _______ _______ _____ _____    ______ ____
ROOT
ATOM      1  O   UNL     1     106.243 125.380 144.928  0.00  0.00    +0.000 OA
ATOM      2  O   UNL     1     105.488 124.478 146.767  0.00  0.00    +0.000 OA
ATOM      3  O   UNL     1     105.018 123.813 144.028  0.00  0.00    +0.000 OA
ATOM      4  C   UNL     1     105.253 124.146 145.398  0.00  0.00    +0.000 C 
ATOM      5  C   UNL     1     105.619 124.621 145.965  0.00  0.00    +0.000 C 
ATOM      6  C   UNL     1     105.383 124.289 144.596  0.00  0.00    +0.000 C 
ATOM      7  C   UNL     1     106.113 125.238 145.731  0.00  0.00    +0.000 C 
ATOM      8  C   UNL     1     105.878 124.906 144.361  0.00  0.00    +0.000 C 
ENDROOT
BRANCH   4   9
ATOM      9  O   UNL     1     104.758 123.529 145.632  0.00  0.00    +0.000 OA
BRANCH   9  11
ATOM     10  O   UNL     1     103.614 123.548 144.776  0.00  0.00    +0.000 OA
ATOM     11  C   UNL     1     103.942 123.594 145.531  0.00  0.00    +0.000 C 
BRANCH  11  12
ATOM     12  C   UNL     1     103.454 123.706 146.187  0.00  0.00    +0.000 C 
ATOM     13  C   UNL     1     102.677 123.428 146.176  0.00  0.00    +0.000 C 
BRANCH  13  15
ATOM     14  O   UNL     1     100.724 123.877 148.798  0.00  0.00    +0.000 OA
ATOM     15  C   UNL     1     102.189 123.540 146.831  0.00  0.00    +0.000 A 
ATOM     16  C   UNL     1     102.022 122.907 147.333  0.00  0.00    +0.000 A 
ATOM     17  C   UNL     1     101.868 124.284 146.984  0.00  0.00    +0.000 A 
ATOM     18  C   UNL     1     101.533 123.019 147.989  0.00  0.00    +0.000 A 
ATOM     19  C   UNL     1     101.380 124.397 147.639  0.00  0.00    +0.000 A 
ATOM     20  C   UNL     1     101.212 123.765 148.142  0.00  0.00    +0.000 A 
ENDBRANCH  13  15
ENDBRANCH  11  12
ENDBRANCH   9  11
ENDBRANCH   4   9
BRANCH   8  21
ATOM     21  O   UNL     1     106.007 125.048 143.558  0.00  0.00    +0.000 OA
BRANCH  21  25
ATOM     22  O   UNL     1     105.001 127.713 142.954  0.00  0.00    +0.000 OA
ATOM     23  O   UNL     1     107.795 127.115 142.527  0.00  0.00    +0.000 OA
ATOM     24  O   UNL     1     107.261 128.424 142.238  0.00  0.00    +0.000 OA
ATOM     25  C   UNL     1     106.136 125.818 143.292  0.00  0.00    +0.000 A 
ATOM     26  C   UNL     1     105.486 126.379 143.261  0.00  0.00    +0.000 A 
ATOM     27  C   UNL     1     105.629 127.179 142.981  0.00  0.00    +0.000 A 
ATOM     28  C   UNL     1     106.921 126.065 143.043  0.00  0.00    +0.000 A 
ATOM     29  C   UNL     1     106.383 127.415 142.743  0.00  0.00    +0.000 A 
ATOM     30  C   UNL     1     105.127 128.484 142.688  0.00  0.00    +0.000 C 
ATOM     31  C   UNL     1     105.879 128.720 142.449  0.00  0.00    +0.000 C 
ATOM     32  C   UNL     1     107.045 126.869 142.767  0.00  0.00    +0.000 A 
ATOM     33  C   UNL     1     106.507 128.186 142.477  0.00  0.00    +0.000 C 
BRANCH  30  35
ATOM     34  O   UNL     1     102.613 130.620 142.577  0.00  0.00    +0.000 OA
ATOM     35  C   UNL     1     104.498 129.018 142.660  0.00  0.00    +0.000 A 
ATOM     36  C   UNL     1     104.041 129.082 141.976  0.00  0.00    +0.000 A 
ATOM     37  C   UNL     1     104.327 129.488 143.316  0.00  0.00    +0.000 A 
ATOM     38  C   UNL     1     103.413 129.616 141.949  0.00  0.00    +0.000 A 
ATOM     39  C   UNL     1     103.699 130.022 143.288  0.00  0.00    +0.000 A 
ATOM     40  C   UNL     1     103.241 130.086 142.605  0.00  0.00    +0.000 A 
ENDBRANCH  30  35
ENDBRANCH  21  25
ENDBRANCH   8  21
BRANCH   7  41
ATOM     41  C   UNL     1     106.478 125.712 146.298  0.00  0.00    +0.000 C 
BRANCH  41  42
ATOM     42  O   UNL     1     107.034 126.277 146.069  0.00  0.00    +0.000 OA
BRANCH  42  44
ATOM     43  O   UNL     1     107.666 126.711 147.274  0.00  0.00    +0.000 OA
ATOM     44  C   UNL     1     107.244 126.883 146.587  0.00  0.00    +0.000 C 
BRANCH  44  45
ATOM     45  C   UNL     1     107.033 127.662 146.418  0.00  0.00    +0.000 C 
ATOM     46  C   UNL     1     107.606 128.202 146.171  0.00  0.00    +0.000 C 
BRANCH  46  48
ATOM     47  O   UNL     1     106.758 131.319 145.496  0.00  0.00    +0.000 OA
ATOM     48  C   UNL     1     107.394 128.981 146.002  0.00  0.00    +0.000 A 
ATOM     49  C   UNL     1     107.896 129.457 145.552  0.00  0.00    +0.000 A 
ATOM     50  C   UNL     1     106.681 129.285 146.283  0.00  0.00    +0.000 A 
ATOM     51  C   UNL     1     107.684 130.235 145.384  0.00  0.00    +0.000 A 
ATOM     52  C   UNL     1     106.468 130.064 146.115  0.00  0.00    +0.000 A 
ATOM     53  C   UNL     1     106.970 130.539 145.665  0.00  0.00    +0.000 A 
ENDBRANCH  46  48
ENDBRANCH  44  45
ENDBRANCH  42  44
ENDBRANCH  41  42
ENDBRANCH   7  41
TORSDOF 12
ENDMDL
MODEL 3
REMARK VINA RESULT:     -10.5      7.014      9.234
REMARK  Name = 42607911
REMARK  12 active torsions:
REMARK  status: ('A' for Active; 'I' for Inactive)
REMARK    1  A    between atoms: O_2  and  C_15
REMARK    2  A    between atoms: O_2  and  C_22
REMARK    3  A    between atoms: O_3  and  C_19
REMARK    4  A    between atoms: O_3  and  C_21
REMARK    5  A    between atoms: O_6  and  C_20
REMARK    6  A    between atoms: O_6  and  C_31
REMARK    7  A    between atoms: C_18  and  C_20
REMARK    8  A    between atoms: C_22  and  C_32
REMARK    9  A    between atoms: C_27  and  C_33
REMARK   10  A    between atoms: C_31  and  C_34
REMARK   11  A    between atoms: C_37  and  C_40
REMARK   12  A    between atoms: C_42  and  C_43
REMARK                            x       y       z     vdW  Elec       q    Type
REMARK                         _______ _______ _______ _____ _____    ______ ____
ROOT
ATOM      1  O   UNL     1     106.160 126.410 142.852  0.00  0.00    +0.000 OA
ATOM      2  O   UNL     1     104.884 127.869 143.856  0.00  0.00    +0.000 OA
ATOM      3  O   UNL     1     106.157 127.943 141.298  0.00  0.00    +0.000 OA
ATOM      4  C   UNL     1     105.521 127.906 142.577  0.00  0.00    +0.000 C 
ATOM      5  C   UNL     1     105.362 127.513 143.285  0.00  0.00    +0.000 C 
ATOM      6  C   UNL     1     105.999 127.550 142.006  0.00  0.00    +0.000 C 
ATOM      7  C   UNL     1     105.682 126.765 143.423  0.00  0.00    +0.000 C 
ATOM      8  C   UNL     1     106.319 126.802 142.144  0.00  0.00    +0.000 C 
ENDROOT
BRANCH   4   9
ATOM      9  O   UNL     1     105.201 128.654 142.439  0.00  0.00    +0.000 OA
BRANCH   9  11
ATOM     10  O   UNL     1     104.138 128.138 141.635  0.00  0.00    +0.000 OA
ATOM     11  C   UNL     1     104.440 128.726 142.128  0.00  0.00    +0.000 C 
BRANCH  11  12
ATOM     12  C   UNL     1     103.981 129.387 142.310  0.00  0.00    +0.000 C 
ATOM     13  C   UNL     1     103.356 129.604 141.817  0.00  0.00    +0.000 C 
BRANCH  13  15
ATOM     14  O   UNL     1     101.520 132.247 142.546  0.00  0.00    +0.000 OA
ATOM     15  C   UNL     1     102.897 130.265 142.000  0.00  0.00    +0.000 A 
ATOM     16  C   UNL     1     102.939 130.601 142.752  0.00  0.00    +0.000 A 
ATOM     17  C   UNL     1     102.397 130.589 141.430  0.00  0.00    +0.000 A 
ATOM     18  C   UNL     1     102.480 131.261 142.934  0.00  0.00    +0.000 A 
ATOM     19  C   UNL     1     101.938 131.250 141.612  0.00  0.00    +0.000 A 
ATOM     20  C   UNL     1     101.979 131.586 142.364  0.00  0.00    +0.000 A 
ENDBRANCH  13  15
ENDBRANCH  11  12
ENDBRANCH   9  11
ENDBRANCH   4   9
BRANCH   8  21
ATOM     21  O   UNL     1     106.797 126.447 141.573  0.00  0.00    +0.000 OA
BRANCH  21  25
ATOM     22  O   UNL     1     105.093 124.672 140.014  0.00  0.00    +0.000 OA
ATOM     23  O   UNL     1     107.374 123.588 141.417  0.00  0.00    +0.000 OA
ATOM     24  O   UNL     1     106.508 122.739 140.635  0.00  0.00    +0.000 OA
ATOM     25  C   UNL     1     106.614 125.692 141.294  0.00  0.00    +0.000 A 
ATOM     26  C   UNL     1     105.932 125.571 140.787  0.00  0.00    +0.000 A 
ATOM     27  C   UNL     1     105.750 124.782 140.501  0.00  0.00    +0.000 A 
ATOM     28  C   UNL     1     107.106 125.021 141.510  0.00  0.00    +0.000 A 
ATOM     29  C   UNL     1     106.222 124.138 140.709  0.00  0.00    +0.000 A 
ATOM     30  C   UNL     1     104.908 123.918 139.734  0.00  0.00    +0.000 C 
ATOM     31  C   UNL     1     105.379 123.275 139.941  0.00  0.00    +0.000 C 
ATOM     32  C   UNL     1     106.908 124.238 141.215  0.00  0.00    +0.000 A 
ATOM     33  C   UNL     1     106.036 123.384 140.428  0.00  0.00    +0.000 C 
BRANCH  30  35
ATOM     34  O   UNL     1     102.280 123.482 137.786  0.00  0.00    +0.000 OA
ATOM     35  C   UNL     1     104.250 123.809 139.247  0.00  0.00    +0.000 A 
ATOM     36  C   UNL     1     103.520 123.614 139.577  0.00  0.00    +0.000 A 
ATOM     37  C   UNL     1     104.325 123.896 138.430  0.00  0.00    +0.000 A 
ATOM     38  C   UNL     1     102.864 123.505 139.090  0.00  0.00    +0.000 A 
ATOM     39  C   UNL     1     103.667 123.787 137.943  0.00  0.00    +0.000 A 
ATOM     40  C   UNL     1     102.937 123.591 138.273  0.00  0.00    +0.000 A 
ENDBRANCH  30  35
ENDBRANCH  21  25
ENDBRANCH   8  21
BRANCH   7  41
ATOM     41  C   UNL     1     105.524 126.374 144.131  0.00  0.00    +0.000 C 
BRANCH  41  42
ATOM     42  O   UNL     1     106.069 125.833 144.435  0.00  0.00    +0.000 OA
BRANCH  42  44
ATOM     43  O   UNL     1     105.126 124.919 144.996  0.00  0.00    +0.000 OA
ATOM     44  C   UNL     1     105.847 125.318 145.039  0.00  0.00    +0.000 C 
BRANCH  44  45
ATOM     45  C   UNL     1     106.344 125.201 145.687  0.00  0.00    +0.000 C 
ATOM     46  C   UNL     1     106.032 125.181 146.449  0.00  0.00    +0.000 C 
BRANCH  46  48
ATOM     47  O   UNL     1     108.021 124.712 149.040  0.00  0.00    +0.000 OA
ATOM     48  C   UNL     1     106.530 125.064 147.097  0.00  0.00    +0.000 A 
ATOM     49  C   UNL     1     107.300 125.356 147.083  0.00  0.00    +0.000 A 
ATOM     50  C   UNL     1     106.256 124.654 147.758  0.00  0.00    +0.000 A 
ATOM     51  C   UNL     1     107.797 125.239 147.731  0.00  0.00    +0.000 A 
ATOM     52  C   UNL     1     106.752 124.536 148.406  0.00  0.00    +0.000 A 
ATOM     53  C   UNL     1     107.523 124.829 148.392  0.00  0.00    +0.000 A 
ENDBRANCH  46  48
ENDBRANCH  44  45
ENDBRANCH  42  44
ENDBRANCH  41  42
ENDBRANCH   7  41
TORSDOF 12
ENDMDL
MODEL 4
REMARK VINA RESULT:     -10.5      1.002      1.686
REMARK  Name = 42607911
REMARK  12 active torsions:
REMARK  status: ('A' for Active; 'I' for Inactive)
REMARK    1  A    between atoms: O_2  and  C_15
REMARK    2  A    between atoms: O_2  and  C_22
REMARK    3  A    between atoms: O_3  and  C_19
REMARK    4  A    between atoms: O_3  and  C_21
REMARK    5  A    between atoms: O_6  and  C_20
REMARK    6  A    between atoms: O_6  and  C_31
REMARK    7  A    between atoms: C_18  and  C_20
REMARK    8  A    between atoms: C_22  and  C_32
REMARK    9  A    between atoms: C_27  and  C_33
REMARK   10  A    between atoms: C_31  and  C_34
REMARK   11  A    between atoms: C_37  and  C_40
REMARK   12  A    between atoms: C_42  and  C_43
REMARK                            x       y       z     vdW  Elec       q    Type
REMARK                         _______ _______ _______ _____ _____    ______ ____
ROOT
ATOM      1  O   UNL     1     111.751 129.157 141.147  0.00  0.00    +0.000 OA
ATOM      2  O   UNL     1     111.759 131.174 141.980  0.00  0.00    +0.000 OA
ATOM      3  O   UNL     1     112.081 128.629 143.239  0.00  0.00    +0.000 OA
ATOM      4  C   UNL     1     111.920 129.901 142.610  0.00  0.00    +0.000 C 
ATOM      5  C   UNL     1     111.797 130.352 141.929  0.00  0.00    +0.000 C 
ATOM      6  C   UNL     1     111.958 129.079 142.558  0.00  0.00    +0.000 C 
ATOM      7  C   UNL     1     111.712 129.979 141.197  0.00  0.00    +0.000 C 
ATOM      8  C   UNL     1     111.873 128.707 141.827  0.00  0.00    +0.000 C 
ENDROOT
BRANCH   4   9
ATOM      9  O   UNL     1     112.005 130.274 143.341  0.00  0.00    +0.000 OA
BRANCH   9  11
ATOM     10  O   UNL     1     110.668 129.984 143.755  0.00  0.00    +0.000 OA
ATOM     11  C   UNL     1     111.337 130.465 143.786  0.00  0.00    +0.000 C 
BRANCH  11  12
ATOM     12  C   UNL     1     111.338 131.140 144.261  0.00  0.00    +0.000 C 
ATOM     13  C   UNL     1     111.085 131.093 145.045  0.00  0.00    +0.000 C 
BRANCH  13  15
ATOM     14  O   UNL     1     111.089 133.791 146.945  0.00  0.00    +0.000 OA
ATOM     15  C   UNL     1     111.086 131.767 145.520  0.00  0.00    +0.000 A 
ATOM     16  C   UNL     1     110.403 132.225 145.587  0.00  0.00    +0.000 A 
ATOM     17  C   UNL     1     111.770 131.984 145.927  0.00  0.00    +0.000 A 
ATOM     18  C   UNL     1     110.404 132.899 146.062  0.00  0.00    +0.000 A 
ATOM     19  C   UNL     1     111.771 132.658 146.402  0.00  0.00    +0.000 A 
ATOM     20  C   UNL     1     111.088 133.116 146.470  0.00  0.00    +0.000 A 
ENDBRANCH  13  15
ENDBRANCH  11  12
ENDBRANCH   9  11
ENDBRANCH   4   9
BRANCH   8  21
ATOM     21  O   UNL     1     111.911 127.884 141.777  0.00  0.00    +0.000 OA
BRANCH  21  25
ATOM     22  O   UNL     1     112.048 126.490 139.223  0.00  0.00    +0.000 OA
ATOM     23  O   UNL     1     114.487 127.089 140.651  0.00  0.00    +0.000 OA
ATOM     24  O   UNL     1     114.516 126.400 139.384  0.00  0.00    +0.000 OA
ATOM     25  C   UNL     1     112.354 127.528 141.178  0.00  0.00    +0.000 A 
ATOM     26  C   UNL     1     111.962 127.185 140.495  0.00  0.00    +0.000 A 
ATOM     27  C   UNL     1     112.431 126.817 139.877  0.00  0.00    +0.000 A 
ATOM     28  C   UNL     1     113.212 127.497 141.234  0.00  0.00    +0.000 A 
ATOM     29  C   UNL     1     113.254 126.787 139.931  0.00  0.00    +0.000 A 
ATOM     30  C   UNL     1     112.489 126.133 138.623  0.00  0.00    +0.000 C 
ATOM     31  C   UNL     1     113.310 126.103 138.677  0.00  0.00    +0.000 C 
ATOM     32  C   UNL     1     113.664 127.124 140.606  0.00  0.00    +0.000 A 
ATOM     33  C   UNL     1     113.693 126.430 139.331  0.00  0.00    +0.000 C 
BRANCH  30  35
ATOM     34  O   UNL     1     110.956 124.825 136.009  0.00  0.00    +0.000 OA
ATOM     35  C   UNL     1     112.105 125.806 137.969  0.00  0.00    +0.000 A 
ATOM     36  C   UNL     1     111.297 125.929 137.861  0.00  0.00    +0.000 A 
ATOM     37  C   UNL     1     112.531 125.356 137.425  0.00  0.00    +0.000 A 
ATOM     38  C   UNL     1     110.914 125.602 137.208  0.00  0.00    +0.000 A 
ATOM     39  C   UNL     1     112.148 125.030 136.771  0.00  0.00    +0.000 A 
ATOM     40  C   UNL     1     111.339 125.152 136.662  0.00  0.00    +0.000 A 
ENDBRANCH  30  35
ENDBRANCH  21  25
ENDBRANCH   8  21
BRANCH   7  41
ATOM     41  C   UNL     1     111.590 130.429 140.518  0.00  0.00    +0.000 C 
BRANCH  41  42
ATOM     42  O   UNL     1     112.103 130.356 139.875  0.00  0.00    +0.000 OA
BRANCH  42  44
ATOM     43  O   UNL     1     111.521 131.347 139.027  0.00  0.00    +0.000 OA
ATOM     44  C   UNL     1     111.864 130.604 139.126  0.00  0.00    +0.000 C 
BRANCH  44  45
ATOM     45  C   UNL     1     111.968 130.108 138.475  0.00  0.00    +0.000 C 
ATOM     46  C   UNL     1     112.601 130.230 137.960  0.00  0.00    +0.000 C 
BRANCH  46  48
ATOM     47  O   UNL     1     113.021 128.248 135.355  0.00  0.00    +0.000 OA
ATOM     48  C   UNL     1     112.705 129.734 137.309  0.00  0.00    +0.000 A 
ATOM     49  C   UNL     1     112.060 129.526 136.841  0.00  0.00    +0.000 A 
ATOM     50  C   UNL     1     113.457 129.447 137.125  0.00  0.00    +0.000 A 
ATOM     51  C   UNL     1     112.164 129.031 136.190  0.00  0.00    +0.000 A 
ATOM     52  C   UNL     1     113.563 128.952 136.474  0.00  0.00    +0.000 A 
ATOM     53  C   UNL     1     112.916 128.744 136.007  0.00  0.00    +0.000 A 
ENDBRANCH  46  48
ENDBRANCH  44  45
ENDBRANCH  42  44
ENDBRANCH  41  42
ENDBRANCH   7  41
TORSDOF 12
ENDMDL
MODEL 5
REMARK VINA RESULT:     -10.4      2.028      4.598
REMARK  Name = 42607911
REMARK  12 active torsions:
REMARK  status: ('A' for Active; 'I' for Inactive)
REMARK    1  A    between atoms: O_2  and  C_15
REMARK    2  A    between atoms: O_2  and  C_22
REMARK    3  A    between atoms: O_3  and  C_19
REMARK    4  A    between atoms: O_3  and  C_21
REMARK    5  A    between atoms: O_6  and  C_20
REMARK    6  A    between atoms: O_6  and  C_31
REMARK    7  A    between atoms: C_18  and  C_20
REMARK    8  A    between atoms: C_22  and  C_32
REMARK    9  A    between atoms: C_27  and  C_33
REMARK   10  A    between atoms: C_31  and  C_34
REMARK   11  A    between atoms: C_37  and  C_40
REMARK   12  A    between atoms: C_42  and  C_43
REMARK                            x       y       z     vdW  Elec       q    Type
REMARK                         _______ _______ _______ _____ _____    ______ ____
ROOT
ATOM      1  O   UNL     1     113.235 128.765 138.807  0.00  0.00    +0.000 OA
ATOM      2  O   UNL     1     112.925 128.412 140.939  0.00  0.00    +0.000 OA
ATOM      3  O   UNL     1     113.728 130.765 139.529  0.00  0.00    +0.000 OA
ATOM      4  C   UNL     1     113.326 129.588 140.234  0.00  0.00    +0.000 C 
ATOM      5  C   UNL     1     113.102 128.793 140.230  0.00  0.00    +0.000 C 
ATOM      6  C   UNL     1     113.504 129.970 139.525  0.00  0.00    +0.000 C 
ATOM      7  C   UNL     1     113.057 128.382 139.516  0.00  0.00    +0.000 C 
ATOM      8  C   UNL     1     113.458 129.558 138.811  0.00  0.00    +0.000 C 
ENDROOT
BRANCH   4   9
ATOM      9  O   UNL     1     113.372 130.000 140.948  0.00  0.00    +0.000 OA
BRANCH   9  11
ATOM     10  O   UNL     1     112.071 130.555 140.747  0.00  0.00    +0.000 OA
ATOM     11  C   UNL     1     112.705 130.385 141.245  0.00  0.00    +0.000 C 
BRANCH  11  12
ATOM     12  C   UNL     1     112.674 130.600 142.040  0.00  0.00    +0.000 C 
ATOM     13  C   UNL     1     112.089 131.117 142.306  0.00  0.00    +0.000 C 
BRANCH  13  15
ATOM     14  O   UNL     1     111.965 131.978 145.489  0.00  0.00    +0.000 OA
ATOM     15  C   UNL     1     112.058 131.332 143.102  0.00  0.00    +0.000 A 
ATOM     16  C   UNL     1     112.364 132.059 143.344  0.00  0.00    +0.000 A 
ATOM     17  C   UNL     1     111.721 130.821 143.654  0.00  0.00    +0.000 A 
ATOM     18  C   UNL     1     112.333 132.274 144.140  0.00  0.00    +0.000 A 
ATOM     19  C   UNL     1     111.690 131.036 144.450  0.00  0.00    +0.000 A 
ATOM     20  C   UNL     1     111.996 131.763 144.693  0.00  0.00    +0.000 A 
ENDBRANCH  13  15
ENDBRANCH  11  12
ENDBRANCH   9  11
ENDBRANCH   4   9
BRANCH   8  21
ATOM     21  O   UNL     1     113.637 129.941 138.103  0.00  0.00    +0.000 OA
BRANCH  21  25
ATOM     22  O   UNL     1     111.176 130.037 136.548  0.00  0.00    +0.000 OA
ATOM     23  O   UNL     1     113.501 128.719 135.453  0.00  0.00    +0.000 OA
ATOM     24  O   UNL     1     112.265 128.786 134.712  0.00  0.00    +0.000 OA
ATOM     25  C   UNL     1     113.215 129.757 137.418  0.00  0.00    +0.000 A 
ATOM     26  C   UNL     1     112.394 129.999 137.337  0.00  0.00    +0.000 A 
ATOM     27  C   UNL     1     111.963 129.803 136.620  0.00  0.00    +0.000 A 
ATOM     28  C   UNL     1     113.594 129.323 136.780  0.00  0.00    +0.000 A 
ATOM     29  C   UNL     1     112.327 129.386 136.008  0.00  0.00    +0.000 A 
ATOM     30  C   UNL     1     110.751 129.855 135.864  0.00  0.00    +0.000 C 
ATOM     31  C   UNL     1     111.114 129.438 135.253  0.00  0.00    +0.000 C 
ATOM     32  C   UNL     1     113.146 129.136 136.070  0.00  0.00    +0.000 A 
ATOM     33  C   UNL     1     111.902 129.203 135.325  0.00  0.00    +0.000 C 
BRANCH  30  35
ATOM     34  O   UNL     1     107.600 130.794 135.579  0.00  0.00    +0.000 OA
ATOM     35  C   UNL     1     109.963 130.090 135.793  0.00  0.00    +0.000 A 
ATOM     36  C   UNL     1     109.775 130.789 135.397  0.00  0.00    +0.000 A 
ATOM     37  C   UNL     1     109.364 129.625 136.118  0.00  0.00    +0.000 A 
ATOM     38  C   UNL     1     108.988 131.023 135.326  0.00  0.00    +0.000 A 
ATOM     39  C   UNL     1     108.576 129.860 136.046  0.00  0.00    +0.000 A 
ATOM     40  C   UNL     1     108.388 130.559 135.650  0.00  0.00    +0.000 A 
ENDBRANCH  30  35
ENDBRANCH  21  25
ENDBRANCH   8  21
BRANCH   7  41
ATOM     41  C   UNL     1     112.833 127.588 139.512  0.00  0.00    +0.000 C 
BRANCH  41  42
ATOM     42  O   UNL     1     112.126 127.360 139.153  0.00  0.00    +0.000 OA
BRANCH  42  44
ATOM     43  O   UNL     1     112.077 125.966 139.461  0.00  0.00    +0.000 OA
ATOM     44  C   UNL     1     112.018 126.579 138.912  0.00  0.00    +0.000 C 
BRANCH  44  45
ATOM     45  C   UNL     1     111.852 126.410 138.121  0.00  0.00    +0.000 C 
ATOM     46  C   UNL     1     111.085 126.213 137.894  0.00  0.00    +0.000 C 
BRANCH  46  48
ATOM     47  O   UNL     1     110.422 125.537 134.733  0.00  0.00    +0.000 OA
ATOM     48  C   UNL     1     110.918 126.044 137.104  0.00  0.00    +0.000 A 
ATOM     49  C   UNL     1     110.171 126.207 136.795  0.00  0.00    +0.000 A 
ATOM     50  C   UNL     1     111.500 125.712 136.622  0.00  0.00    +0.000 A 
ATOM     51  C   UNL     1     110.006 126.038 136.005  0.00  0.00    +0.000 A 
ATOM     52  C   UNL     1     111.335 125.543 135.832  0.00  0.00    +0.000 A 
ATOM     53  C   UNL     1     110.587 125.706 135.524  0.00  0.00    +0.000 A 
ENDBRANCH  46  48
ENDBRANCH  44  45
ENDBRANCH  42  44
ENDBRANCH  41  42
ENDBRANCH   7  41
TORSDOF 12
ENDMDL
MODEL 6
REMARK VINA RESULT:     -10.4      3.210      4.240
REMARK  Name = 42607911
REMARK  12 active torsions:
REMARK  status: ('A' for Active; 'I' for Inactive)
REMARK    1  A    between atoms: O_2  and  C_15
REMARK    2  A    between atoms: O_2  and  C_22
REMARK    3  A    between atoms: O_3  and  C_19
REMARK    4  A    between atoms: O_3  and  C_21
REMARK    5  A    between atoms: O_6  and  C_20
REMARK    6  A    between atoms: O_6  and  C_31
REMARK    7  A    between atoms: C_18  and  C_20
REMARK    8  A    between atoms: C_22  and  C_32
REMARK    9  A    between atoms: C_27  and  C_33
REMARK   10  A    between atoms: C_31  and  C_34
REMARK   11  A    between atoms: C_37  and  C_40
REMARK   12  A    between atoms: C_42  and  C_43
REMARK                            x       y       z     vdW  Elec       q    Type
REMARK                         _______ _______ _______ _____ _____    ______ ____
ROOT
ATOM      1  O   UNL     1     109.714 127.856 140.491  0.00  0.00    +0.000 OA
ATOM      2  O   UNL     1     108.050 129.235 140.795  0.00  0.00    +0.000 OA
ATOM      3  O   UNL     1     108.872 126.938 142.283  0.00  0.00    +0.000 OA
ATOM      4  C   UNL     1     108.461 128.087 141.539  0.00  0.00    +0.000 C 
ATOM      5  C   UNL     1     108.569 128.604 140.904  0.00  0.00    +0.000 C 
ATOM      6  C   UNL     1     108.980 127.455 141.649  0.00  0.00    +0.000 C 
ATOM      7  C   UNL     1     109.196 128.488 140.380  0.00  0.00    +0.000 C 
ATOM      8  C   UNL     1     109.607 127.340 141.125  0.00  0.00    +0.000 C 
ENDROOT
BRANCH   4   9
ATOM      9  O   UNL     1     107.834 128.202 142.063  0.00  0.00    +0.000 OA
BRANCH   9  11
ATOM     10  O   UNL     1     106.993 127.155 141.575  0.00  0.00    +0.000 OA
ATOM     11  C   UNL     1     107.083 127.918 141.875  0.00  0.00    +0.000 C 
BRANCH  11  12
ATOM     12  C   UNL     1     106.421 128.397 141.989  0.00  0.00    +0.000 C 
ATOM     13  C   UNL     1     105.702 128.062 142.216  0.00  0.00    +0.000 C 
BRANCH  13  15
ATOM     14  O   UNL     1     103.055 129.979 142.669  0.00  0.00    +0.000 OA
ATOM     15  C   UNL     1     105.040 128.541 142.329  0.00  0.00    +0.000 A 
ATOM     16  C   UNL     1     104.506 128.659 141.711  0.00  0.00    +0.000 A 
ATOM     17  C   UNL     1     104.913 128.901 143.060  0.00  0.00    +0.000 A 
ATOM     18  C   UNL     1     103.845 129.139 141.824  0.00  0.00    +0.000 A 
ATOM     19  C   UNL     1     104.251 129.380 143.173  0.00  0.00    +0.000 A 
ATOM     20  C   UNL     1     103.716 129.499 142.556  0.00  0.00    +0.000 A 
ENDBRANCH  13  15
ENDBRANCH  11  12
ENDBRANCH   9  11
ENDBRANCH   4   9
BRANCH   8  21
ATOM     21  O   UNL     1     110.125 126.707 141.235  0.00  0.00    +0.000 OA
BRANCH  21  25
ATOM     22  O   UNL     1     112.207 126.102 139.291  0.00  0.00    +0.000 OA
ATOM     23  O   UNL     1     112.852 127.681 141.623  0.00  0.00    +0.000 OA
ATOM     24  O   UNL     1     113.857 127.361 140.638  0.00  0.00    +0.000 OA
ATOM     25  C   UNL     1     110.908 126.768 140.983  0.00  0.00    +0.000 A 
ATOM     26  C   UNL     1     111.157 126.394 140.250  0.00  0.00    +0.000 A 
ATOM     27  C   UNL     1     111.975 126.463 139.995  0.00  0.00    +0.000 A 
ATOM     28  C   UNL     1     111.482 127.205 141.451  0.00  0.00    +0.000 A 
ATOM     29  C   UNL     1     112.524 126.883 140.445  0.00  0.00    +0.000 A 
ATOM     30  C   UNL     1     112.990 126.161 139.036  0.00  0.00    +0.000 C 
ATOM     31  C   UNL     1     113.539 126.580 139.484  0.00  0.00    +0.000 C 
ATOM     32  C   UNL     1     112.295 127.263 141.180  0.00  0.00    +0.000 A 
ATOM     33  C   UNL     1     113.307 126.941 140.189  0.00  0.00    +0.000 C 
BRANCH  30  35
ATOM     34  O   UNL     1     113.919 124.716 136.217  0.00  0.00    +0.000 OA
ATOM     35  C   UNL     1     113.222 125.799 138.330  0.00  0.00    +0.000 A 
ATOM     36  C   UNL     1     114.020 125.777 138.122  0.00  0.00    +0.000 A 
ATOM     37  C   UNL     1     112.656 125.461 137.835  0.00  0.00    +0.000 A 
ATOM     38  C   UNL     1     114.252 125.416 137.418  0.00  0.00    +0.000 A 
ATOM     39  C   UNL     1     112.888 125.100 137.131  0.00  0.00    +0.000 A 
ATOM     40  C   UNL     1     113.686 125.077 136.922  0.00  0.00    +0.000 A 
ENDBRANCH  30  35
ENDBRANCH  21  25
ENDBRANCH   8  21
BRANCH   7  41
ATOM     41  C   UNL     1     109.303 129.005 139.747  0.00  0.00    +0.000 C 
BRANCH  41  42
ATOM     42  O   UNL     1     109.505 128.710 139.003  0.00  0.00    +0.000 OA
BRANCH  42  44
ATOM     43  O   UNL     1     109.154 129.714 138.049  0.00  0.00    +0.000 OA
ATOM     44  C   UNL     1     109.722 129.227 138.399  0.00  0.00    +0.000 C 
BRANCH  44  45
ATOM     45  C   UNL     1     110.505 129.258 138.142  0.00  0.00    +0.000 C 
ATOM     46  C   UNL     1     110.706 128.980 137.393  0.00  0.00    +0.000 C 
BRANCH  46  48
ATOM     47  O   UNL     1     113.842 129.106 136.371  0.00  0.00    +0.000 OA
ATOM     48  C   UNL     1     111.490 129.011 137.137  0.00  0.00    +0.000 A 
ATOM     49  C   UNL     1     111.704 128.670 136.417  0.00  0.00    +0.000 A 
ATOM     50  C   UNL     1     112.061 129.384 137.602  0.00  0.00    +0.000 A 
ATOM     51  C   UNL     1     112.487 128.702 136.162  0.00  0.00    +0.000 A 
ATOM     52  C   UNL     1     112.845 129.416 137.347  0.00  0.00    +0.000 A 
ATOM     53  C   UNL     1     113.057 129.075 136.627  0.00  0.00    +0.000 A 
ENDBRANCH  46  48
ENDBRANCH  44  45
ENDBRANCH  42  44
ENDBRANCH  41  42
ENDBRANCH   7  41
TORSDOF 12
ENDMDL
MODEL 7
REMARK VINA RESULT:     -10.3      7.317     10.652
REMARK  Name = 42607911
REMARK  12 active torsions:
REMARK  status: ('A' for Active; 'I' for Inactive)
REMARK    1  A    between atoms: O_2  and  C_15
REMARK    2  A    between atoms: O_2  and  C_22
REMARK    3  A    between atoms: O_3  and  C_19
REMARK    4  A    between atoms: O_3  and  C_21
REMARK    5  A    between atoms: O_6  and  C_20
REMARK    6  A    between atoms: O_6  and  C_31
REMARK    7  A    between atoms: C_18  and  C_20
REMARK    8  A    between atoms: C_22  and  C_32
REMARK    9  A    between atoms: C_27  and  C_33
REMARK   10  A    between atoms: C_31  and  C_34
REMARK   11  A    between atoms: C_37  and  C_40
REMARK   12  A    between atoms: C_42  and  C_43
REMARK                            x       y       z     vdW  Elec       q    Type
REMARK                         _______ _______ _______ _____ _____    ______ ____
ROOT
ATOM      1  O   UNL     1     105.888 126.422 142.517  0.00  0.00    +0.000 OA
ATOM      2  O   UNL     1     105.176 126.257 140.460  0.00  0.00    +0.000 OA
ATOM      3  O   UNL     1     106.635 124.416 142.088  0.00  0.00    +0.000 OA
ATOM      4  C   UNL     1     105.905 125.337 141.274  0.00  0.00    +0.000 C 
ATOM      5  C   UNL     1     105.536 126.069 141.178  0.00  0.00    +0.000 C 
ATOM      6  C   UNL     1     106.266 125.148 141.992  0.00  0.00    +0.000 C 
ATOM      7  C   UNL     1     105.527 126.612 141.799  0.00  0.00    +0.000 C 
ATOM      8  C   UNL     1     106.257 125.691 142.613  0.00  0.00    +0.000 C 
ENDROOT
BRANCH   4   9
ATOM      9  O   UNL     1     105.914 124.794 140.653  0.00  0.00    +0.000 OA
BRANCH   9  11
ATOM     10  O   UNL     1     105.156 123.702 141.177  0.00  0.00    +0.000 OA
ATOM     11  C   UNL     1     105.301 124.246 140.576  0.00  0.00    +0.000 C 
BRANCH  11  12
ATOM     12  C   UNL     1     104.834 124.243 139.896  0.00  0.00    +0.000 C 
ATOM     13  C   UNL     1     104.451 123.552 139.661  0.00  0.00    +0.000 C 
BRANCH  13  15
ATOM     14  O   UNL     1     102.583 123.540 136.941  0.00  0.00    +0.000 OA
ATOM     15  C   UNL     1     103.984 123.549 138.981  0.00  0.00    +0.000 A 
ATOM     16  C   UNL     1     103.168 123.659 139.041  0.00  0.00    +0.000 A 
ATOM     17  C   UNL     1     104.332 123.436 138.242  0.00  0.00    +0.000 A 
ATOM     18  C   UNL     1     102.701 123.656 138.361  0.00  0.00    +0.000 A 
ATOM     19  C   UNL     1     103.865 123.433 137.562  0.00  0.00    +0.000 A 
ATOM     20  C   UNL     1     103.050 123.543 137.621  0.00  0.00    +0.000 A 
ENDBRANCH  13  15
ENDBRANCH  11  12
ENDBRANCH   9  11
ENDBRANCH   4   9
BRANCH   8  21
ATOM     21  O   UNL     1     106.618 125.501 143.331  0.00  0.00    +0.000 OA
BRANCH  21  25
ATOM     22  O   UNL     1     105.648 126.878 145.707  0.00  0.00    +0.000 OA
ATOM     23  O   UNL     1     104.872 124.136 145.233  0.00  0.00    +0.000 OA
ATOM     24  O   UNL     1     104.411 124.850 146.399  0.00  0.00    +0.000 OA
ATOM     25  C   UNL     1     106.176 125.502 144.027  0.00  0.00    +0.000 A 
ATOM     26  C   UNL     1     106.141 126.207 144.517  0.00  0.00    +0.000 A 
ATOM     27  C   UNL     1     105.677 126.198 145.240  0.00  0.00    +0.000 A 
ATOM     28  C   UNL     1     105.746 124.797 144.268  0.00  0.00    +0.000 A 
ATOM     29  C   UNL     1     105.265 125.521 145.471  0.00  0.00    +0.000 A 
ATOM     30  C   UNL     1     105.207 126.882 146.404  0.00  0.00    +0.000 C 
ATOM     31  C   UNL     1     104.795 126.206 146.634  0.00  0.00    +0.000 C 
ATOM     32  C   UNL     1     105.288 124.807 144.994  0.00  0.00    +0.000 A 
ATOM     33  C   UNL     1     104.824 125.526 146.168  0.00  0.00    +0.000 C 
BRANCH  30  35
ATOM     34  O   UNL     1     105.090 129.603 148.268  0.00  0.00    +0.000 OA
ATOM     35  C   UNL     1     105.177 127.562 146.870  0.00  0.00    +0.000 A 
ATOM     36  C   UNL     1     104.449 127.900 147.062  0.00  0.00    +0.000 A 
ATOM     37  C   UNL     1     105.876 127.904 147.144  0.00  0.00    +0.000 A 
ATOM     38  C   UNL     1     104.421 128.580 147.528  0.00  0.00    +0.000 A 
ATOM     39  C   UNL     1     105.847 128.584 147.610  0.00  0.00    +0.000 A 
ATOM     40  C   UNL     1     105.119 128.923 147.802  0.00  0.00    +0.000 A 
ENDBRANCH  30  35
ENDBRANCH  21  25
ENDBRANCH   8  21
BRANCH   7  41
ATOM     41  C   UNL     1     105.159 127.342 141.703  0.00  0.00    +0.000 C 
BRANCH  41  42
ATOM     42  O   UNL     1     104.765 127.694 142.338  0.00  0.00    +0.000 OA
BRANCH  42  44
ATOM     43  O   UNL     1     103.914 128.633 141.680  0.00  0.00    +0.000 OA
ATOM     44  C   UNL     1     104.468 128.459 142.267  0.00  0.00    +0.000 C 
BRANCH  44  45
ATOM     45  C   UNL     1     104.723 129.052 142.781  0.00  0.00    +0.000 C 
ATOM     46  C   UNL     1     104.227 129.318 143.383  0.00  0.00    +0.000 C 
BRANCH  46  48
ATOM     47  O   UNL     1     105.252 131.687 145.440  0.00  0.00    +0.000 OA
ATOM     48  C   UNL     1     104.483 129.910 143.898  0.00  0.00    +0.000 A 
ATOM     49  C   UNL     1     103.933 130.393 144.277  0.00  0.00    +0.000 A 
ATOM     50  C   UNL     1     105.289 130.019 144.032  0.00  0.00    +0.000 A 
ATOM     51  C   UNL     1     104.188 130.985 144.791  0.00  0.00    +0.000 A 
ATOM     52  C   UNL     1     105.546 130.611 144.546  0.00  0.00    +0.000 A 
ATOM     53  C   UNL     1     104.995 131.094 144.925  0.00  0.00    +0.000 A 
ENDBRANCH  46  48
ENDBRANCH  44  45
ENDBRANCH  42  44
ENDBRANCH  41  42
ENDBRANCH   7  41
TORSDOF 12
ENDMDL
MODEL 8
REMARK VINA RESULT:     -10.3      1.851      7.688
REMARK  Name = 42607911
REMARK  12 active torsions:
REMARK  status: ('A' for Active; 'I' for Inactive)
REMARK    1  A    between atoms: O_2  and  C_15
REMARK    2  A    between atoms: O_2  and  C_22
REMARK    3  A    between atoms: O_3  and  C_19
REMARK    4  A    between atoms: O_3  and  C_21
REMARK    5  A    between atoms: O_6  and  C_20
REMARK    6  A    between atoms: O_6  and  C_31
REMARK    7  A    between atoms: C_18  and  C_20
REMARK    8  A    between atoms: C_22  and  C_32
REMARK    9  A    between atoms: C_27  and  C_33
REMARK   10  A    between atoms: C_31  and  C_34
REMARK   11  A    between atoms: C_37  and  C_40
REMARK   12  A    between atoms: C_42  and  C_43
REMARK                            x       y       z     vdW  Elec       q    Type
REMARK                         _______ _______ _______ _____ _____    ______ ____
ROOT
ATOM      1  O   UNL     1     111.410 127.629 141.634  0.00  0.00    +0.000 OA
ATOM      2  O   UNL     1     110.797 125.933 140.404  0.00  0.00    +0.000 OA
ATOM      3  O   UNL     1     113.298 127.304 140.587  0.00  0.00    +0.000 OA
ATOM      4  C   UNL     1     112.047 126.619 140.495  0.00  0.00    +0.000 C 
ATOM      5  C   UNL     1     111.262 126.529 140.734  0.00  0.00    +0.000 C 
ATOM      6  C   UNL     1     112.512 127.214 140.826  0.00  0.00    +0.000 C 
ATOM      7  C   UNL     1     110.943 127.033 141.304  0.00  0.00    +0.000 C 
ATOM      8  C   UNL     1     112.194 127.719 141.396  0.00  0.00    +0.000 C 
ENDROOT
BRANCH   4   9
ATOM      9  O   UNL     1     112.366 126.114 139.926  0.00  0.00    +0.000 OA
BRANCH   9  11
ATOM     10  O   UNL     1     111.790 126.806 138.816  0.00  0.00    +0.000 OA
ATOM     11  C   UNL     1     112.399 126.352 139.136  0.00  0.00    +0.000 C 
BRANCH  11  12
ATOM     12  C   UNL     1     113.042 126.136 138.668  0.00  0.00    +0.000 C 
ATOM     13  C   UNL     1     112.920 125.853 137.903  0.00  0.00    +0.000 C 
BRANCH  13  15
ATOM     14  O   UNL     1     115.494 124.988 136.028  0.00  0.00    +0.000 OA
ATOM     15  C   UNL     1     113.563 125.637 137.434  0.00  0.00    +0.000 A 
ATOM     16  C   UNL     1     113.955 124.925 137.576  0.00  0.00    +0.000 A 
ATOM     17  C   UNL     1     113.814 126.132 136.824  0.00  0.00    +0.000 A 
ATOM     18  C   UNL     1     114.599 124.709 137.107  0.00  0.00    +0.000 A 
ATOM     19  C   UNL     1     114.457 125.916 136.356  0.00  0.00    +0.000 A 
ATOM     20  C   UNL     1     114.850 125.204 136.496  0.00  0.00    +0.000 A 
ENDBRANCH  13  15
ENDBRANCH  11  12
ENDBRANCH   9  11
ENDBRANCH   4   9
BRANCH   8  21
ATOM     21  O   UNL     1     112.660 128.314 141.726  0.00  0.00    +0.000 OA
BRANCH  21  25
ATOM     22  O   UNL     1     111.790 130.478 143.470  0.00  0.00    +0.000 OA
ATOM     23  O   UNL     1     111.629 130.807 140.605  0.00  0.00    +0.000 OA
ATOM     24  O   UNL     1     111.207 131.857 141.500  0.00  0.00    +0.000 OA
ATOM     25  C   UNL     1     112.351 129.072 141.826  0.00  0.00    +0.000 A 
ATOM     26  C   UNL     1     112.228 129.389 142.615  0.00  0.00    +0.000 A 
ATOM     27  C   UNL     1     111.906 130.179 142.710  0.00  0.00    +0.000 A 
ATOM     28  C   UNL     1     112.148 129.551 141.141  0.00  0.00    +0.000 A 
ATOM     29  C   UNL     1     111.711 130.639 142.053  0.00  0.00    +0.000 A 
ATOM     30  C   UNL     1     111.481 131.236 143.574  0.00  0.00    +0.000 C 
ATOM     31  C   UNL     1     111.287 131.695 142.918  0.00  0.00    +0.000 C 
ATOM     32  C   UNL     1     111.827 130.340 141.256  0.00  0.00    +0.000 A 
ATOM     33  C   UNL     1     111.402 131.396 142.157  0.00  0.00    +0.000 C 
BRANCH  30  35
ATOM     34  O   UNL     1     111.021 132.428 146.617  0.00  0.00    +0.000 OA
ATOM     35  C   UNL     1     111.366 131.534 144.335  0.00  0.00    +0.000 A 
ATOM     36  C   UNL     1     111.982 131.921 144.724  0.00  0.00    +0.000 A 
ATOM     37  C   UNL     1     110.635 131.444 144.706  0.00  0.00    +0.000 A 
ATOM     38  C   UNL     1     111.867 132.219 145.484  0.00  0.00    +0.000 A 
ATOM     39  C   UNL     1     110.520 131.743 145.467  0.00  0.00    +0.000 A 
ATOM     40  C   UNL     1     111.136 132.130 145.856  0.00  0.00    +0.000 A 
ENDBRANCH  30  35
ENDBRANCH  21  25
ENDBRANCH   8  21
BRANCH   7  41
ATOM     41  C   UNL     1     110.160 126.943 141.542  0.00  0.00    +0.000 C 
BRANCH  41  42
ATOM     42  O   UNL     1     109.839 127.449 142.110  0.00  0.00    +0.000 OA
BRANCH  42  44
ATOM     43  O   UNL     1     108.531 126.900 142.275  0.00  0.00    +0.000 OA
ATOM     44  C   UNL     1     109.023 127.552 142.157  0.00  0.00    +0.000 C 
BRANCH  44  45
ATOM     45  C   UNL     1     108.697 128.307 142.088  0.00  0.00    +0.000 C 
ATOM     46  C   UNL     1     108.466 128.721 142.763  0.00  0.00    +0.000 C 
BRANCH  46  48
ATOM     47  O   UNL     1     107.162 131.740 142.482  0.00  0.00    +0.000 OA
ATOM     48  C   UNL     1     108.140 129.476 142.693  0.00  0.00    +0.000 A 
ATOM     49  C   UNL     1     107.816 129.848 143.354  0.00  0.00    +0.000 A 
ATOM     50  C   UNL     1     108.137 129.858 141.962  0.00  0.00    +0.000 A 
ATOM     51  C   UNL     1     107.491 130.602 143.284  0.00  0.00    +0.000 A 
ATOM     52  C   UNL     1     107.812 130.612 141.891  0.00  0.00    +0.000 A 
ATOM     53  C   UNL     1     107.488 130.984 142.553  0.00  0.00    +0.000 A 
ENDBRANCH  46  48
ENDBRANCH  44  45
ENDBRANCH  42  44
ENDBRANCH  41  42
ENDBRANCH   7  41
TORSDOF 12
ENDMDL
MODEL 9
REMARK VINA RESULT:     -10.3      1.814      3.693
REMARK  Name = 42607911
REMARK  12 active torsions:
REMARK  status: ('A' for Active; 'I' for Inactive)
REMARK    1  A    between atoms: O_2  and  C_15
REMARK    2  A    between atoms: O_2  and  C_22
REMARK    3  A    between atoms: O_3  and  C_19
REMARK    4  A    between atoms: O_3  and  C_21
REMARK    5  A    between atoms: O_6  and  C_20
REMARK    6  A    between atoms: O_6  and  C_31
REMARK    7  A    between atoms: C_18  and  C_20
REMARK    8  A    between atoms: C_22  and  C_32
REMARK    9  A    between atoms: C_27  and  C_33
REMARK   10  A    between atoms: C_31  and  C_34
REMARK   11  A    between atoms: C_37  and  C_40
REMARK   12  A    between atoms: C_42  and  C_43
REMARK                            x       y       z     vdW  Elec       q    Type
REMARK                         _______ _______ _______ _____ _____    ______ ____
ROOT
ATOM      1  O   UNL     1     112.252 129.058 139.555  0.00  0.00    +0.000 OA
ATOM      2  O   UNL     1     113.512 129.131 141.335  0.00  0.00    +0.000 OA
ATOM      3  O   UNL     1     111.613 131.004 140.309  0.00  0.00    +0.000 OA
ATOM      4  C   UNL     1     112.562 130.067 140.822  0.00  0.00    +0.000 C 
ATOM      5  C   UNL     1     112.960 129.346 140.762  0.00  0.00    +0.000 C 
ATOM      6  C   UNL     1     112.010 130.282 140.248  0.00  0.00    +0.000 C 
ATOM      7  C   UNL     1     112.805 128.841 140.128  0.00  0.00    +0.000 C 
ATOM      8  C   UNL     1     111.855 129.777 139.615  0.00  0.00    +0.000 C 
ENDROOT
BRANCH   4   9
ATOM      9  O   UNL     1     112.718 130.572 141.456  0.00  0.00    +0.000 OA
BRANCH   9  11
ATOM     10  O   UNL     1     111.857 129.855 142.343  0.00  0.00    +0.000 OA
ATOM     11  C   UNL     1     112.234 130.555 142.124  0.00  0.00    +0.000 C 
BRANCH  11  12
ATOM     12  C   UNL     1     112.128 131.238 142.574  0.00  0.00    +0.000 C 
ATOM     13  C   UNL     1     112.171 131.202 143.397  0.00  0.00    +0.000 C 
BRANCH  13  15
ATOM     14  O   UNL     1     111.748 133.937 145.195  0.00  0.00    +0.000 OA
ATOM     15  C   UNL     1     112.065 131.886 143.847  0.00  0.00    +0.000 A 
ATOM     16  C   UNL     1     112.667 132.449 143.887  0.00  0.00    +0.000 A 
ATOM     17  C   UNL     1     111.359 132.005 144.255  0.00  0.00    +0.000 A 
ATOM     18  C   UNL     1     112.561 133.133 144.337  0.00  0.00    +0.000 A 
ATOM     19  C   UNL     1     111.254 132.689 144.705  0.00  0.00    +0.000 A 
ATOM     20  C   UNL     1     111.854 133.253 144.746  0.00  0.00    +0.000 A 
ENDBRANCH  13  15
ENDBRANCH  11  12
ENDBRANCH   9  11
ENDBRANCH   4   9
BRANCH   8  21
ATOM     21  O   UNL     1     111.302 129.994 139.041  0.00  0.00    +0.000 OA
BRANCH  21  25
ATOM     22  O   UNL     1     110.783 128.282 136.743  0.00  0.00    +0.000 OA
ATOM     23  O   UNL     1     112.611 130.503 136.480  0.00  0.00    +0.000 OA
ATOM     24  O   UNL     1     112.330 129.634 135.364  0.00  0.00    +0.000 OA
ATOM     25  C   UNL     1     111.432 129.799 138.250  0.00  0.00    +0.000 A 
ATOM     26  C   UNL     1     111.031 129.125 137.899  0.00  0.00    +0.000 A 
ATOM     27  C   UNL     1     111.172 128.930 137.074  0.00  0.00    +0.000 A 
ATOM     28  C   UNL     1     111.969 130.269 137.771  0.00  0.00    +0.000 A 
ATOM     29  C   UNL     1     111.687 129.381 136.615  0.00  0.00    +0.000 A 
ATOM     30  C   UNL     1     110.911 128.085 135.952  0.00  0.00    +0.000 C 
ATOM     31  C   UNL     1     111.426 128.535 135.493  0.00  0.00    +0.000 C 
ATOM     32  C   UNL     1     112.097 130.058 136.948  0.00  0.00    +0.000 A 
ATOM     33  C   UNL     1     111.814 129.183 135.824  0.00  0.00    +0.000 C 
BRANCH  30  35
ATOM     34  O   UNL     1     109.356 125.491 134.629  0.00  0.00    +0.000 OA
ATOM     35  C   UNL     1     110.522 127.436 135.621  0.00  0.00    +0.000 A 
ATOM     36  C   UNL     1     109.823 127.157 135.960  0.00  0.00    +0.000 A 
ATOM     37  C   UNL     1     110.833 127.067 134.952  0.00  0.00    +0.000 A 
ATOM     38  C   UNL     1     109.435 126.509 135.629  0.00  0.00    +0.000 A 
ATOM     39  C   UNL     1     110.444 126.419 134.621  0.00  0.00    +0.000 A 
ATOM     40  C   UNL     1     109.745 126.139 134.959  0.00  0.00    +0.000 A 
ENDBRANCH  30  35
ENDBRANCH  21  25
ENDBRANCH   8  21
BRANCH   7  41
ATOM     41  C   UNL     1     113.202 128.121 140.068  0.00  0.00    +0.000 C 
BRANCH  41  42
ATOM     42  O   UNL     1     112.937 127.546 139.539  0.00  0.00    +0.000 OA
BRANCH  42  44
ATOM     43  O   UNL     1     114.147 126.809 139.720  0.00  0.00    +0.000 OA
ATOM     44  C   UNL     1     113.384 126.866 139.410  0.00  0.00    +0.000 C 
BRANCH  44  45
ATOM     45  C   UNL     1     113.071 126.241 138.971  0.00  0.00    +0.000 C 
ATOM     46  C   UNL     1     113.270 126.154 138.176  0.00  0.00    +0.000 C 
BRANCH  46  48
ATOM     47  O   UNL     1     112.013 123.657 136.423  0.00  0.00    +0.000 OA
ATOM     48  C   UNL     1     112.956 125.530 137.737  0.00  0.00    +0.000 A 
ATOM     49  C   UNL     1     113.342 125.268 137.058  0.00  0.00    +0.000 A 
ATOM     50  C   UNL     1     112.256 125.167 137.979  0.00  0.00    +0.000 A 
ATOM     51  C   UNL     1     113.028 124.644 136.620  0.00  0.00    +0.000 A 
ATOM     52  C   UNL     1     111.941 124.543 137.542  0.00  0.00    +0.000 A 
ATOM     53  C   UNL     1     112.328 124.282 136.862  0.00  0.00    +0.000 A 
ENDBRANCH  46  48
ENDBRANCH  44  45
ENDBRANCH  42  44
ENDBRANCH  41  42
ENDBRANCH   7  41
TORSDOF 12
ENDMDL
MODEL 10
REMARK VINA RESULT:     -10.2      5.725      9.390
REMARK  Name = 42607911
REMARK  12 active torsions:
REMARK  status: ('A' for Active; 'I' for Inactive)
REMARK    1  A    between atoms: O_2  and  C_15
REMARK    2  A    between atoms: O_2  and  C_22
REMARK    3  A    between atoms: O_3  and  C_19
REMARK    4  A    between atoms: O_3  and  C_21
REMARK    5  A    between atoms: O_6  and  C_20
REMARK    6  A    between atoms: O_6  and  C_31
REMARK    7  A    between atoms: C_18  and  C_20
REMARK    8  A    between atoms: C_22  and  C_32
REMARK    9  A    between atoms: C_27  and  C_33
REMARK   10  A    between atoms: C_31  and  C_34
REMARK   11  A    between atoms: C_37  and  C_40
REMARK   12  A    between atoms: C_42  and  C_43
REMARK                            x       y       z     vdW  Elec       q    Type
REMARK                         _______ _______ _______ _____ _____    ______ ____
ROOT
ATOM      1  O   UNL     1     107.203 125.567 142.148  0.00  0.00    +0.000 OA
ATOM      2  O   UNL     1     107.657 125.070 140.072  0.00  0.00    +0.000 OA
ATOM      3  O   UNL     1     105.476 124.293 141.747  0.00  0.00    +0.000 OA
ATOM      4  C   UNL     1     106.566 124.681 140.910  0.00  0.00    +0.000 C 
ATOM      5  C   UNL     1     107.271 125.097 140.800  0.00  0.00    +0.000 C 
ATOM      6  C   UNL     1     106.181 124.709 141.638  0.00  0.00    +0.000 C 
ATOM      7  C   UNL     1     107.589 125.540 141.420  0.00  0.00    +0.000 C 
ATOM      8  C   UNL     1     106.499 125.152 142.257  0.00  0.00    +0.000 C 
ENDROOT
BRANCH   4   9
ATOM      9  O   UNL     1     106.248 124.239 140.290  0.00  0.00    +0.000 OA
BRANCH   9  11
ATOM     10  O   UNL     1     106.037 125.322 139.383  0.00  0.00    +0.000 OA
ATOM     11  C   UNL     1     105.790 124.609 139.713  0.00  0.00    +0.000 C 
BRANCH  11  12
ATOM     12  C   UNL     1     105.082 124.263 139.465  0.00  0.00    +0.000 C 
ATOM     13  C   UNL     1     104.757 124.466 138.734  0.00  0.00    +0.000 C 
BRANCH  13  15
ATOM     14  O   UNL     1     101.929 123.085 137.743  0.00  0.00    +0.000 OA
ATOM     15  C   UNL     1     104.050 124.121 138.487  0.00  0.00    +0.000 A 
ATOM     16  C   UNL     1     104.040 123.639 137.817  0.00  0.00    +0.000 A 
ATOM     17  C   UNL     1     103.355 124.258 138.908  0.00  0.00    +0.000 A 
ATOM     18  C   UNL     1     103.333 123.294 137.569  0.00  0.00    +0.000 A 
ATOM     19  C   UNL     1     102.648 123.913 138.660  0.00  0.00    +0.000 A 
ATOM     20  C   UNL     1     102.636 123.431 137.991  0.00  0.00    +0.000 A 
ENDBRANCH  13  15
ENDBRANCH  11  12
ENDBRANCH   9  11
ENDBRANCH   4   9
BRANCH   8  21
ATOM     21  O   UNL     1     106.112 125.179 142.986  0.00  0.00    +0.000 OA
BRANCH  21  25
ATOM     22  O   UNL     1     104.966 127.853 143.130  0.00  0.00    +0.000 OA
ATOM     23  O   UNL     1     106.703 126.932 145.247  0.00  0.00    +0.000 OA
ATOM     24  O   UNL     1     106.117 128.250 145.284  0.00  0.00    +0.000 OA
ATOM     25  C   UNL     1     106.022 125.899 143.378  0.00  0.00    +0.000 A 
ATOM     26  C   UNL     1     105.529 126.517 143.042  0.00  0.00    +0.000 A 
ATOM     27  C   UNL     1     105.441 127.263 143.458  0.00  0.00    +0.000 A 
ATOM     28  C   UNL     1     106.422 126.037 144.127  0.00  0.00    +0.000 A 
ATOM     29  C   UNL     1     105.825 127.395 144.176  0.00  0.00    +0.000 A 
ATOM     30  C   UNL     1     104.874 128.574 143.520  0.00  0.00    +0.000 C 
ATOM     31  C   UNL     1     105.258 128.706 144.237  0.00  0.00    +0.000 C 
ATOM     32  C   UNL     1     106.323 126.790 144.528  0.00  0.00    +0.000 A 
ATOM     33  C   UNL     1     105.733 128.117 144.565  0.00  0.00    +0.000 C 
BRANCH  30  35
ATOM     34  O   UNL     1     102.972 130.929 142.206  0.00  0.00    +0.000 OA
ATOM     35  C   UNL     1     104.398 129.163 143.191  0.00  0.00    +0.000 A 
ATOM     36  C   UNL     1     104.152 129.104 142.406  0.00  0.00    +0.000 A 
ATOM     37  C   UNL     1     104.170 129.810 143.648  0.00  0.00    +0.000 A 
ATOM     38  C   UNL     1     103.677 129.693 142.078  0.00  0.00    +0.000 A 
ATOM     39  C   UNL     1     103.694 130.399 143.320  0.00  0.00    +0.000 A 
ATOM     40  C   UNL     1     103.448 130.341 142.534  0.00  0.00    +0.000 A 
ENDBRANCH  30  35
ENDBRANCH  21  25
ENDBRANCH   8  21
BRANCH   7  41
ATOM     41  C   UNL     1     108.293 125.955 141.310  0.00  0.00    +0.000 C 
BRANCH  41  42
ATOM     42  O   UNL     1     108.530 126.520 141.863  0.00  0.00    +0.000 OA
BRANCH  42  44
ATOM     43  O   UNL     1     109.743 127.108 141.391  0.00  0.00    +0.000 OA
ATOM     44  C   UNL     1     108.954 127.184 141.620  0.00  0.00    +0.000 C 
BRANCH  44  45
ATOM     45  C   UNL     1     108.589 127.924 141.605  0.00  0.00    +0.000 C 
ATOM     46  C   UNL     1     108.761 128.480 142.189  0.00  0.00    +0.000 C 
BRANCH  46  48
ATOM     47  O   UNL     1     107.302 131.440 142.127  0.00  0.00    +0.000 OA
ATOM     48  C   UNL     1     108.396 129.221 142.174  0.00  0.00    +0.000 A 
ATOM     49  C   UNL     1     108.490 129.740 142.808  0.00  0.00    +0.000 A 
ATOM     50  C   UNL     1     107.938 129.441 141.525  0.00  0.00    +0.000 A 
ATOM     51  C   UNL     1     108.126 130.479 142.792  0.00  0.00    +0.000 A 
ATOM     52  C   UNL     1     107.573 130.181 141.509  0.00  0.00    +0.000 A 
ATOM     53  C   UNL     1     107.667 130.699 142.143  0.00  0.00    +0.000 A 
ENDBRANCH  46  48
ENDBRANCH  44  45
ENDBRANCH  42  44
ENDBRANCH  41  42
ENDBRANCH   7  41
TORSDOF 12
ENDMDL
