MODEL 1
REMARK VINA RESULT:      -7.9      0.000      0.000
REMARK  Name = 44257174
REMARK  2 active torsions:
REMARK  status: ('A' for Active; 'I' for Inactive)
REMARK    1  A    between atoms: O_2  and  C_12
REMARK    2  A    between atoms: C_4  and  C_9
REMARK                            x       y       z     vdW  Elec       q    Type
REMARK                         _______ _______ _______ _____ _____    ______ ____
ROOT
ATOM      1  O   UNL     1     102.875 130.559 142.060  0.00  0.00    +0.000 OA
ATOM      2  C   UNL     1     102.351 130.876 141.506  0.00  0.00    +0.000 C 
ATOM      3  C   UNL     1     102.238 130.499 140.781  0.00  0.00    +0.000 C 
ATOM      4  C   UNL     1     102.649 129.804 140.610  0.00  0.00    +0.000 C 
ATOM      5  C   UNL     1     103.172 129.487 141.162  0.00  0.00    +0.000 A 
ATOM      6  C   UNL     1     103.285 129.865 141.887  0.00  0.00    +0.000 A 
ATOM      7  C   UNL     1     103.828 129.544 142.472  0.00  0.00    +0.000 A 
ATOM      8  C   UNL     1     103.594 128.763 140.972  0.00  0.00    +0.000 A 
ATOM      9  C   UNL     1     104.258 128.821 142.299  0.00  0.00    +0.000 A 
ATOM     10  C   UNL     1     104.141 128.428 141.544  0.00  0.00    +0.000 A 
ATOM     11  C   UNL     1     103.934 129.928 143.194  0.00  0.00    +0.000 C 
ENDROOT
BRANCH   2  13
ATOM     12  O   UNL     1     100.711 133.657 142.194  0.00  0.00    +0.000 OA
ATOM     13  C   UNL     1     101.940 131.571 141.678  0.00  0.00    +0.000 A 
ATOM     14  C   UNL     1     101.200 131.534 142.040  0.00  0.00    +0.000 A 
ATOM     15  C   UNL     1     102.271 132.303 141.488  0.00  0.00    +0.000 A 
ATOM     16  C   UNL     1     100.790 132.230 142.212  0.00  0.00    +0.000 A 
ATOM     17  C   UNL     1     101.861 132.998 141.661  0.00  0.00    +0.000 A 
ATOM     18  C   UNL     1     101.121 132.961 142.022  0.00  0.00    +0.000 A 
ENDBRANCH   2  13
BRANCH   9  19
ATOM     19  O   UNL     1     104.781 128.506 142.853  0.00  0.00    +0.000 OA
ATOM     20  C   UNL     1     105.246 127.853 142.659  0.00  0.00    +0.000 C 
ENDBRANCH   9  19
TORSDOF 2
ENDMDL
MODEL 2
REMARK VINA RESULT:      -7.8     10.329     12.420
REMARK  Name = 44257174
REMARK  2 active torsions:
REMARK  status: ('A' for Active; 'I' for Inactive)
REMARK    1  A    between atoms: O_2  and  C_12
REMARK    2  A    between atoms: C_4  and  C_9
REMARK                            x       y       z     vdW  Elec       q    Type
REMARK                         _______ _______ _______ _____ _____    ______ ____
ROOT
ATOM      1  O   UNL     1     112.119 126.235 136.077  0.00  0.00    +0.000 OA
ATOM      2  C   UNL     1     112.295 125.476 136.350  0.00  0.00    +0.000 C 
ATOM      3  C   UNL     1     111.756 124.862 136.235  0.00  0.00    +0.000 C 
ATOM      4  C   UNL     1     111.042 125.006 135.848  0.00  0.00    +0.000 C 
ATOM      5  C   UNL     1     110.866 125.764 135.575  0.00  0.00    +0.000 A 
ATOM      6  C   UNL     1     111.405 126.379 135.689  0.00  0.00    +0.000 A 
ATOM      7  C   UNL     1     111.233 127.173 135.409  0.00  0.00    +0.000 A 
ATOM      8  C   UNL     1     110.119 125.902 135.173  0.00  0.00    +0.000 A 
ATOM      9  C   UNL     1     110.491 127.329 135.006  0.00  0.00    +0.000 A 
ATOM     10  C   UNL     1     109.931 126.689 134.886  0.00  0.00    +0.000 A 
ATOM     11  C   UNL     1     111.778 127.781 135.528  0.00  0.00    +0.000 C 
ENDROOT
BRANCH   2  13
ATOM     12  O   UNL     1     115.153 124.902 137.897  0.00  0.00    +0.000 OA
ATOM     13  C   UNL     1     113.009 125.333 136.737  0.00  0.00    +0.000 A 
ATOM     14  C   UNL     1     113.092 125.526 137.535  0.00  0.00    +0.000 A 
ATOM     15  C   UNL     1     113.641 124.997 136.325  0.00  0.00    +0.000 A 
ATOM     16  C   UNL     1     113.807 125.382 137.921  0.00  0.00    +0.000 A 
ATOM     17  C   UNL     1     114.355 124.854 136.712  0.00  0.00    +0.000 A 
ATOM     18  C   UNL     1     114.438 125.046 137.510  0.00  0.00    +0.000 A 
ENDBRANCH   2  13
BRANCH   9  19
ATOM     19  O   UNL     1     110.318 128.088 134.734  0.00  0.00    +0.000 OA
ATOM     20  C   UNL     1     109.553 128.388 134.805  0.00  0.00    +0.000 C 
ENDBRANCH   9  19
TORSDOF 2
ENDMDL
MODEL 3
REMARK VINA RESULT:      -7.8      1.239      4.444
REMARK  Name = 44257174
REMARK  2 active torsions:
REMARK  status: ('A' for Active; 'I' for Inactive)
REMARK    1  A    between atoms: O_2  and  C_12
REMARK    2  A    between atoms: C_4  and  C_9
REMARK                            x       y       z     vdW  Elec       q    Type
REMARK                         _______ _______ _______ _____ _____    ______ ____
ROOT
ATOM      1  O   UNL     1     102.499 131.948 141.300  0.00  0.00    +0.000 OA
ATOM      2  C   UNL     1     102.132 131.229 141.472  0.00  0.00    +0.000 C 
ATOM      3  C   UNL     1     101.395 131.221 141.843  0.00  0.00    +0.000 C 
ATOM      4  C   UNL     1     101.026 131.931 142.044  0.00  0.00    +0.000 C 
ATOM      5  C   UNL     1     101.393 132.649 141.873  0.00  0.00    +0.000 A 
ATOM      6  C   UNL     1     102.130 132.658 141.501  0.00  0.00    +0.000 A 
ATOM      7  C   UNL     1     102.523 133.400 141.317  0.00  0.00    +0.000 A 
ATOM      8  C   UNL     1     100.999 133.383 142.086  0.00  0.00    +0.000 A 
ATOM      9  C   UNL     1     102.144 134.143 141.524  0.00  0.00    +0.000 A 
ATOM     10  C   UNL     1     101.377 134.134 141.911  0.00  0.00    +0.000 A 
ATOM     11  C   UNL     1     103.259 133.398 140.946  0.00  0.00    +0.000 C 
ENDROOT
BRANCH   2  13
ATOM     12  O   UNL     1     103.608 128.390 140.666  0.00  0.00    +0.000 OA
ATOM     13  C   UNL     1     102.501 130.519 141.271  0.00  0.00    +0.000 A 
ATOM     14  C   UNL     1     103.060 130.187 141.778  0.00  0.00    +0.000 A 
ATOM     15  C   UNL     1     102.311 130.142 140.562  0.00  0.00    +0.000 A 
ATOM     16  C   UNL     1     103.429 129.477 141.576  0.00  0.00    +0.000 A 
ATOM     17  C   UNL     1     102.680 129.432 140.361  0.00  0.00    +0.000 A 
ATOM     18  C   UNL     1     103.239 129.100 140.868  0.00  0.00    +0.000 A 
ENDBRANCH   2  13
BRANCH   9  19
ATOM     19  O   UNL     1     102.513 134.860 141.351  0.00  0.00    +0.000 OA
ATOM     20  C   UNL     1     102.202 135.565 141.642  0.00  0.00    +0.000 C 
ENDBRANCH   9  19
TORSDOF 2
ENDMDL
MODEL 4
REMARK VINA RESULT:      -7.6      8.126      9.099
REMARK  Name = 44257174
REMARK  2 active torsions:
REMARK  status: ('A' for Active; 'I' for Inactive)
REMARK    1  A    between atoms: O_2  and  C_12
REMARK    2  A    between atoms: C_4  and  C_9
REMARK                            x       y       z     vdW  Elec       q    Type
REMARK                         _______ _______ _______ _____ _____    ______ ____
ROOT
ATOM      1  O   UNL     1     104.945 124.675 147.268  0.00  0.00    +0.000 OA
ATOM      2  C   UNL     1     105.365 125.069 147.860  0.00  0.00    +0.000 C 
ATOM      3  C   UNL     1     104.961 125.440 148.476  0.00  0.00    +0.000 C 
ATOM      4  C   UNL     1     104.136 125.418 148.500  0.00  0.00    +0.000 C 
ATOM      5  C   UNL     1     103.716 125.025 147.909  0.00  0.00    +0.000 A 
ATOM      6  C   UNL     1     104.120 124.654 147.293  0.00  0.00    +0.000 A 
ATOM      7  C   UNL     1     103.694 124.242 146.671  0.00  0.00    +0.000 A 
ATOM      8  C   UNL     1     102.858 125.009 147.946  0.00  0.00    +0.000 A 
ATOM      9  C   UNL     1     102.835 124.215 146.692  0.00  0.00    +0.000 A 
ATOM     10  C   UNL     1     102.415 124.602 147.333  0.00  0.00    +0.000 A 
ATOM     11  C   UNL     1     104.106 123.873 146.059  0.00  0.00    +0.000 C 
ENDROOT
BRANCH   2  13
ATOM     12  O   UNL     1     108.663 125.153 147.761  0.00  0.00    +0.000 OA
ATOM     13  C   UNL     1     106.189 125.090 147.834  0.00  0.00    +0.000 A 
ATOM     14  C   UNL     1     106.573 125.551 147.268  0.00  0.00    +0.000 A 
ATOM     15  C   UNL     1     106.630 124.650 148.377  0.00  0.00    +0.000 A 
ATOM     16  C   UNL     1     107.398 125.571 147.244  0.00  0.00    +0.000 A 
ATOM     17  C   UNL     1     107.454 124.672 148.351  0.00  0.00    +0.000 A 
ATOM     18  C   UNL     1     107.838 125.132 147.785  0.00  0.00    +0.000 A 
ENDBRANCH   2  13
BRANCH   9  19
ATOM     19  O   UNL     1     102.418 123.822 146.099  0.00  0.00    +0.000 OA
ATOM     20  C   UNL     1     101.600 123.735 146.158  0.00  0.00    +0.000 C 
ENDBRANCH   9  19
TORSDOF 2
ENDMDL
MODEL 5
REMARK VINA RESULT:      -7.5      9.747     11.570
REMARK  Name = 44257174
REMARK  2 active torsions:
REMARK  status: ('A' for Active; 'I' for Inactive)
REMARK    1  A    between atoms: O_2  and  C_12
REMARK    2  A    between atoms: C_4  and  C_9
REMARK                            x       y       z     vdW  Elec       q    Type
REMARK                         _______ _______ _______ _____ _____    ______ ____
ROOT
ATOM      1  O   UNL     1     111.869 126.267 136.128  0.00  0.00    +0.000 OA
ATOM      2  C   UNL     1     111.101 126.151 135.848  0.00  0.00    +0.000 C 
ATOM      3  C   UNL     1     110.792 125.388 135.793  0.00  0.00    +0.000 C 
ATOM      4  C   UNL     1     111.251 124.741 136.018  0.00  0.00    +0.000 C 
ATOM      5  C   UNL     1     112.018 124.856 136.298  0.00  0.00    +0.000 A 
ATOM      6  C   UNL     1     112.327 125.619 136.352  0.00  0.00    +0.000 A 
ATOM      7  C   UNL     1     113.125 125.752 136.642  0.00  0.00    +0.000 A 
ATOM      8  C   UNL     1     112.487 124.173 136.529  0.00  0.00    +0.000 A 
ATOM      9  C   UNL     1     113.608 125.081 136.878  0.00  0.00    +0.000 A 
ATOM     10  C   UNL     1     113.286 124.287 136.821  0.00  0.00    +0.000 A 
ATOM     11  C   UNL     1     113.425 126.519 136.694  0.00  0.00    +0.000 C 
ENDROOT
BRANCH   2  13
ATOM     12  O   UNL     1     109.267 128.744 134.951  0.00  0.00    +0.000 OA
ATOM     13  C   UNL     1     110.642 126.799 135.623  0.00  0.00    +0.000 A 
ATOM     14  C   UNL     1     110.659 127.066 134.842  0.00  0.00    +0.000 A 
ATOM     15  C   UNL     1     110.167 127.181 136.180  0.00  0.00    +0.000 A 
ATOM     16  C   UNL     1     110.200 127.714 134.619  0.00  0.00    +0.000 A 
ATOM     17  C   UNL     1     109.709 127.829 135.955  0.00  0.00    +0.000 A 
ATOM     18  C   UNL     1     109.725 128.095 135.174  0.00  0.00    +0.000 A 
ENDBRANCH   2  13
BRANCH   9  19
ATOM     19  O   UNL     1     114.375 125.200 137.158  0.00  0.00    +0.000 OA
ATOM     20  C   UNL     1     114.825 124.557 137.412  0.00  0.00    +0.000 C 
ENDBRANCH   9  19
TORSDOF 2
ENDMDL
MODEL 6
REMARK VINA RESULT:      -7.5      7.266      8.671
REMARK  Name = 44257174
REMARK  2 active torsions:
REMARK  status: ('A' for Active; 'I' for Inactive)
REMARK    1  A    between atoms: O_2  and  C_12
REMARK    2  A    between atoms: C_4  and  C_9
REMARK                            x       y       z     vdW  Elec       q    Type
REMARK                         _______ _______ _______ _____ _____    ______ ____
ROOT
ATOM      1  O   UNL     1     104.342 123.519 138.151  0.00  0.00    +0.000 OA
ATOM      2  C   UNL     1     104.232 123.748 138.936  0.00  0.00    +0.000 C 
ATOM      3  C   UNL     1     103.471 123.872 139.228  0.00  0.00    +0.000 C 
ATOM      4  C   UNL     1     102.818 123.766 138.734  0.00  0.00    +0.000 C 
ATOM      5  C   UNL     1     102.927 123.537 137.949  0.00  0.00    +0.000 A 
ATOM      6  C   UNL     1     103.689 123.413 137.658  0.00  0.00    +0.000 A 
ATOM      7  C   UNL     1     103.815 123.174 136.842  0.00  0.00    +0.000 A 
ATOM      8  C   UNL     1     102.239 123.430 137.445  0.00  0.00    +0.000 A 
ATOM      9  C   UNL     1     103.139 123.063 136.323  0.00  0.00    +0.000 A 
ATOM     10  C   UNL     1     102.346 123.192 136.627  0.00  0.00    +0.000 A 
ATOM     11  C   UNL     1     104.581 123.053 136.559  0.00  0.00    +0.000 C 
ENDROOT
BRANCH   2  13
ATOM     12  O   UNL     1     106.845 124.166 140.909  0.00  0.00    +0.000 OA
ATOM     13  C   UNL     1     104.885 123.853 139.429  0.00  0.00    +0.000 A 
ATOM     14  C   UNL     1     105.273 124.581 139.451  0.00  0.00    +0.000 A 
ATOM     15  C   UNL     1     105.151 123.229 139.900  0.00  0.00    +0.000 A 
ATOM     16  C   UNL     1     105.926 124.685 139.945  0.00  0.00    +0.000 A 
ATOM     17  C   UNL     1     105.804 123.335 140.393  0.00  0.00    +0.000 A 
ATOM     18  C   UNL     1     106.192 124.062 140.415  0.00  0.00    +0.000 A 
ENDBRANCH   2  13
BRANCH   9  19
ATOM     19  O   UNL     1     103.251 122.834 135.539  0.00  0.00    +0.000 OA
ATOM     20  C   UNL     1     102.695 123.039 134.965  0.00  0.00    +0.000 C 
ENDBRANCH   9  19
TORSDOF 2
ENDMDL
MODEL 7
REMARK VINA RESULT:      -7.4     11.409     12.293
REMARK  Name = 44257174
REMARK  2 active torsions:
REMARK  status: ('A' for Active; 'I' for Inactive)
REMARK    1  A    between atoms: O_2  and  C_12
REMARK    2  A    between atoms: C_4  and  C_9
REMARK                            x       y       z     vdW  Elec       q    Type
REMARK                         _______ _______ _______ _____ _____    ______ ____
ROOT
ATOM      1  O   UNL     1     112.761 126.467 136.598  0.00  0.00    +0.000 OA
ATOM      2  C   UNL     1     113.392 126.993 136.512  0.00  0.00    +0.000 C 
ATOM      3  C   UNL     1     114.166 126.709 136.494  0.00  0.00    +0.000 C 
ATOM      4  C   UNL     1     114.310 125.899 136.562  0.00  0.00    +0.000 C 
ATOM      5  C   UNL     1     113.681 125.374 136.649  0.00  0.00    +0.000 A 
ATOM      6  C   UNL     1     112.906 125.658 136.666  0.00  0.00    +0.000 A 
ATOM      7  C   UNL     1     112.242 125.120 136.756  0.00  0.00    +0.000 A 
ATOM      8  C   UNL     1     113.844 124.533 136.719  0.00  0.00    +0.000 A 
ATOM      9  C   UNL     1     112.386 124.276 136.828  0.00  0.00    +0.000 A 
ATOM     10  C   UNL     1     113.192 123.981 136.809  0.00  0.00    +0.000 A 
ATOM     11  C   UNL     1     111.470 125.413 136.772  0.00  0.00    +0.000 C 
ENDROOT
BRANCH   2  13
ATOM     12  O   UNL     1     112.811 130.229 136.235  0.00  0.00    +0.000 OA
ATOM     13  C   UNL     1     113.247 127.802 136.443  0.00  0.00    +0.000 A 
ATOM     14  C   UNL     1     113.224 128.276 137.118  0.00  0.00    +0.000 A 
ATOM     15  C   UNL     1     113.124 128.137 135.698  0.00  0.00    +0.000 A 
ATOM     16  C   UNL     1     113.079 129.085 137.048  0.00  0.00    +0.000 A 
ATOM     17  C   UNL     1     112.978 128.946 135.630  0.00  0.00    +0.000 A 
ATOM     18  C   UNL     1     112.956 129.420 136.305  0.00  0.00    +0.000 A 
ENDBRANCH   2  13
BRANCH   9  19
ATOM     19  O   UNL     1     111.754 123.753 136.914  0.00  0.00    +0.000 OA
ATOM     20  C   UNL     1     111.890 122.978 137.161  0.00  0.00    +0.000 C 
ENDBRANCH   9  19
TORSDOF 2
ENDMDL
MODEL 8
REMARK VINA RESULT:      -7.4     10.746     11.820
REMARK  Name = 44257174
REMARK  2 active torsions:
REMARK  status: ('A' for Active; 'I' for Inactive)
REMARK    1  A    between atoms: O_2  and  C_12
REMARK    2  A    between atoms: C_4  and  C_9
REMARK                            x       y       z     vdW  Elec       q    Type
REMARK                         _______ _______ _______ _____ _____    ______ ____
ROOT
ATOM      1  O   UNL     1     112.239 126.137 137.392  0.00  0.00    +0.000 OA
ATOM      2  C   UNL     1     112.297 125.787 136.647  0.00  0.00    +0.000 C 
ATOM      3  C   UNL     1     113.005 125.435 136.411  0.00  0.00    +0.000 C 
ATOM      4  C   UNL     1     113.654 125.433 136.921  0.00  0.00    +0.000 C 
ATOM      5  C   UNL     1     113.596 125.783 137.665  0.00  0.00    +0.000 A 
ATOM      6  C   UNL     1     112.888 126.135 137.900  0.00  0.00    +0.000 A 
ATOM      7  C   UNL     1     112.815 126.504 138.674  0.00  0.00    +0.000 A 
ATOM      8  C   UNL     1     114.280 125.775 138.186  0.00  0.00    +0.000 A 
ATOM      9  C   UNL     1     113.487 126.505 139.208  0.00  0.00    +0.000 A 
ATOM     10  C   UNL     1     114.225 126.138 138.963  0.00  0.00    +0.000 A 
ATOM     11  C   UNL     1     112.103 126.853 138.901  0.00  0.00    +0.000 C 
ENDROOT
BRANCH   2  13
ATOM     12  O   UNL     1     109.698 125.792 134.613  0.00  0.00    +0.000 OA
ATOM     13  C   UNL     1     111.648 125.789 136.138  0.00  0.00    +0.000 A 
ATOM     14  C   UNL     1     111.476 126.460 135.690  0.00  0.00    +0.000 A 
ATOM     15  C   UNL     1     111.169 125.119 136.078  0.00  0.00    +0.000 A 
ATOM     16  C   UNL     1     110.826 126.461 135.182  0.00  0.00    +0.000 A 
ATOM     17  C   UNL     1     110.520 125.121 135.570  0.00  0.00    +0.000 A 
ATOM     18  C   UNL     1     110.348 125.792 135.122  0.00  0.00    +0.000 A 
ENDBRANCH   2  13
BRANCH   9  19
ATOM     19  O   UNL     1     113.426 126.856 139.952  0.00  0.00    +0.000 OA
ATOM     20  C   UNL     1     114.104 126.997 140.399  0.00  0.00    +0.000 C 
ENDBRANCH   9  19
TORSDOF 2
ENDMDL
MODEL 9
REMARK VINA RESULT:      -7.3     10.601     12.754
REMARK  Name = 44257174
REMARK  2 active torsions:
REMARK  status: ('A' for Active; 'I' for Inactive)
REMARK    1  A    between atoms: O_2  and  C_12
REMARK    2  A    between atoms: C_4  and  C_9
REMARK                            x       y       z     vdW  Elec       q    Type
REMARK                         _______ _______ _______ _____ _____    ______ ____
ROOT
ATOM      1  O   UNL     1     112.700 126.960 136.121  0.00  0.00    +0.000 OA
ATOM      2  C   UNL     1     113.458 127.015 136.445  0.00  0.00    +0.000 C 
ATOM      3  C   UNL     1     113.840 127.745 136.479  0.00  0.00    +0.000 C 
ATOM      4  C   UNL     1     113.464 128.421 136.190  0.00  0.00    +0.000 C 
ATOM      5  C   UNL     1     112.708 128.367 135.867  0.00  0.00    +0.000 A 
ATOM      6  C   UNL     1     112.326 127.636 135.832  0.00  0.00    +0.000 A 
ATOM      7  C   UNL     1     111.537 127.567 135.498  0.00  0.00    +0.000 A 
ATOM      8  C   UNL     1     112.328 129.078 135.570  0.00  0.00    +0.000 A 
ATOM      9  C   UNL     1     111.142 128.267 135.196  0.00  0.00    +0.000 A 
ATOM     10  C   UNL     1     111.540 129.027 135.232  0.00  0.00    +0.000 A 
ATOM     11  C   UNL     1     111.163 126.832 135.467  0.00  0.00    +0.000 C 
ENDROOT
BRANCH   2  13
ATOM     12  O   UNL     1     114.956 124.309 137.596  0.00  0.00    +0.000 OA
ATOM     13  C   UNL     1     113.832 126.339 136.733  0.00  0.00    +0.000 A 
ATOM     14  C   UNL     1     113.726 126.111 137.519  0.00  0.00    +0.000 A 
ATOM     15  C   UNL     1     114.313 125.889 136.234  0.00  0.00    +0.000 A 
ATOM     16  C   UNL     1     114.101 125.435 137.806  0.00  0.00    +0.000 A 
ATOM     17  C   UNL     1     114.687 125.213 136.523  0.00  0.00    +0.000 A 
ATOM     18  C   UNL     1     114.581 124.986 137.309  0.00  0.00    +0.000 A 
ENDBRANCH   2  13
BRANCH   9  19
ATOM     19  O   UNL     1     110.385 128.210 134.873  0.00  0.00    +0.000 OA
ATOM     20  C   UNL     1     109.994 128.888 134.613  0.00  0.00    +0.000 C 
ENDBRANCH   9  19
TORSDOF 2
ENDMDL
MODEL 10
REMARK VINA RESULT:      -7.3      7.854      8.735
REMARK  Name = 44257174
REMARK  2 active torsions:
REMARK  status: ('A' for Active; 'I' for Inactive)
REMARK    1  A    between atoms: O_2  and  C_12
REMARK    2  A    between atoms: C_4  and  C_9
REMARK                            x       y       z     vdW  Elec       q    Type
REMARK                         _______ _______ _______ _____ _____    ______ ____
ROOT
ATOM      1  O   UNL     1     105.017 124.410 147.444  0.00  0.00    +0.000 OA
ATOM      2  C   UNL     1     104.644 124.487 146.711  0.00  0.00    +0.000 C 
ATOM      3  C   UNL     1     105.050 124.821 146.075  0.00  0.00    +0.000 C 
ATOM      4  C   UNL     1     105.828 125.077 146.172  0.00  0.00    +0.000 C 
ATOM      5  C   UNL     1     106.201 125.000 146.903  0.00  0.00    +0.000 A 
ATOM      6  C   UNL     1     105.795 124.667 147.539  0.00  0.00    +0.000 A 
ATOM      7  C   UNL     1     106.173 124.581 148.307  0.00  0.00    +0.000 A 
ATOM      8  C   UNL     1     107.012 125.271 146.990  0.00  0.00    +0.000 A 
ATOM      9  C   UNL     1     106.983 124.846 148.413  0.00  0.00    +0.000 A 
ATOM     10  C   UNL     1     107.405 125.193 147.750  0.00  0.00    +0.000 A 
ATOM     11  C   UNL     1     105.759 124.246 148.937  0.00  0.00    +0.000 C 
ENDROOT
BRANCH   2  13
ATOM     12  O   UNL     1     101.532 123.459 146.329  0.00  0.00    +0.000 OA
ATOM     13  C   UNL     1     103.866 124.231 146.616  0.00  0.00    +0.000 A 
ATOM     14  C   UNL     1     103.243 124.680 146.917  0.00  0.00    +0.000 A 
ATOM     15  C   UNL     1     103.711 123.524 146.219  0.00  0.00    +0.000 A 
ATOM     16  C   UNL     1     102.465 124.423 146.821  0.00  0.00    +0.000 A 
ATOM     17  C   UNL     1     102.933 123.267 146.124  0.00  0.00    +0.000 A 
ATOM     18  C   UNL     1     102.310 123.717 146.425  0.00  0.00    +0.000 A 
ENDBRANCH   2  13
BRANCH   9  19
ATOM     19  O   UNL     1     107.353 124.768 149.146  0.00  0.00    +0.000 OA
ATOM     20  C   UNL     1     108.148 124.554 149.186  0.00  0.00    +0.000 C 
ENDBRANCH   9  19
TORSDOF 2
ENDMDL
