MODEL 1
REMARK VINA RESULT:      -8.9      0.000      0.000
REMARK  Name = 14353450
REMARK  3 active torsions:
REMARK  status: ('A' for Active; 'I' for Inactive)
REMARK    1  A    between atoms: O_2  and  C_11
REMARK    2  A    between atoms: O_4  and  C_15
REMARK    3  A    between atoms: C_14  and  C_17
REMARK                            x       y       z     vdW  Elec       q    Type
REMARK                         _______ _______ _______ _____ _____    ______ ____
ROOT
ATOM      1  O   UNL     1     104.920 124.449 147.592  0.00  0.00    +0.000 OA
ATOM      2  O   UNL     1     107.439 125.190 146.384  0.00  0.00    +0.000 OA
ATOM      3  O   UNL     1     106.271 124.936 145.576  0.00  0.00    +0.000 OA
ATOM      4  C   UNL     1     106.166 124.815 146.995  0.00  0.00    +0.000 A 
ATOM      5  C   UNL     1     105.716 124.653 147.667  0.00  0.00    +0.000 A 
ATOM      6  C   UNL     1     106.064 124.693 148.452  0.00  0.00    +0.000 A 
ATOM      7  C   UNL     1     107.361 125.074 147.838  0.00  0.00    +0.000 A 
ATOM      8  C   UNL     1     106.892 124.904 148.538  0.00  0.00    +0.000 A 
ATOM      9  C   UNL     1     106.996 125.029 147.062  0.00  0.00    +0.000 A 
ATOM     10  C   UNL     1     105.821 124.774 146.248  0.00  0.00    +0.000 A 
ATOM     11  C   UNL     1     104.575 124.407 146.843  0.00  0.00    +0.000 A 
ATOM     12  C   UNL     1     105.025 124.570 146.171  0.00  0.00    +0.000 A 
ATOM     13  C   UNL     1     105.606 124.528 149.118  0.00  0.00    +0.000 C 
ATOM     14  C   UNL     1     108.157 125.278 147.911  0.00  0.00    +0.000 C 
ENDROOT
BRANCH  11  16
ATOM     15  O   UNL     1     101.391 123.593 146.541  0.00  0.00    +0.000 OA
ATOM     16  C   UNL     1     103.779 124.203 146.767  0.00  0.00    +0.000 A 
ATOM     17  C   UNL     1     103.196 124.781 146.853  0.00  0.00    +0.000 A 
ATOM     18  C   UNL     1     103.566 123.422 146.607  0.00  0.00    +0.000 A 
ATOM     19  C   UNL     1     102.400 124.577 146.777  0.00  0.00    +0.000 A 
ATOM     20  C   UNL     1     102.770 123.219 146.531  0.00  0.00    +0.000 A 
ATOM     21  C   UNL     1     102.187 123.796 146.616  0.00  0.00    +0.000 A 
ENDBRANCH  11  16
BRANCH   8  22
ATOM     22  O   UNL     1     107.235 124.945 149.288  0.00  0.00    +0.000 OA
ATOM     23  C   UNL     1     107.603 124.280 149.609  0.00  0.00    +0.000 C 
ENDBRANCH   8  22
BRANCH  12  24
ATOM     24  O   UNL     1     104.680 124.528 145.424  0.00  0.00    +0.000 OA
ATOM     25  C   UNL     1     105.152 124.410 144.757  0.00  0.00    +0.000 C 
ENDBRANCH  12  24
TORSDOF 3
ENDMDL
MODEL 2
REMARK VINA RESULT:      -8.4      1.228      4.468
REMARK  Name = 14353450
REMARK  3 active torsions:
REMARK  status: ('A' for Active; 'I' for Inactive)
REMARK    1  A    between atoms: O_2  and  C_11
REMARK    2  A    between atoms: O_4  and  C_15
REMARK    3  A    between atoms: C_14  and  C_17
REMARK                            x       y       z     vdW  Elec       q    Type
REMARK                         _______ _______ _______ _____ _____    ______ ____
ROOT
ATOM      1  O   UNL     1     104.913 124.597 147.138  0.00  0.00    +0.000 OA
ATOM      2  O   UNL     1     102.365 125.184 148.368  0.00  0.00    +0.000 OA
ATOM      3  O   UNL     1     103.599 125.646 148.954  0.00  0.00    +0.000 OA
ATOM      4  C   UNL     1     103.653 124.887 147.746  0.00  0.00    +0.000 A 
ATOM      5  C   UNL     1     104.091 124.537 147.140  0.00  0.00    +0.000 A 
ATOM      6  C   UNL     1     103.701 124.107 146.506  0.00  0.00    +0.000 A 
ATOM      7  C   UNL     1     102.389 124.405 147.132  0.00  0.00    +0.000 A 
ATOM      8  C   UNL     1     102.845 124.041 146.502  0.00  0.00    +0.000 A 
ATOM      9  C   UNL     1     102.795 124.831 147.758  0.00  0.00    +0.000 A 
ATOM     10  C   UNL     1     104.037 125.296 148.349  0.00  0.00    +0.000 A 
ATOM     11  C   UNL     1     105.298 125.007 147.742  0.00  0.00    +0.000 A 
ATOM     12  C   UNL     1     104.860 125.357 148.348  0.00  0.00    +0.000 A 
ATOM     13  C   UNL     1     104.147 123.761 145.904  0.00  0.00    +0.000 C 
ATOM     14  C   UNL     1     101.566 124.347 147.136  0.00  0.00    +0.000 C 
ENDROOT
BRANCH  11  16
ATOM     15  O   UNL     1     108.590 125.249 147.731  0.00  0.00    +0.000 OA
ATOM     16  C   UNL     1     106.121 125.067 147.740  0.00  0.00    +0.000 A 
ATOM     17  C   UNL     1     106.492 125.628 147.261  0.00  0.00    +0.000 A 
ATOM     18  C   UNL     1     106.573 124.567 148.215  0.00  0.00    +0.000 A 
ATOM     19  C   UNL     1     107.315 125.688 147.259  0.00  0.00    +0.000 A 
ATOM     20  C   UNL     1     107.396 124.628 148.212  0.00  0.00    +0.000 A 
ATOM     21  C   UNL     1     107.767 125.188 147.735  0.00  0.00    +0.000 A 
ENDBRANCH  11  16
BRANCH   8  22
ATOM     22  O   UNL     1     102.463 123.630 145.896  0.00  0.00    +0.000 OA
ATOM     23  C   UNL     1     102.307 122.824 145.980  0.00  0.00    +0.000 C 
ENDBRANCH   8  22
BRANCH  12  24
ATOM     24  O   UNL     1     105.245 125.766 148.951  0.00  0.00    +0.000 OA
ATOM     25  C   UNL     1     104.857 126.377 149.347  0.00  0.00    +0.000 C 
ENDBRANCH  12  24
TORSDOF 3
ENDMDL
MODEL 3
REMARK VINA RESULT:      -8.3      6.774      7.970
REMARK  Name = 14353450
REMARK  3 active torsions:
REMARK  status: ('A' for Active; 'I' for Inactive)
REMARK    1  A    between atoms: O_2  and  C_11
REMARK    2  A    between atoms: O_4  and  C_15
REMARK    3  A    between atoms: C_14  and  C_17
REMARK                            x       y       z     vdW  Elec       q    Type
REMARK                         _______ _______ _______ _____ _____    ______ ____
ROOT
ATOM      1  O   UNL     1     103.439 130.159 142.288  0.00  0.00    +0.000 OA
ATOM      2  O   UNL     1     104.327 127.770 140.927  0.00  0.00    +0.000 OA
ATOM      3  O   UNL     1     103.338 128.639 140.338  0.00  0.00    +0.000 OA
ATOM      4  C   UNL     1     103.879 128.977 141.616  0.00  0.00    +0.000 A 
ATOM      5  C   UNL     1     103.913 129.484 142.266  0.00  0.00    +0.000 A 
ATOM      6  C   UNL     1     104.438 129.319 142.926  0.00  0.00    +0.000 A 
ATOM      7  C   UNL     1     104.899 128.090 142.232  0.00  0.00    +0.000 A 
ATOM      8  C   UNL     1     104.934 128.618 142.909  0.00  0.00    +0.000 A 
ATOM      9  C   UNL     1     104.368 128.271 141.581  0.00  0.00    +0.000 A 
ATOM     10  C   UNL     1     103.372 129.145 140.988  0.00  0.00    +0.000 A 
ATOM     11  C   UNL     1     102.931 130.327 141.660  0.00  0.00    +0.000 A 
ATOM     12  C   UNL     1     102.898 129.820 141.009  0.00  0.00    +0.000 A 
ATOM     13  C   UNL     1     104.465 129.831 143.572  0.00  0.00    +0.000 C 
ATOM     14  C   UNL     1     105.371 127.415 142.207  0.00  0.00    +0.000 C 
ENDROOT
BRANCH  11  16
ATOM     15  O   UNL     1     101.039 133.029 141.749  0.00  0.00    +0.000 OA
ATOM     16  C   UNL     1     102.458 131.002 141.682  0.00  0.00    +0.000 A 
ATOM     17  C   UNL     1     102.750 131.720 141.398  0.00  0.00    +0.000 A 
ATOM     18  C   UNL     1     101.693 130.960 141.989  0.00  0.00    +0.000 A 
ATOM     19  C   UNL     1     102.276 132.395 141.420  0.00  0.00    +0.000 A 
ATOM     20  C   UNL     1     101.220 131.636 142.011  0.00  0.00    +0.000 A 
ATOM     21  C   UNL     1     101.511 132.353 141.727  0.00  0.00    +0.000 A 
ENDBRANCH  11  16
BRANCH   8  22
ATOM     22  O   UNL     1     105.441 128.452 143.539  0.00  0.00    +0.000 OA
ATOM     23  C   UNL     1     105.187 127.965 144.155  0.00  0.00    +0.000 C 
ENDBRANCH   8  22
BRANCH  12  24
ATOM     24  O   UNL     1     102.390 129.988 140.382  0.00  0.00    +0.000 OA
ATOM     25  C   UNL     1     102.232 129.412 139.814  0.00  0.00    +0.000 C 
ENDBRANCH  12  24
TORSDOF 3
ENDMDL
MODEL 4
REMARK VINA RESULT:      -8.3     10.002     11.869
REMARK  Name = 14353450
REMARK  3 active torsions:
REMARK  status: ('A' for Active; 'I' for Inactive)
REMARK    1  A    between atoms: O_2  and  C_11
REMARK    2  A    between atoms: O_4  and  C_15
REMARK    3  A    between atoms: C_14  and  C_17
REMARK                            x       y       z     vdW  Elec       q    Type
REMARK                         _______ _______ _______ _____ _____    ______ ____
ROOT
ATOM      1  O   UNL     1     113.475 126.333 138.897  0.00  0.00    +0.000 OA
ATOM      2  O   UNL     1     110.820 126.151 140.023  0.00  0.00    +0.000 OA
ATOM      3  O   UNL     1     111.129 125.558 138.745  0.00  0.00    +0.000 OA
ATOM      4  C   UNL     1     112.162 126.244 139.455  0.00  0.00    +0.000 A 
ATOM      5  C   UNL     1     112.944 126.502 139.505  0.00  0.00    +0.000 A 
ATOM      6  C   UNL     1     113.218 126.948 140.187  0.00  0.00    +0.000 A 
ATOM      7  C   UNL     1     111.856 126.858 140.771  0.00  0.00    +0.000 A 
ATOM      8  C   UNL     1     112.670 127.127 140.824  0.00  0.00    +0.000 A 
ATOM      9  C   UNL     1     111.600 126.414 140.083  0.00  0.00    +0.000 A 
ATOM     10  C   UNL     1     111.911 125.817 138.796  0.00  0.00    +0.000 A 
ATOM     11  C   UNL     1     113.223 125.905 138.237  0.00  0.00    +0.000 A 
ATOM     12  C   UNL     1     112.441 125.647 138.186  0.00  0.00    +0.000 A 
ATOM     13  C   UNL     1     114.002 127.202 140.229  0.00  0.00    +0.000 C 
ATOM     14  C   UNL     1     111.324 127.026 141.379  0.00  0.00    +0.000 C 
ENDROOT
BRANCH  11  16
ATOM     15  O   UNL     1     115.346 125.232 135.802  0.00  0.00    +0.000 OA
ATOM     16  C   UNL     1     113.754 125.736 137.629  0.00  0.00    +0.000 A 
ATOM     17  C   UNL     1     113.807 126.240 136.977  0.00  0.00    +0.000 A 
ATOM     18  C   UNL     1     114.231 125.065 137.671  0.00  0.00    +0.000 A 
ATOM     19  C   UNL     1     114.338 126.071 136.368  0.00  0.00    +0.000 A 
ATOM     20  C   UNL     1     114.762 124.897 137.062  0.00  0.00    +0.000 A 
ATOM     21  C   UNL     1     114.815 125.399 136.411  0.00  0.00    +0.000 A 
ENDBRANCH  11  16
BRANCH   8  22
ATOM     22  O   UNL     1     112.926 127.555 141.482  0.00  0.00    +0.000 OA
ATOM     23  C   UNL     1     112.869 128.378 141.486  0.00  0.00    +0.000 C 
ENDBRANCH   8  22
BRANCH  12  24
ATOM     24  O   UNL     1     112.190 125.220 137.528  0.00  0.00    +0.000 OA
ATOM     25  C   UNL     1     111.528 124.731 137.581  0.00  0.00    +0.000 C 
ENDBRANCH  12  24
TORSDOF 3
ENDMDL
MODEL 5
REMARK VINA RESULT:      -8.2     12.841     13.283
REMARK  Name = 14353450
REMARK  3 active torsions:
REMARK  status: ('A' for Active; 'I' for Inactive)
REMARK    1  A    between atoms: O_2  and  C_11
REMARK    2  A    between atoms: O_4  and  C_15
REMARK    3  A    between atoms: C_14  and  C_17
REMARK                            x       y       z     vdW  Elec       q    Type
REMARK                         _______ _______ _______ _____ _____    ______ ____
ROOT
ATOM      1  O   UNL     1     112.075 126.852 136.221  0.00  0.00    +0.000 OA
ATOM      2  O   UNL     1     111.587 124.006 136.123  0.00  0.00    +0.000 OA
ATOM      3  O   UNL     1     110.687 124.938 135.490  0.00  0.00    +0.000 OA
ATOM      4  C   UNL     1     111.835 125.444 136.173  0.00  0.00    +0.000 A 
ATOM      5  C   UNL     1     112.297 126.082 136.417  0.00  0.00    +0.000 A 
ATOM      6  C   UNL     1     113.014 125.958 136.876  0.00  0.00    +0.000 A 
ATOM      7  C   UNL     1     112.769 124.494 136.829  0.00  0.00    +0.000 A 
ATOM      8  C   UNL     1     113.250 125.158 137.083  0.00  0.00    +0.000 A 
ATOM      9  C   UNL     1     112.056 124.638 136.371  0.00  0.00    +0.000 A 
ATOM     10  C   UNL     1     111.150 125.576 135.734  0.00  0.00    +0.000 A 
ATOM     11  C   UNL     1     111.389 126.984 135.781  0.00  0.00    +0.000 A 
ATOM     12  C   UNL     1     110.927 126.346 135.537  0.00  0.00    +0.000 A 
ATOM     13  C   UNL     1     113.470 126.602 137.115  0.00  0.00    +0.000 C 
ATOM     14  C   UNL     1     112.989 123.723 137.024  0.00  0.00    +0.000 C 
ENDROOT
BRANCH  11  16
ATOM     15  O   UNL     1     110.500 130.064 135.000  0.00  0.00    +0.000 OA
ATOM     16  C   UNL     1     111.167 127.754 135.585  0.00  0.00    +0.000 A 
ATOM     17  C   UNL     1     110.657 128.174 136.080  0.00  0.00    +0.000 A 
ATOM     18  C   UNL     1     111.455 128.104 134.896  0.00  0.00    +0.000 A 
ATOM     19  C   UNL     1     110.435 128.944 135.884  0.00  0.00    +0.000 A 
ATOM     20  C   UNL     1     111.232 128.874 134.701  0.00  0.00    +0.000 A 
ATOM     21  C   UNL     1     110.723 129.294 135.195  0.00  0.00    +0.000 A 
ENDBRANCH  11  16
BRANCH   8  22
ATOM     22  O   UNL     1     113.937 125.030 137.523  0.00  0.00    +0.000 OA
ATOM     23  C   UNL     1     114.658 124.916 137.138  0.00  0.00    +0.000 C 
ENDBRANCH   8  22
BRANCH  12  24
ATOM     24  O   UNL     1     110.242 126.478 135.098  0.00  0.00    +0.000 OA
ATOM     25  C   UNL     1     109.899 125.860 134.672  0.00  0.00    +0.000 C 
ENDBRANCH  12  24
TORSDOF 3
ENDMDL
MODEL 6
REMARK VINA RESULT:      -8.1     12.588     14.304
REMARK  Name = 14353450
REMARK  3 active torsions:
REMARK  status: ('A' for Active; 'I' for Inactive)
REMARK    1  A    between atoms: O_2  and  C_11
REMARK    2  A    between atoms: O_4  and  C_15
REMARK    3  A    between atoms: C_14  and  C_17
REMARK                            x       y       z     vdW  Elec       q    Type
REMARK                         _______ _______ _______ _____ _____    ______ ____
ROOT
ATOM      1  O   UNL     1     113.447 127.508 136.287  0.00  0.00    +0.000 OA
ATOM      2  O   UNL     1     110.858 126.328 135.787  0.00  0.00    +0.000 OA
ATOM      3  O   UNL     1     111.134 127.696 135.427  0.00  0.00    +0.000 OA
ATOM      4  C   UNL     1     112.167 126.923 136.040  0.00  0.00    +0.000 A 
ATOM      5  C   UNL     1     112.938 126.861 136.327  0.00  0.00    +0.000 A 
ATOM      6  C   UNL     1     113.222 126.125 136.670  0.00  0.00    +0.000 A 
ATOM      7  C   UNL     1     111.894 125.513 136.416  0.00  0.00    +0.000 A 
ATOM      8  C   UNL     1     112.696 125.447 136.715  0.00  0.00    +0.000 A 
ATOM      9  C   UNL     1     111.627 126.255 136.077  0.00  0.00    +0.000 A 
ATOM     10  C   UNL     1     111.905 127.634 135.714  0.00  0.00    +0.000 A 
ATOM     11  C   UNL     1     113.185 128.219 135.960  0.00  0.00    +0.000 A 
ATOM     12  C   UNL     1     112.414 128.282 135.673  0.00  0.00    +0.000 A 
ATOM     13  C   UNL     1     113.995 126.072 136.955  0.00  0.00    +0.000 C 
ATOM     14  C   UNL     1     111.382 124.866 136.455  0.00  0.00    +0.000 C 
ENDROOT
BRANCH  11  16
ATOM     15  O   UNL     1     115.225 130.808 135.798  0.00  0.00    +0.000 OA
ATOM     16  C   UNL     1     113.695 128.867 135.920  0.00  0.00    +0.000 A 
ATOM     17  C   UNL     1     114.201 128.953 135.274  0.00  0.00    +0.000 A 
ATOM     18  C   UNL     1     113.699 129.427 136.525  0.00  0.00    +0.000 A 
ATOM     19  C   UNL     1     114.710 129.601 135.234  0.00  0.00    +0.000 A 
ATOM     20  C   UNL     1     114.209 130.074 136.484  0.00  0.00    +0.000 A 
ATOM     21  C   UNL     1     114.714 130.161 135.839  0.00  0.00    +0.000 A 
ENDBRANCH  11  16
BRANCH   8  22
ATOM     22  O   UNL     1     112.962 124.738 137.043  0.00  0.00    +0.000 OA
ATOM     23  C   UNL     1     113.346 124.183 136.568  0.00  0.00    +0.000 C 
ENDBRANCH   8  22
BRANCH  12  24
ATOM     24  O   UNL     1     112.153 128.992 135.346  0.00  0.00    +0.000 OA
ATOM     25  C   UNL     1     111.489 129.001 134.856  0.00  0.00    +0.000 C 
ENDBRANCH  12  24
TORSDOF 3
ENDMDL
MODEL 7
REMARK VINA RESULT:      -8.1      1.145      4.260
REMARK  Name = 14353450
REMARK  3 active torsions:
REMARK  status: ('A' for Active; 'I' for Inactive)
REMARK    1  A    between atoms: O_2  and  C_11
REMARK    2  A    between atoms: O_4  and  C_15
REMARK    3  A    between atoms: C_14  and  C_17
REMARK                            x       y       z     vdW  Elec       q    Type
REMARK                         _______ _______ _______ _____ _____    ______ ____
ROOT
ATOM      1  O   UNL     1     103.646 124.342 147.411  0.00  0.00    +0.000 OA
ATOM      2  O   UNL     1     102.572 123.128 145.019  0.00  0.00    +0.000 OA
ATOM      3  O   UNL     1     103.941 123.579 145.075  0.00  0.00    +0.000 OA
ATOM      4  C   UNL     1     103.114 123.741 146.228  0.00  0.00    +0.000 A 
ATOM      5  C   UNL     1     103.015 123.996 147.007  0.00  0.00    +0.000 A 
ATOM      6  C   UNL     1     102.261 123.905 147.408  0.00  0.00    +0.000 A 
ATOM      7  C   UNL     1     101.703 123.281 146.182  0.00  0.00    +0.000 A 
ATOM      8  C   UNL     1     101.600 123.545 146.993  0.00  0.00    +0.000 A 
ATOM      9  C   UNL     1     102.464 123.379 145.797  0.00  0.00    +0.000 A 
ATOM     10  C   UNL     1     103.842 123.833 145.854  0.00  0.00    +0.000 A 
ATOM     11  C   UNL     1     104.375 124.434 147.036  0.00  0.00    +0.000 A 
ATOM     12  C   UNL     1     104.474 124.180 146.257  0.00  0.00    +0.000 A 
ATOM     13  C   UNL     1     102.172 124.162 148.187  0.00  0.00    +0.000 C 
ATOM     14  C   UNL     1     101.074 122.934 145.776  0.00  0.00    +0.000 C 
ENDROOT
BRANCH  11  16
ATOM     15  O   UNL     1     106.896 125.822 148.652  0.00  0.00    +0.000 OA
ATOM     16  C   UNL     1     105.005 124.780 147.440  0.00  0.00    +0.000 A 
ATOM     17  C   UNL     1     105.096 125.601 147.436  0.00  0.00    +0.000 A 
ATOM     18  C   UNL     1     105.544 124.307 147.848  0.00  0.00    +0.000 A 
ATOM     19  C   UNL     1     105.727 125.947 147.840  0.00  0.00    +0.000 A 
ATOM     20  C   UNL     1     106.174 124.655 148.252  0.00  0.00    +0.000 A 
ATOM     21  C   UNL     1     106.266 125.474 148.248  0.00  0.00    +0.000 A 
ENDBRANCH  11  16
BRANCH   8  22
ATOM     22  O   UNL     1     100.872 123.455 147.371  0.00  0.00    +0.000 OA
ATOM     23  C   UNL     1     100.711 122.765 147.794  0.00  0.00    +0.000 C 
ENDBRANCH   8  22
BRANCH  12  24
ATOM     24  O   UNL     1     105.202 124.272 145.882  0.00  0.00    +0.000 OA
ATOM     25  C   UNL     1     105.240 124.318 145.060  0.00  0.00    +0.000 C 
ENDBRANCH  12  24
TORSDOF 3
ENDMDL
MODEL 8
REMARK VINA RESULT:      -8.1     12.660     13.775
REMARK  Name = 14353450
REMARK  3 active torsions:
REMARK  status: ('A' for Active; 'I' for Inactive)
REMARK    1  A    between atoms: O_2  and  C_11
REMARK    2  A    between atoms: O_4  and  C_15
REMARK    3  A    between atoms: C_14  and  C_17
REMARK                            x       y       z     vdW  Elec       q    Type
REMARK                         _______ _______ _______ _____ _____    ______ ____
ROOT
ATOM      1  O   UNL     1     112.639 126.828 136.163  0.00  0.00    +0.000 OA
ATOM      2  O   UNL     1     109.980 126.505 135.081  0.00  0.00    +0.000 OA
ATOM      3  O   UNL     1     110.671 125.401 135.699  0.00  0.00    +0.000 OA
ATOM      4  C   UNL     1     111.324 126.669 135.627  0.00  0.00    +0.000 A 
ATOM      5  C   UNL     1     111.980 127.145 135.782  0.00  0.00    +0.000 A 
ATOM      6  C   UNL     1     111.988 127.973 135.551  0.00  0.00    +0.000 A 
ATOM      7  C   UNL     1     110.622 127.814 134.993  0.00  0.00    +0.000 A 
ATOM      8  C   UNL     1     111.305 128.309 135.154  0.00  0.00    +0.000 A 
ATOM      9  C   UNL     1     110.631 126.989 135.231  0.00  0.00    +0.000 A 
ATOM     10  C   UNL     1     111.327 125.877 135.854  0.00  0.00    +0.000 A 
ATOM     11  C   UNL     1     112.642 126.034 136.389  0.00  0.00    +0.000 A 
ATOM     12  C   UNL     1     111.986 125.558 136.235  0.00  0.00    +0.000 A 
ATOM     13  C   UNL     1     112.649 128.441 135.710  0.00  0.00    +0.000 C 
ATOM     14  C   UNL     1     109.961 128.129 134.612  0.00  0.00    +0.000 C 
ENDROOT
BRANCH  11  16
ATOM     15  O   UNL     1     115.280 124.767 137.916  0.00  0.00    +0.000 OA
ATOM     16  C   UNL     1     113.302 125.717 136.770  0.00  0.00    +0.000 A 
ATOM     17  C   UNL     1     113.354 125.742 137.594  0.00  0.00    +0.000 A 
ATOM     18  C   UNL     1     113.909 125.376 136.329  0.00  0.00    +0.000 A 
ATOM     19  C   UNL     1     114.013 125.426 137.975  0.00  0.00    +0.000 A 
ATOM     20  C   UNL     1     114.568 125.059 136.711  0.00  0.00    +0.000 A 
ATOM     21  C   UNL     1     114.621 125.084 137.533  0.00  0.00    +0.000 A 
ENDBRANCH  11  16
BRANCH   8  22
ATOM     22  O   UNL     1     111.305 129.103 134.929  0.00  0.00    +0.000 OA
ATOM     23  C   UNL     1     111.016 129.678 135.446  0.00  0.00    +0.000 C 
ENDBRANCH   8  22
BRANCH  12  24
ATOM     24  O   UNL     1     111.990 124.766 136.461  0.00  0.00    +0.000 OA
ATOM     25  C   UNL     1     111.460 124.236 136.116  0.00  0.00    +0.000 C 
ENDBRANCH  12  24
TORSDOF 3
ENDMDL
MODEL 9
REMARK VINA RESULT:      -8.0     12.497     13.306
REMARK  Name = 14353450
REMARK  3 active torsions:
REMARK  status: ('A' for Active; 'I' for Inactive)
REMARK    1  A    between atoms: O_2  and  C_11
REMARK    2  A    between atoms: O_4  and  C_15
REMARK    3  A    between atoms: C_14  and  C_17
REMARK                            x       y       z     vdW  Elec       q    Type
REMARK                         _______ _______ _______ _____ _____    ______ ____
ROOT
ATOM      1  O   UNL     1     111.355 126.551 135.915  0.00  0.00    +0.000 OA
ATOM      2  O   UNL     1     114.059 126.161 136.856  0.00  0.00    +0.000 OA
ATOM      3  O   UNL     1     113.548 127.483 136.586  0.00  0.00    +0.000 OA
ATOM      4  C   UNL     1     112.692 126.358 136.380  0.00  0.00    +0.000 A 
ATOM      5  C   UNL     1     111.961 126.047 136.157  0.00  0.00    +0.000 A 
ATOM      6  C   UNL     1     111.819 125.199 136.171  0.00  0.00    +0.000 A 
ATOM      7  C   UNL     1     113.208 124.992 136.655  0.00  0.00    +0.000 A 
ATOM      8  C   UNL     1     112.447 124.669 136.422  0.00  0.00    +0.000 A 
ATOM      9  C   UNL     1     113.332 125.842 136.634  0.00  0.00    +0.000 A 
ATOM     10  C   UNL     1     112.817 127.172 136.362  0.00  0.00    +0.000 A 
ATOM     11  C   UNL     1     111.480 127.367 135.897  0.00  0.00    +0.000 A 
ATOM     12  C   UNL     1     112.211 127.678 136.121  0.00  0.00    +0.000 A 
ATOM     13  C   UNL     1     111.085 124.898 135.946  0.00  0.00    +0.000 C 
ATOM     14  C   UNL     1     113.816 124.489 136.897  0.00  0.00    +0.000 C 
ENDROOT
BRANCH  11  16
ATOM     15  O   UNL     1     109.055 129.384 134.927  0.00  0.00    +0.000 OA
ATOM     16  C   UNL     1     110.874 127.871 135.655  0.00  0.00    +0.000 A 
ATOM     17  C   UNL     1     110.777 128.045 134.854  0.00  0.00    +0.000 A 
ATOM     18  C   UNL     1     110.364 128.202 136.214  0.00  0.00    +0.000 A 
ATOM     19  C   UNL     1     110.170 128.549 134.612  0.00  0.00    +0.000 A 
ATOM     20  C   UNL     1     109.758 128.707 135.971  0.00  0.00    +0.000 A 
ATOM     21  C   UNL     1     109.661 128.880 135.171  0.00  0.00    +0.000 A 
ENDBRANCH  11  16
BRANCH   8  22
ATOM     22  O   UNL     1     112.318 123.853 136.439  0.00  0.00    +0.000 OA
ATOM     23  C   UNL     1     112.001 123.500 137.113  0.00  0.00    +0.000 C 
ENDBRANCH   8  22
BRANCH  12  24
ATOM     24  O   UNL     1     112.336 128.492 136.102  0.00  0.00    +0.000 OA
ATOM     25  C   UNL     1     113.104 128.792 136.084  0.00  0.00    +0.000 C 
ENDBRANCH  12  24
TORSDOF 3
ENDMDL
MODEL 10
REMARK VINA RESULT:      -8.0     11.786     13.430
REMARK  Name = 14353450
REMARK  3 active torsions:
REMARK  status: ('A' for Active; 'I' for Inactive)
REMARK    1  A    between atoms: O_2  and  C_11
REMARK    2  A    between atoms: O_4  and  C_15
REMARK    3  A    between atoms: C_14  and  C_17
REMARK                            x       y       z     vdW  Elec       q    Type
REMARK                         _______ _______ _______ _____ _____    ______ ____
ROOT
ATOM      1  O   UNL     1     112.331 126.412 136.332  0.00  0.00    +0.000 OA
ATOM      2  O   UNL     1     110.916 128.366 134.741  0.00  0.00    +0.000 OA
ATOM      3  O   UNL     1     110.396 127.032 134.919  0.00  0.00    +0.000 OA
ATOM      4  C   UNL     1     111.632 127.379 135.545  0.00  0.00    +0.000 A 
ATOM      5  C   UNL     1     112.277 127.172 136.016  0.00  0.00    +0.000 A 
ATOM      6  C   UNL     1     112.899 127.740 136.185  0.00  0.00    +0.000 A 
ATOM      7  C   UNL     1     112.178 128.748 135.369  0.00  0.00    +0.000 A 
ATOM      8  C   UNL     1     112.849 128.533 135.859  0.00  0.00    +0.000 A 
ATOM      9  C   UNL     1     111.565 128.168 135.211  0.00  0.00    +0.000 A 
ATOM     10  C   UNL     1     111.041 126.825 135.390  0.00  0.00    +0.000 A 
ATOM     11  C   UNL     1     111.738 125.858 136.176  0.00  0.00    +0.000 A 
ATOM     12  C   UNL     1     111.093 126.065 135.705  0.00  0.00    +0.000 A 
ATOM     13  C   UNL     1     113.541 127.524 136.657  0.00  0.00    +0.000 C 
ATOM     14  C   UNL     1     112.122 129.508 135.052  0.00  0.00    +0.000 C 
ENDROOT
BRANCH  11  16
ATOM     15  O   UNL     1     111.953 122.818 137.442  0.00  0.00    +0.000 OA
ATOM     16  C   UNL     1     111.792 125.098 136.492  0.00  0.00    +0.000 A 
ATOM     17  C   UNL     1     111.463 124.934 137.231  0.00  0.00    +0.000 A 
ATOM     18  C   UNL     1     112.175 124.501 136.070  0.00  0.00    +0.000 A 
ATOM     19  C   UNL     1     111.517 124.174 137.547  0.00  0.00    +0.000 A 
ATOM     20  C   UNL     1     112.228 123.741 136.387  0.00  0.00    +0.000 A 
ATOM     21  C   UNL     1     111.900 123.578 137.125  0.00  0.00    +0.000 A 
ENDBRANCH  11  16
BRANCH   8  22
ATOM     22  O   UNL     1     113.443 129.084 136.017  0.00  0.00    +0.000 OA
ATOM     23  C   UNL     1     114.091 129.148 135.510  0.00  0.00    +0.000 C 
ENDBRANCH   8  22
BRANCH  12  24
ATOM     24  O   UNL     1     110.502 125.511 135.550  0.00  0.00    +0.000 OA
ATOM     25  C   UNL     1     109.939 125.662 134.966  0.00  0.00    +0.000 C 
ENDBRANCH  12  24
TORSDOF 3
ENDMDL
