MODEL 1
REMARK VINA RESULT:      -9.6      0.000      0.000
REMARK  Name = 42608016
REMARK  4 active torsions:
REMARK  status: ('A' for Active; 'I' for Inactive)
REMARK    1  A    between atoms: O_2  and  C_16
REMARK    2  A    between atoms: O_2  and  C_18
REMARK    3  A    between atoms: C_15  and  C_17
REMARK    4  A    between atoms: C_19  and  C_27
REMARK                            x       y       z     vdW  Elec       q    Type
REMARK                         _______ _______ _______ _____ _____    ______ ____
ROOT
ATOM      1  O   UNL     1     112.177 126.685 136.270  0.00  0.00    +0.000 OA
ATOM      2  O   UNL     1     109.709 125.971 134.949  0.00  0.00    +0.000 OA
ATOM      3  O   UNL     1     110.596 124.958 135.465  0.00  0.00    +0.000 OA
ATOM      4  C   UNL     1     110.597 127.984 135.368  0.00  0.00    +0.000 A 
ATOM      5  C   UNL     1     112.344 125.886 136.386  0.00  0.00    +0.000 C 
ATOM      6  C   UNL     1     111.818 125.310 136.118  0.00  0.00    +0.000 C 
ATOM      7  C   UNL     1     111.482 126.909 135.884  0.00  0.00    +0.000 A 
ATOM      8  C   UNL     1     110.956 126.334 135.616  0.00  0.00    +0.000 A 
ATOM      9  C   UNL     1     111.319 127.744 135.769  0.00  0.00    +0.000 A 
ATOM     10  C   UNL     1     111.123 125.534 135.733  0.00  0.00    +0.000 C 
ATOM     11  C   UNL     1     110.049 127.384 135.089  0.00  0.00    +0.000 A 
ATOM     12  C   UNL     1     110.229 126.554 135.214  0.00  0.00    +0.000 A 
ENDROOT
BRANCH   5  15
ATOM     13  O   UNL     1     112.378 125.787 138.034  0.00  0.00    +0.000 OA
ATOM     14  O   UNL     1     115.121 124.990 137.928  0.00  0.00    +0.000 OA
ATOM     15  C   UNL     1     113.039 125.662 136.772  0.00  0.00    +0.000 A 
ATOM     16  C   UNL     1     113.055 125.612 137.595  0.00  0.00    +0.000 A 
ATOM     17  C   UNL     1     113.716 125.488 136.334  0.00  0.00    +0.000 A 
ATOM     18  C   UNL     1     113.750 125.388 137.981  0.00  0.00    +0.000 A 
ATOM     19  C   UNL     1     114.409 125.264 136.719  0.00  0.00    +0.000 A 
ATOM     20  C   UNL     1     114.427 125.214 137.543  0.00  0.00    +0.000 A 
ENDBRANCH   5  15
BRANCH   4  21
ATOM     21  O   UNL     1     110.432 128.784 135.252  0.00  0.00    +0.000 OA
BRANCH  21  30
ATOM     22  O   UNL     1     109.955 129.076 136.568  0.00  0.00    +0.000 OA
ATOM     23  O   UNL     1     108.194 130.526 135.607  0.00  0.00    +0.000 OA
ATOM     24  O   UNL     1     108.305 130.334 137.242  0.00  0.00    +0.000 OA
ATOM     25  O   UNL     1     109.258 129.751 134.612  0.00  0.00    +0.000 OA
ATOM     26  C   UNL     1     108.781 130.042 135.927  0.00  0.00    +0.000 C 
ATOM     27  C   UNL     1     108.837 129.946 136.745  0.00  0.00    +0.000 C 
ATOM     28  C   UNL     1     109.313 129.654 135.430  0.00  0.00    +0.000 C 
ATOM     29  C   UNL     1     109.424 129.463 137.065  0.00  0.00    +0.000 C 
ATOM     30  C   UNL     1     109.901 129.171 135.750  0.00  0.00    +0.000 C 
BRANCH  29  32
ATOM     31  O   UNL     1     109.313 128.635 138.224  0.00  0.00    +0.000 OA
ATOM     32  C   UNL     1     109.479 129.367 137.882  0.00  0.00    +0.000 C 
ENDBRANCH  29  32
ENDBRANCH  21  30
ENDBRANCH   4  21
TORSDOF 4
ENDMDL
MODEL 2
REMARK VINA RESULT:      -9.6      7.196      8.659
REMARK  Name = 42608016
REMARK  4 active torsions:
REMARK  status: ('A' for Active; 'I' for Inactive)
REMARK    1  A    between atoms: O_2  and  C_16
REMARK    2  A    between atoms: O_2  and  C_18
REMARK    3  A    between atoms: C_15  and  C_17
REMARK    4  A    between atoms: C_19  and  C_27
REMARK                            x       y       z     vdW  Elec       q    Type
REMARK                         _______ _______ _______ _____ _____    ______ ____
ROOT
ATOM      1  O   UNL     1     104.753 124.623 139.897  0.00  0.00    +0.000 OA
ATOM      2  O   UNL     1     107.188 123.606 141.075  0.00  0.00    +0.000 OA
ATOM      3  O   UNL     1     106.297 122.740 140.342  0.00  0.00    +0.000 OA
ATOM      4  C   UNL     1     106.332 125.676 141.079  0.00  0.00    +0.000 A 
ATOM      5  C   UNL     1     104.578 123.870 139.611  0.00  0.00    +0.000 C 
ATOM      6  C   UNL     1     105.093 123.242 139.759  0.00  0.00    +0.000 C 
ATOM      7  C   UNL     1     105.443 124.749 140.332  0.00  0.00    +0.000 A 
ATOM      8  C   UNL     1     105.958 124.122 140.480  0.00  0.00    +0.000 A 
ATOM      9  C   UNL     1     105.614 125.539 140.625  0.00  0.00    +0.000 A 
ATOM     10  C   UNL     1     105.783 123.368 140.194  0.00  0.00    +0.000 C 
ATOM     11  C   UNL     1     106.867 125.022 141.233  0.00  0.00    +0.000 A 
ATOM     12  C   UNL     1     106.679 124.240 140.932  0.00  0.00    +0.000 A 
ENDROOT
BRANCH   5  15
ATOM     13  O   UNL     1     104.601 124.019 137.967  0.00  0.00    +0.000 OA
ATOM     14  O   UNL     1     101.820 123.366 137.871  0.00  0.00    +0.000 OA
ATOM     15  C   UNL     1     103.889 123.744 139.176  0.00  0.00    +0.000 A 
ATOM     16  C   UNL     1     103.900 123.819 138.354  0.00  0.00    +0.000 A 
ATOM     17  C   UNL     1     103.188 123.543 139.562  0.00  0.00    +0.000 A 
ATOM     18  C   UNL     1     103.211 123.693 137.919  0.00  0.00    +0.000 A 
ATOM     19  C   UNL     1     102.499 123.417 139.127  0.00  0.00    +0.000 A 
ATOM     20  C   UNL     1     102.510 123.492 138.306  0.00  0.00    +0.000 A 
ENDBRANCH   5  15
BRANCH   4  21
ATOM     21  O   UNL     1     106.504 126.431 141.365  0.00  0.00    +0.000 OA
BRANCH  21  30
ATOM     22  O   UNL     1     106.241 126.211 142.752  0.00  0.00    +0.000 OA
ATOM     23  O   UNL     1     105.088 128.398 142.879  0.00  0.00    +0.000 OA
ATOM     24  O   UNL     1     105.209 127.450 144.223  0.00  0.00    +0.000 OA
ATOM     25  O   UNL     1     105.736 127.889 141.449  0.00  0.00    +0.000 OA
ATOM     26  C   UNL     1     105.472 127.669 142.836  0.00  0.00    +0.000 C 
ATOM     27  C   UNL     1     105.533 127.194 143.508  0.00  0.00    +0.000 C 
ATOM     28  C   UNL     1     105.797 127.414 142.121  0.00  0.00    +0.000 C 
ATOM     29  C   UNL     1     105.917 126.465 143.466  0.00  0.00    +0.000 C 
ATOM     30  C   UNL     1     106.181 126.685 142.079  0.00  0.00    +0.000 C 
BRANCH  29  32
ATOM     31  O   UNL     1     106.719 125.796 144.441  0.00  0.00    +0.000 OA
ATOM     32  C   UNL     1     105.977 125.992 144.138  0.00  0.00    +0.000 C 
ENDBRANCH  29  32
ENDBRANCH  21  30
ENDBRANCH   4  21
TORSDOF 4
ENDMDL
MODEL 3
REMARK VINA RESULT:      -9.5      1.211      1.911
REMARK  Name = 42608016
REMARK  4 active torsions:
REMARK  status: ('A' for Active; 'I' for Inactive)
REMARK    1  A    between atoms: O_2  and  C_16
REMARK    2  A    between atoms: O_2  and  C_18
REMARK    3  A    between atoms: C_15  and  C_17
REMARK    4  A    between atoms: C_19  and  C_27
REMARK                            x       y       z     vdW  Elec       q    Type
REMARK                         _______ _______ _______ _____ _____    ______ ____
ROOT
ATOM      1  O   UNL     1     112.729 127.051 136.236  0.00  0.00    +0.000 OA
ATOM      2  O   UNL     1     113.008 129.774 135.312  0.00  0.00    +0.000 OA
ATOM      3  O   UNL     1     114.148 129.029 135.787  0.00  0.00    +0.000 OA
ATOM      4  C   UNL     1     111.192 128.470 135.448  0.00  0.00    +0.000 A 
ATOM      5  C   UNL     1     113.539 127.023 136.393  0.00  0.00    +0.000 C 
ATOM      6  C   UNL     1     114.011 127.682 136.244  0.00  0.00    +0.000 C 
ATOM      7  C   UNL     1     112.393 127.739 135.928  0.00  0.00    +0.000 A 
ATOM      8  C   UNL     1     112.865 128.398 135.779  0.00  0.00    +0.000 A 
ATOM      9  C   UNL     1     111.549 127.756 135.769  0.00  0.00    +0.000 A 
ATOM     10  C   UNL     1     113.675 128.370 135.936  0.00  0.00    +0.000 C 
ATOM     11  C   UNL     1     111.685 129.156 135.293  0.00  0.00    +0.000 A 
ATOM     12  C   UNL     1     112.527 129.120 135.459  0.00  0.00    +0.000 A 
ENDROOT
BRANCH   5  15
ATOM     13  O   UNL     1     113.459 126.718 138.014  0.00  0.00    +0.000 OA
ATOM     14  O   UNL     1     114.885 124.273 137.623  0.00  0.00    +0.000 OA
ATOM     15  C   UNL     1     113.875 126.335 136.701  0.00  0.00    +0.000 A 
ATOM     16  C   UNL     1     113.835 126.183 137.511  0.00  0.00    +0.000 A 
ATOM     17  C   UNL     1     114.252 125.800 136.198  0.00  0.00    +0.000 A 
ATOM     18  C   UNL     1     114.172 125.495 137.819  0.00  0.00    +0.000 A 
ATOM     19  C   UNL     1     114.588 125.113 136.506  0.00  0.00    +0.000 A 
ATOM     20  C   UNL     1     114.548 124.960 137.316  0.00  0.00    +0.000 A 
ENDBRANCH   5  15
BRANCH   4  21
ATOM     21  O   UNL     1     110.382 128.495 135.292  0.00  0.00    +0.000 OA
BRANCH  21  30
ATOM     22  O   UNL     1     109.951 128.896 136.594  0.00  0.00    +0.000 OA
ATOM     23  O   UNL     1     108.248 130.375 135.574  0.00  0.00    +0.000 OA
ATOM     24  O   UNL     1     108.385 130.283 137.215  0.00  0.00    +0.000 OA
ATOM     25  O   UNL     1     109.247 129.481 134.612  0.00  0.00    +0.000 OA
ATOM     26  C   UNL     1     108.816 129.882 135.914  0.00  0.00    +0.000 C 
ATOM     27  C   UNL     1     108.885 129.836 136.735  0.00  0.00    +0.000 C 
ATOM     28  C   UNL     1     109.316 129.434 135.433  0.00  0.00    +0.000 C 
ATOM     29  C   UNL     1     109.453 129.343 137.075  0.00  0.00    +0.000 C 
ATOM     30  C   UNL     1     109.883 128.942 135.773  0.00  0.00    +0.000 C 
BRANCH  29  32
ATOM     31  O   UNL     1     109.356 128.589 138.285  0.00  0.00    +0.000 OA
ATOM     32  C   UNL     1     109.521 129.298 137.895  0.00  0.00    +0.000 C 
ENDBRANCH  29  32
ENDBRANCH  21  30
ENDBRANCH   4  21
TORSDOF 4
ENDMDL
MODEL 4
REMARK VINA RESULT:      -9.4      7.151     10.421
REMARK  Name = 42608016
REMARK  4 active torsions:
REMARK  status: ('A' for Active; 'I' for Inactive)
REMARK    1  A    between atoms: O_2  and  C_16
REMARK    2  A    between atoms: O_2  and  C_18
REMARK    3  A    between atoms: C_15  and  C_17
REMARK    4  A    between atoms: C_19  and  C_27
REMARK                            x       y       z     vdW  Elec       q    Type
REMARK                         _______ _______ _______ _____ _____    ______ ____
ROOT
ATOM      1  O   UNL     1     103.179 130.256 141.983  0.00  0.00    +0.000 OA
ATOM      2  O   UNL     1     103.718 127.976 140.293  0.00  0.00    +0.000 OA
ATOM      3  O   UNL     1     102.786 129.000 139.887  0.00  0.00    +0.000 OA
ATOM      4  C   UNL     1     104.544 128.515 142.304  0.00  0.00    +0.000 A 
ATOM      5  C   UNL     1     102.650 130.547 141.421  0.00  0.00    +0.000 C 
ATOM      6  C   UNL     1     102.519 130.128 140.722  0.00  0.00    +0.000 C 
ATOM      7  C   UNL     1     103.577 129.546 141.847  0.00  0.00    +0.000 A 
ATOM      8  C   UNL     1     103.447 129.128 141.149  0.00  0.00    +0.000 A 
ATOM      9  C   UNL     1     104.125 129.254 142.440  0.00  0.00    +0.000 A 
ATOM     10  C   UNL     1     102.918 129.418 140.586  0.00  0.00    +0.000 C 
ATOM     11  C   UNL     1     104.407 128.080 141.576  0.00  0.00    +0.000 A 
ATOM     12  C   UNL     1     103.855 128.388 140.995  0.00  0.00    +0.000 A 
ENDROOT
BRANCH   5  15
ATOM     13  O   UNL     1     103.339 131.978 140.974  0.00  0.00    +0.000 OA
ATOM     14  O   UNL     1     101.057 133.385 141.965  0.00  0.00    +0.000 OA
ATOM     15  C   UNL     1     102.251 131.256 141.557  0.00  0.00    +0.000 A 
ATOM     16  C   UNL     1     102.596 131.972 141.334  0.00  0.00    +0.000 A 
ATOM     17  C   UNL     1     101.508 131.250 141.916  0.00  0.00    +0.000 A 
ATOM     18  C   UNL     1     102.198 132.682 141.470  0.00  0.00    +0.000 A 
ATOM     19  C   UNL     1     101.111 131.959 142.052  0.00  0.00    +0.000 A 
ATOM     20  C   UNL     1     101.455 132.675 141.829  0.00  0.00    +0.000 A 
ENDBRANCH   5  15
BRANCH   4  21
ATOM     21  O   UNL     1     105.072 128.227 142.868  0.00  0.00    +0.000 OA
BRANCH  21  30
ATOM     22  O   UNL     1     106.242 128.838 142.321  0.00  0.00    +0.000 OA
ATOM     23  O   UNL     1     107.578 126.856 142.966  0.00  0.00    +0.000 OA
ATOM     24  O   UNL     1     108.302 128.127 142.205  0.00  0.00    +0.000 OA
ATOM     25  O   UNL     1     105.962 126.906 143.298  0.00  0.00    +0.000 OA
ATOM     26  C   UNL     1     107.133 127.517 142.751  0.00  0.00    +0.000 C 
ATOM     27  C   UNL     1     107.495 128.153 142.370  0.00  0.00    +0.000 C 
ATOM     28  C   UNL     1     106.324 127.542 142.917  0.00  0.00    +0.000 C 
ATOM     29  C   UNL     1     107.049 128.813 142.155  0.00  0.00    +0.000 C 
ATOM     30  C   UNL     1     105.879 128.202 142.702  0.00  0.00    +0.000 C 
BRANCH  29  32
ATOM     31  O   UNL     1     107.199 129.643 141.002  0.00  0.00    +0.000 OA
ATOM     32  C   UNL     1     107.412 129.448 141.775  0.00  0.00    +0.000 C 
ENDBRANCH  29  32
ENDBRANCH  21  30
ENDBRANCH   4  21
TORSDOF 4
ENDMDL
MODEL 5
REMARK VINA RESULT:      -9.3      2.365      4.166
REMARK  Name = 42608016
REMARK  4 active torsions:
REMARK  status: ('A' for Active; 'I' for Inactive)
REMARK    1  A    between atoms: O_2  and  C_16
REMARK    2  A    between atoms: O_2  and  C_18
REMARK    3  A    between atoms: C_15  and  C_17
REMARK    4  A    between atoms: C_19  and  C_27
REMARK                            x       y       z     vdW  Elec       q    Type
REMARK                         _______ _______ _______ _____ _____    ______ ____
ROOT
ATOM      1  O   UNL     1     112.622 128.332 135.561  0.00  0.00    +0.000 OA
ATOM      2  O   UNL     1     109.863 128.453 134.711  0.00  0.00    +0.000 OA
ATOM      3  O   UNL     1     110.724 129.607 134.612  0.00  0.00    +0.000 OA
ATOM      4  C   UNL     1     111.039 126.754 135.576  0.00  0.00    +0.000 A 
ATOM      5  C   UNL     1     112.721 129.123 135.349  0.00  0.00    +0.000 C 
ATOM      6  C   UNL     1     112.088 129.548 135.032  0.00  0.00    +0.000 C 
ATOM      7  C   UNL     1     111.890 127.966 135.457  0.00  0.00    +0.000 A 
ATOM      8  C   UNL     1     111.257 128.390 135.141  0.00  0.00    +0.000 A 
ATOM      9  C   UNL     1     111.800 127.141 135.682  0.00  0.00    +0.000 A 
ATOM     10  C   UNL     1     111.356 129.181 134.929  0.00  0.00    +0.000 C 
ATOM     11  C   UNL     1     110.381 127.197 135.247  0.00  0.00    +0.000 A 
ATOM     12  C   UNL     1     110.490 128.020 135.028  0.00  0.00    +0.000 A 
ENDROOT
BRANCH   5  15
ATOM     13  O   UNL     1     113.059 129.903 136.763  0.00  0.00    +0.000 OA
ATOM     14  O   UNL     1     115.648 130.589 135.764  0.00  0.00    +0.000 OA
ATOM     15  C   UNL     1     113.453 129.490 135.452  0.00  0.00    +0.000 A 
ATOM     16  C   UNL     1     113.622 129.880 136.160  0.00  0.00    +0.000 A 
ATOM     17  C   UNL     1     114.015 129.466 134.849  0.00  0.00    +0.000 A 
ATOM     18  C   UNL     1     114.354 130.246 136.264  0.00  0.00    +0.000 A 
ATOM     19  C   UNL     1     114.747 129.833 134.954  0.00  0.00    +0.000 A 
ATOM     20  C   UNL     1     114.916 130.223 135.661  0.00  0.00    +0.000 A 
ENDBRANCH   5  15
BRANCH   4  21
ATOM     21  O   UNL     1     110.943 125.963 135.790  0.00  0.00    +0.000 OA
BRANCH  21  30
ATOM     22  O   UNL     1     110.407 126.171 137.098  0.00  0.00    +0.000 OA
ATOM     23  O   UNL     1     111.764 124.286 137.953  0.00  0.00    +0.000 OA
ATOM     24  O   UNL     1     110.777 125.122 138.976  0.00  0.00    +0.000 OA
ATOM     25  O   UNL     1     111.848 124.706 136.360  0.00  0.00    +0.000 OA
ATOM     26  C   UNL     1     111.312 124.914 137.668  0.00  0.00    +0.000 C 
ATOM     27  C   UNL     1     110.818 125.332 138.179  0.00  0.00    +0.000 C 
ATOM     28  C   UNL     1     111.354 125.124 136.871  0.00  0.00    +0.000 C 
ATOM     29  C   UNL     1     110.366 125.961 137.894  0.00  0.00    +0.000 C 
ATOM     30  C   UNL     1     110.901 125.753 136.586  0.00  0.00    +0.000 C 
BRANCH  29  32
ATOM     31  O   UNL     1     109.081 126.503 138.207  0.00  0.00    +0.000 OA
ATOM     32  C   UNL     1     109.872 126.378 138.406  0.00  0.00    +0.000 C 
ENDBRANCH  29  32
ENDBRANCH  21  30
ENDBRANCH   4  21
TORSDOF 4
ENDMDL
MODEL 6
REMARK VINA RESULT:      -9.3      7.794     10.415
REMARK  Name = 42608016
REMARK  4 active torsions:
REMARK  status: ('A' for Active; 'I' for Inactive)
REMARK    1  A    between atoms: O_2  and  C_16
REMARK    2  A    between atoms: O_2  and  C_18
REMARK    3  A    between atoms: C_15  and  C_17
REMARK    4  A    between atoms: C_19  and  C_27
REMARK                            x       y       z     vdW  Elec       q    Type
REMARK                         _______ _______ _______ _____ _____    ______ ____
ROOT
ATOM      1  O   UNL     1     104.990 127.682 142.665  0.00  0.00    +0.000 OA
ATOM      2  O   UNL     1     107.860 127.356 142.697  0.00  0.00    +0.000 OA
ATOM      3  O   UNL     1     107.258 128.607 142.305  0.00  0.00    +0.000 OA
ATOM      4  C   UNL     1     106.232 125.906 143.211  0.00  0.00    +0.000 A 
ATOM      5  C   UNL     1     105.082 128.461 142.409  0.00  0.00    +0.000 C 
ATOM      6  C   UNL     1     105.838 128.769 142.289  0.00  0.00    +0.000 C 
ATOM      7  C   UNL     1     105.654 127.211 142.801  0.00  0.00    +0.000 A 
ATOM      8  C   UNL     1     106.409 127.519 142.681  0.00  0.00    +0.000 A 
ATOM      9  C   UNL     1     105.544 126.402 143.067  0.00  0.00    +0.000 A 
ATOM     10  C   UNL     1     106.502 128.298 142.425  0.00  0.00    +0.000 C 
ATOM     11  C   UNL     1     107.019 126.228 143.086  0.00  0.00    +0.000 A 
ATOM     12  C   UNL     1     107.108 127.039 142.820  0.00  0.00    +0.000 A 
ENDROOT
BRANCH   5  15
ATOM     13  O   UNL     1     104.316 128.404 140.948  0.00  0.00    +0.000 OA
ATOM     14  O   UNL     1     102.428 130.345 141.863  0.00  0.00    +0.000 OA
ATOM     15  C   UNL     1     104.419 128.932 142.273  0.00  0.00    +0.000 A 
ATOM     16  C   UNL     1     104.036 128.903 141.542  0.00  0.00    +0.000 A 
ATOM     17  C   UNL     1     104.138 129.432 142.867  0.00  0.00    +0.000 A 
ATOM     18  C   UNL     1     103.372 129.374 141.406  0.00  0.00    +0.000 A 
ATOM     19  C   UNL     1     103.475 129.902 142.730  0.00  0.00    +0.000 A 
ATOM     20  C   UNL     1     103.092 129.874 142.000  0.00  0.00    +0.000 A 
ENDBRANCH   5  15
BRANCH   4  21
ATOM     21  O   UNL     1     106.137 125.128 143.467  0.00  0.00    +0.000 OA
BRANCH  21  30
ATOM     22  O   UNL     1     106.363 125.357 144.859  0.00  0.00    +0.000 OA
ATOM     23  O   UNL     1     104.575 123.738 145.416  0.00  0.00    +0.000 OA
ATOM     24  O   UNL     1     105.397 124.507 146.621  0.00  0.00    +0.000 OA
ATOM     25  O   UNL     1     104.945 124.048 143.838  0.00  0.00    +0.000 OA
ATOM     26  C   UNL     1     105.171 124.278 145.230  0.00  0.00    +0.000 C 
ATOM     27  C   UNL     1     105.582 124.662 145.833  0.00  0.00    +0.000 C 
ATOM     28  C   UNL     1     105.356 124.433 144.441  0.00  0.00    +0.000 C 
ATOM     29  C   UNL     1     106.178 125.202 145.647  0.00  0.00    +0.000 C 
ATOM     30  C   UNL     1     105.952 124.973 144.255  0.00  0.00    +0.000 C 
BRANCH  29  32
ATOM     31  O   UNL     1     107.400 125.468 146.338  0.00  0.00    +0.000 OA
ATOM     32  C   UNL     1     106.588 125.586 146.250  0.00  0.00    +0.000 C 
ENDBRANCH  29  32
ENDBRANCH  21  30
ENDBRANCH   4  21
TORSDOF 4
ENDMDL
MODEL 7
REMARK VINA RESULT:      -9.3      8.946     10.800
REMARK  Name = 42608016
REMARK  4 active torsions:
REMARK  status: ('A' for Active; 'I' for Inactive)
REMARK    1  A    between atoms: O_2  and  C_16
REMARK    2  A    between atoms: O_2  and  C_18
REMARK    3  A    between atoms: C_15  and  C_17
REMARK    4  A    between atoms: C_19  and  C_27
REMARK                            x       y       z     vdW  Elec       q    Type
REMARK                         _______ _______ _______ _____ _____    ______ ____
ROOT
ATOM      1  O   UNL     1     106.429 125.616 146.517  0.00  0.00    +0.000 OA
ATOM      2  O   UNL     1     105.778 128.279 145.606  0.00  0.00    +0.000 OA
ATOM      3  O   UNL     1     106.291 128.052 146.934  0.00  0.00    +0.000 OA
ATOM      4  C   UNL     1     105.627 126.310 144.549  0.00  0.00    +0.000 A 
ATOM      5  C   UNL     1     106.659 125.923 147.247  0.00  0.00    +0.000 C 
ATOM      6  C   UNL     1     106.613 126.735 147.386  0.00  0.00    +0.000 C 
ATOM      7  C   UNL     1     106.153 126.121 145.926  0.00  0.00    +0.000 A 
ATOM      8  C   UNL     1     106.107 126.933 146.064  0.00  0.00    +0.000 A 
ATOM      9  C   UNL     1     105.916 125.789 145.170  0.00  0.00    +0.000 A 
ATOM     10  C   UNL     1     106.337 127.240 146.795  0.00  0.00    +0.000 C 
ATOM     11  C   UNL     1     105.579 127.155 144.695  0.00  0.00    +0.000 A 
ATOM     12  C   UNL     1     105.821 127.469 145.457  0.00  0.00    +0.000 A 
ENDROOT
BRANCH   5  15
ATOM     13  O   UNL     1     108.272 125.589 147.358  0.00  0.00    +0.000 OA
ATOM     14  O   UNL     1     107.766 123.905 149.612  0.00  0.00    +0.000 OA
ATOM     15  C   UNL     1     106.936 125.419 147.838  0.00  0.00    +0.000 A 
ATOM     16  C   UNL     1     107.742 125.252 147.894  0.00  0.00    +0.000 A 
ATOM     17  C   UNL     1     106.406 125.082 148.374  0.00  0.00    +0.000 A 
ATOM     18  C   UNL     1     108.019 124.747 148.485  0.00  0.00    +0.000 A 
ATOM     19  C   UNL     1     106.683 124.577 148.965  0.00  0.00    +0.000 A 
ATOM     20  C   UNL     1     107.489 124.410 149.020  0.00  0.00    +0.000 A 
ENDBRANCH   5  15
BRANCH   4  21
ATOM     21  O   UNL     1     105.397 126.000 143.820  0.00  0.00    +0.000 OA
BRANCH  21  30
ATOM     22  O   UNL     1     106.495 126.466 143.033  0.00  0.00    +0.000 OA
ATOM     23  O   UNL     1     106.579 124.288 141.861  0.00  0.00    +0.000 OA
ATOM     24  O   UNL     1     107.649 125.479 141.466  0.00  0.00    +0.000 OA
ATOM     25  O   UNL     1     105.453 124.548 143.038  0.00  0.00    +0.000 OA
ATOM     26  C   UNL     1     106.551 125.014 142.252  0.00  0.00    +0.000 C 
ATOM     27  C   UNL     1     107.086 125.610 142.054  0.00  0.00    +0.000 C 
ATOM     28  C   UNL     1     105.988 125.144 142.841  0.00  0.00    +0.000 C 
ATOM     29  C   UNL     1     107.058 126.336 142.445  0.00  0.00    +0.000 C 
ATOM     30  C   UNL     1     105.960 125.870 143.232  0.00  0.00    +0.000 C 
BRANCH  29  32
ATOM     31  O   UNL     1     108.189 127.144 142.777  0.00  0.00    +0.000 OA
ATOM     32  C   UNL     1     107.593 126.931 142.247  0.00  0.00    +0.000 C 
ENDBRANCH  29  32
ENDBRANCH  21  30
ENDBRANCH   4  21
TORSDOF 4
ENDMDL
MODEL 8
REMARK VINA RESULT:      -9.2      1.461      2.310
REMARK  Name = 42608016
REMARK  4 active torsions:
REMARK  status: ('A' for Active; 'I' for Inactive)
REMARK    1  A    between atoms: O_2  and  C_16
REMARK    2  A    between atoms: O_2  and  C_18
REMARK    3  A    between atoms: C_15  and  C_17
REMARK    4  A    between atoms: C_19  and  C_27
REMARK                            x       y       z     vdW  Elec       q    Type
REMARK                         _______ _______ _______ _____ _____    ______ ____
ROOT
ATOM      1  O   UNL     1     112.536 127.290 137.107  0.00  0.00    +0.000 OA
ATOM      2  O   UNL     1     112.956 129.781 135.706  0.00  0.00    +0.000 OA
ATOM      3  O   UNL     1     113.864 128.673 135.541  0.00  0.00    +0.000 OA
ATOM      4  C   UNL     1     111.340 129.178 137.135  0.00  0.00    +0.000 A 
ATOM      5  C   UNL     1     113.214 126.979 136.756  0.00  0.00    +0.000 C 
ATOM      6  C   UNL     1     113.657 127.440 136.234  0.00  0.00    +0.000 C 
ATOM      7  C   UNL     1     112.299 128.062 136.937  0.00  0.00    +0.000 A 
ATOM      8  C   UNL     1     112.742 128.523 136.415  0.00  0.00    +0.000 A 
ATOM      9  C   UNL     1     111.591 128.374 137.309  0.00  0.00    +0.000 A 
ATOM     10  C   UNL     1     113.420 128.212 136.063  0.00  0.00    +0.000 C 
ATOM     11  C   UNL     1     111.801 129.657 136.591  0.00  0.00    +0.000 A 
ATOM     12  C   UNL     1     112.506 129.328 136.229  0.00  0.00    +0.000 A 
ENDROOT
BRANCH   5  15
ATOM     13  O   UNL     1     112.518 125.710 135.964  0.00  0.00    +0.000 OA
ATOM     14  O   UNL     1     114.159 123.892 137.437  0.00  0.00    +0.000 OA
ATOM     15  C   UNL     1     113.451 126.207 136.926  0.00  0.00    +0.000 A 
ATOM     16  C   UNL     1     113.102 125.572 136.530  0.00  0.00    +0.000 A 
ATOM     17  C   UNL     1     114.035 126.070 137.492  0.00  0.00    +0.000 A 
ATOM     18  C   UNL     1     113.338 124.801 136.701  0.00  0.00    +0.000 A 
ATOM     19  C   UNL     1     114.270 125.298 137.662  0.00  0.00    +0.000 A 
ATOM     20  C   UNL     1     113.922 124.664 137.267  0.00  0.00    +0.000 A 
ENDBRANCH   5  15
BRANCH   4  21
ATOM     21  O   UNL     1     110.660 129.486 137.488  0.00  0.00    +0.000 OA
BRANCH  21  30
ATOM     22  O   UNL     1     109.682 128.913 136.618  0.00  0.00    +0.000 OA
ATOM     23  O   UNL     1     108.439 131.052 136.605  0.00  0.00    +0.000 OA
ATOM     24  O   UNL     1     107.876 129.766 135.741  0.00  0.00    +0.000 OA
ATOM     25  O   UNL     1     109.831 130.913 137.479  0.00  0.00    +0.000 OA
ATOM     26  C   UNL     1     108.853 130.339 136.610  0.00  0.00    +0.000 C 
ATOM     27  C   UNL     1     108.572 129.695 136.177  0.00  0.00    +0.000 C 
ATOM     28  C   UNL     1     109.550 130.269 137.047  0.00  0.00    +0.000 C 
ATOM     29  C   UNL     1     108.986 128.982 136.182  0.00  0.00    +0.000 C 
ATOM     30  C   UNL     1     109.965 129.556 137.051  0.00  0.00    +0.000 C 
BRANCH  29  32
ATOM     31  O   UNL     1     108.515 127.634 136.134  0.00  0.00    +0.000 OA
ATOM     32  C   UNL     1     108.705 128.339 135.749  0.00  0.00    +0.000 C 
ENDBRANCH  29  32
ENDBRANCH  21  30
ENDBRANCH   4  21
TORSDOF 4
ENDMDL
MODEL 9
REMARK VINA RESULT:      -9.2      1.960      3.073
REMARK  Name = 42608016
REMARK  4 active torsions:
REMARK  status: ('A' for Active; 'I' for Inactive)
REMARK    1  A    between atoms: O_2  and  C_16
REMARK    2  A    between atoms: O_2  and  C_18
REMARK    3  A    between atoms: C_15  and  C_17
REMARK    4  A    between atoms: C_19  and  C_27
REMARK                            x       y       z     vdW  Elec       q    Type
REMARK                         _______ _______ _______ _____ _____    ______ ____
ROOT
ATOM      1  O   UNL     1     110.344 127.901 136.030  0.00  0.00    +0.000 OA
ATOM      2  O   UNL     1     107.900 129.427 135.818  0.00  0.00    +0.000 OA
ATOM      3  O   UNL     1     107.884 127.986 135.760  0.00  0.00    +0.000 OA
ATOM      4  C   UNL     1     110.017 130.111 136.079  0.00  0.00    +0.000 A 
ATOM      5  C   UNL     1     109.912 127.201 135.955  0.00  0.00    +0.000 C 
ATOM      6  C   UNL     1     109.093 127.230 135.865  0.00  0.00    +0.000 C 
ATOM      7  C   UNL     1     109.956 128.629 136.015  0.00  0.00    +0.000 A 
ATOM      8  C   UNL     1     109.136 128.657 135.925  0.00  0.00    +0.000 A 
ATOM      9  C   UNL     1     110.416 129.349 136.094  0.00  0.00    +0.000 A 
ATOM     10  C   UNL     1     108.705 127.958 135.850  0.00  0.00    +0.000 C 
ATOM     11  C   UNL     1     109.164 130.140 135.985  0.00  0.00    +0.000 A 
ATOM     12  C   UNL     1     108.720 129.409 135.908  0.00  0.00    +0.000 A 
ENDROOT
BRANCH   5  15
ATOM     13  O   UNL     1     110.211 126.456 137.396  0.00  0.00    +0.000 OA
ATOM     14  O   UNL     1     111.464 124.290 136.015  0.00  0.00    +0.000 OA
ATOM     15  C   UNL     1     110.300 126.473 135.970  0.00  0.00    +0.000 A 
ATOM     16  C   UNL     1     110.450 126.101 136.691  0.00  0.00    +0.000 A 
ATOM     17  C   UNL     1     110.538 126.118 135.264  0.00  0.00    +0.000 A 
ATOM     18  C   UNL     1     110.838 125.373 136.706  0.00  0.00    +0.000 A 
ATOM     19  C   UNL     1     110.926 125.391 135.280  0.00  0.00    +0.000 A 
ATOM     20  C   UNL     1     111.076 125.018 136.000  0.00  0.00    +0.000 A 
ENDBRANCH   5  15
BRANCH   4  21
ATOM     21  O   UNL     1     110.451 130.809 136.154  0.00  0.00    +0.000 OA
BRANCH  21  30
ATOM     22  O   UNL     1     110.603 130.812 137.575  0.00  0.00    +0.000 OA
ATOM     23  O   UNL     1     110.176 133.249 137.616  0.00  0.00    +0.000 OA
ATOM     24  O   UNL     1     110.470 132.439 139.022  0.00  0.00    +0.000 OA
ATOM     25  O   UNL     1     110.166 132.434 136.181  0.00  0.00    +0.000 OA
ATOM     26  C   UNL     1     110.318 132.437 137.602  0.00  0.00    +0.000 C 
ATOM     27  C   UNL     1     110.465 132.031 138.305  0.00  0.00    +0.000 C 
ATOM     28  C   UNL     1     110.314 132.028 136.885  0.00  0.00    +0.000 C 
ATOM     29  C   UNL     1     110.608 131.219 138.292  0.00  0.00    +0.000 C 
ATOM     30  C   UNL     1     110.456 131.216 136.871  0.00  0.00    +0.000 C 
BRANCH  29  32
ATOM     31  O   UNL     1     111.443 130.366 139.078  0.00  0.00    +0.000 OA
ATOM     32  C   UNL     1     110.755 130.814 138.995  0.00  0.00    +0.000 C 
ENDBRANCH  29  32
ENDBRANCH  21  30
ENDBRANCH   4  21
TORSDOF 4
ENDMDL
MODEL 10
REMARK VINA RESULT:      -9.2      1.622      5.618
REMARK  Name = 42608016
REMARK  4 active torsions:
REMARK  status: ('A' for Active; 'I' for Inactive)
REMARK    1  A    between atoms: O_2  and  C_16
REMARK    2  A    between atoms: O_2  and  C_18
REMARK    3  A    between atoms: C_15  and  C_17
REMARK    4  A    between atoms: C_19  and  C_27
REMARK                            x       y       z     vdW  Elec       q    Type
REMARK                         _______ _______ _______ _____ _____    ______ ____
ROOT
ATOM      1  O   UNL     1     111.597 128.714 136.037  0.00  0.00    +0.000 OA
ATOM      2  O   UNL     1     114.405 128.445 135.413  0.00  0.00    +0.000 OA
ATOM      3  O   UNL     1     113.577 129.400 134.718  0.00  0.00    +0.000 OA
ATOM      4  C   UNL     1     113.142 127.355 136.908  0.00  0.00    +0.000 A 
ATOM      5  C   UNL     1     111.528 129.305 135.466  0.00  0.00    +0.000 C 
ATOM      6  C   UNL     1     112.187 129.534 135.026  0.00  0.00    +0.000 C 
ATOM      7  C   UNL     1     112.326 128.351 136.169  0.00  0.00    +0.000 A 
ATOM      8  C   UNL     1     112.986 128.580 135.729  0.00  0.00    +0.000 A 
ATOM      9  C   UNL     1     112.385 127.737 136.766  0.00  0.00    +0.000 A 
ATOM     10  C   UNL     1     112.917 129.171 135.158  0.00  0.00    +0.000 C 
ATOM     11  C   UNL     1     113.829 127.593 136.450  0.00  0.00    +0.000 A 
ATOM     12  C   UNL     1     113.750 128.210 135.857  0.00  0.00    +0.000 A 
ENDROOT
BRANCH   5  15
ATOM     13  O   UNL     1     111.093 130.629 136.350  0.00  0.00    +0.000 OA
ATOM     14  O   UNL     1     108.612 130.757 134.939  0.00  0.00    +0.000 OA
ATOM     15  C   UNL     1     110.798 129.668 135.334  0.00  0.00    +0.000 A 
ATOM     16  C   UNL     1     110.582 130.330 135.776  0.00  0.00    +0.000 A 
ATOM     17  C   UNL     1     110.287 129.369 134.760  0.00  0.00    +0.000 A 
ATOM     18  C   UNL     1     109.852 130.693 135.644  0.00  0.00    +0.000 A 
ATOM     19  C   UNL     1     109.558 129.733 134.628  0.00  0.00    +0.000 A 
ATOM     20  C   UNL     1     109.341 130.394 135.070  0.00  0.00    +0.000 A 
ENDBRANCH   5  15
BRANCH   4  21
ATOM     21  O   UNL     1     113.209 126.764 137.480  0.00  0.00    +0.000 OA
BRANCH  21  30
ATOM     22  O   UNL     1     112.533 125.695 136.814  0.00  0.00    +0.000 OA
ATOM     23  O   UNL     1     114.335 124.137 137.485  0.00  0.00    +0.000 OA
ATOM     24  O   UNL     1     113.060 123.589 136.595  0.00  0.00    +0.000 OA
ATOM     25  O   UNL     1     114.410 125.725 137.927  0.00  0.00    +0.000 OA
ATOM     26  C   UNL     1     113.735 124.656 137.261  0.00  0.00    +0.000 C 
ATOM     27  C   UNL     1     113.096 124.383 136.816  0.00  0.00    +0.000 C 
ATOM     28  C   UNL     1     113.772 125.451 137.483  0.00  0.00    +0.000 C 
ATOM     29  C   UNL     1     112.496 124.902 136.592  0.00  0.00    +0.000 C 
ATOM     30  C   UNL     1     113.171 125.970 137.259  0.00  0.00    +0.000 C 
BRANCH  29  32
ATOM     31  O   UNL     1     111.086 124.772 136.399  0.00  0.00    +0.000 OA
ATOM     32  C   UNL     1     111.858 124.627 136.148  0.00  0.00    +0.000 C 
ENDBRANCH  29  32
ENDBRANCH  21  30
ENDBRANCH   4  21
TORSDOF 4
ENDMDL
