MODEL 1
REMARK VINA RESULT:      -9.7      0.000      0.000
REMARK  Name = 44257195
REMARK  2 active torsions:
REMARK  status: ('A' for Active; 'I' for Inactive)
REMARK    1  A    between atoms: O_3  and  C_16
REMARK    2  A    between atoms: C_7  and  C_12
REMARK                            x       y       z     vdW  Elec       q    Type
REMARK                         _______ _______ _______ _____ _____    ______ ____
ROOT
ATOM      1  O   UNL     1     104.939 124.337 147.303  0.00  0.00    +0.000 OA
ATOM      2  O   UNL     1     107.304 125.556 146.162  0.00  0.00    +0.000 OA
ATOM      3  C   UNL     1     104.560 124.328 146.530  0.00  0.00    +0.000 C 
ATOM      4  C   UNL     1     104.982 124.639 145.849  0.00  0.00    +0.000 C 
ATOM      5  C   UNL     1     105.775 124.954 145.948  0.00  0.00    +0.000 C 
ATOM      6  C   UNL     1     106.137 124.954 146.728  0.00  0.00    +0.000 A 
ATOM      7  C   UNL     1     105.732 124.656 147.382  0.00  0.00    +0.000 A 
ATOM      8  C   UNL     1     106.090 124.662 148.125  0.00  0.00    +0.000 A 
ATOM      9  C   UNL     1     106.899 125.258 146.817  0.00  0.00    +0.000 A 
ATOM     10  C   UNL     1     107.256 125.263 147.560  0.00  0.00    +0.000 A 
ATOM     11  C   UNL     1     106.852 124.965 148.215  0.00  0.00    +0.000 A 
ATOM     12  C   UNL     1     105.686 124.364 148.780  0.00  0.00    +0.000 C 
ATOM     13  C   UNL     1     108.019 125.567 147.649  0.00  0.00    +0.000 C 
ENDROOT
BRANCH   3  17
ATOM     14  O   UNL     1     101.651 124.442 146.842  0.00  0.00    +0.000 OA
ATOM     15  O   UNL     1     101.470 123.260 146.264  0.00  0.00    +0.000 OA
ATOM     16  O   UNL     1     104.335 122.860 145.812  0.00  0.00    +0.000 OA
ATOM     17  C   UNL     1     103.798 124.024 146.444  0.00  0.00    +0.000 A 
ATOM     18  C   UNL     1     103.149 124.454 146.717  0.00  0.00    +0.000 A 
ATOM     19  C   UNL     1     103.686 123.290 146.085  0.00  0.00    +0.000 A 
ATOM     20  C   UNL     1     102.387 124.149 146.630  0.00  0.00    +0.000 A 
ATOM     21  C   UNL     1     102.274 123.415 146.271  0.00  0.00    +0.000 A 
ATOM     22  C   UNL     1     102.925 122.986 145.999  0.00  0.00    +0.000 A 
ATOM     23  C   UNL     1     101.085 123.893 146.616  0.00  0.00    +0.000 C 
ENDBRANCH   3  17
BRANCH  11  24
ATOM     24  O   UNL     1     107.210 124.971 148.958  0.00  0.00    +0.000 OA
ATOM     25  C   UNL     1     107.690 124.342 149.190  0.00  0.00    +0.000 C 
ENDBRANCH  11  24
TORSDOF 2
ENDMDL
MODEL 2
REMARK VINA RESULT:      -8.7      0.897      4.729
REMARK  Name = 44257195
REMARK  2 active torsions:
REMARK  status: ('A' for Active; 'I' for Inactive)
REMARK    1  A    between atoms: O_3  and  C_16
REMARK    2  A    between atoms: C_7  and  C_12
REMARK                            x       y       z     vdW  Elec       q    Type
REMARK                         _______ _______ _______ _____ _____    ______ ____
ROOT
ATOM      1  O   UNL     1     104.355 124.301 146.751  0.00  0.00    +0.000 OA
ATOM      2  O   UNL     1     101.694 124.952 147.687  0.00  0.00    +0.000 OA
ATOM      3  C   UNL     1     104.683 124.955 147.203  0.00  0.00    +0.000 C 
ATOM      4  C   UNL     1     104.160 125.451 147.671  0.00  0.00    +0.000 C 
ATOM      5  C   UNL     1     103.316 125.287 147.681  0.00  0.00    +0.000 C 
ATOM      6  C   UNL     1     103.007 124.629 147.224  0.00  0.00    +0.000 A 
ATOM      7  C   UNL     1     103.509 124.152 146.774  0.00  0.00    +0.000 A 
ATOM      8  C   UNL     1     103.200 123.523 146.339  0.00  0.00    +0.000 A 
ATOM      9  C   UNL     1     102.196 124.476 147.238  0.00  0.00    +0.000 A 
ATOM     10  C   UNL     1     101.888 123.847 146.803  0.00  0.00    +0.000 A 
ATOM     11  C   UNL     1     102.390 123.370 146.353  0.00  0.00    +0.000 A 
ATOM     12  C   UNL     1     103.701 123.047 145.890  0.00  0.00    +0.000 C 
ATOM     13  C   UNL     1     101.077 123.694 146.817  0.00  0.00    +0.000 C 
ENDROOT
BRANCH   3  17
ATOM     14  O   UNL     1     107.419 124.638 148.196  0.00  0.00    +0.000 OA
ATOM     15  O   UNL     1     107.925 125.450 147.275  0.00  0.00    +0.000 OA
ATOM     16  O   UNL     1     105.312 125.964 146.059  0.00  0.00    +0.000 OA
ATOM     17  C   UNL     1     105.494 125.106 147.187  0.00  0.00    +0.000 A 
ATOM     18  C   UNL     1     105.990 124.752 147.743  0.00  0.00    +0.000 A 
ATOM     19  C   UNL     1     105.808 125.610 146.615  0.00  0.00    +0.000 A 
ATOM     20  C   UNL     1     106.801 124.903 147.726  0.00  0.00    +0.000 A 
ATOM     21  C   UNL     1     107.116 125.407 147.154  0.00  0.00    +0.000 A 
ATOM     22  C   UNL     1     106.618 125.761 146.599  0.00  0.00    +0.000 A 
ATOM     23  C   UNL     1     108.113 124.976 147.917  0.00  0.00    +0.000 C 
ENDBRANCH   3  17
BRANCH  11  24
ATOM     24  O   UNL     1     102.080 122.741 145.918  0.00  0.00    +0.000 OA
ATOM     25  C   UNL     1     101.781 122.870 145.161  0.00  0.00    +0.000 C 
ENDBRANCH  11  24
TORSDOF 2
ENDMDL
MODEL 3
REMARK VINA RESULT:      -8.6     12.213     12.991
REMARK  Name = 44257195
REMARK  2 active torsions:
REMARK  status: ('A' for Active; 'I' for Inactive)
REMARK    1  A    between atoms: O_3  and  C_16
REMARK    2  A    between atoms: C_7  and  C_12
REMARK                            x       y       z     vdW  Elec       q    Type
REMARK                         _______ _______ _______ _____ _____    ______ ____
ROOT
ATOM      1  O   UNL     1     111.106 126.756 136.339  0.00  0.00    +0.000 OA
ATOM      2  O   UNL     1     111.544 123.949 135.783  0.00  0.00    +0.000 OA
ATOM      3  C   UNL     1     110.469 126.780 135.763  0.00  0.00    +0.000 C 
ATOM      4  C   UNL     1     110.262 126.067 135.330  0.00  0.00    +0.000 C 
ATOM      5  C   UNL     1     110.696 125.340 135.480  0.00  0.00    +0.000 C 
ATOM      6  C   UNL     1     111.330 125.336 136.059  0.00  0.00    +0.000 A 
ATOM      7  C   UNL     1     111.528 126.020 136.475  0.00  0.00    +0.000 A 
ATOM      8  C   UNL     1     112.139 126.003 137.029  0.00  0.00    +0.000 A 
ATOM      9  C   UNL     1     111.742 124.634 136.199  0.00  0.00    +0.000 A 
ATOM     10  C   UNL     1     112.353 124.618 136.753  0.00  0.00    +0.000 A 
ATOM     11  C   UNL     1     112.551 125.303 137.168  0.00  0.00    +0.000 A 
ATOM     12  C   UNL     1     112.337 126.688 137.445  0.00  0.00    +0.000 C 
ATOM     13  C   UNL     1     112.765 123.917 136.892  0.00  0.00    +0.000 C 
ENDROOT
BRANCH   3  17
ATOM     14  O   UNL     1     110.183 129.458 134.614  0.00  0.00    +0.000 OA
ATOM     15  O   UNL     1     108.969 129.628 135.125  0.00  0.00    +0.000 OA
ATOM     16  O   UNL     1     108.961 126.991 136.398  0.00  0.00    +0.000 OA
ATOM     17  C   UNL     1     110.058 127.482 135.625  0.00  0.00    +0.000 A 
ATOM     18  C   UNL     1     110.401 128.079 135.171  0.00  0.00    +0.000 A 
ATOM     19  C   UNL     1     109.304 127.588 135.943  0.00  0.00    +0.000 A 
ATOM     20  C   UNL     1     109.990 128.781 135.034  0.00  0.00    +0.000 A 
ATOM     21  C   UNL     1     109.236 128.887 135.352  0.00  0.00    +0.000 A 
ATOM     22  C   UNL     1     108.894 128.289 135.807  0.00  0.00    +0.000 A 
ATOM     23  C   UNL     1     109.553 129.980 134.670  0.00  0.00    +0.000 C 
ENDBRANCH   3  17
BRANCH  11  24
ATOM     24  O   UNL     1     113.162 125.286 137.723  0.00  0.00    +0.000 OA
ATOM     25  C   UNL     1     113.934 125.457 137.492  0.00  0.00    +0.000 C 
ENDBRANCH  11  24
TORSDOF 2
ENDMDL
MODEL 4
REMARK VINA RESULT:      -8.6     12.014     13.056
REMARK  Name = 44257195
REMARK  2 active torsions:
REMARK  status: ('A' for Active; 'I' for Inactive)
REMARK    1  A    between atoms: O_3  and  C_16
REMARK    2  A    between atoms: C_7  and  C_12
REMARK                            x       y       z     vdW  Elec       q    Type
REMARK                         _______ _______ _______ _____ _____    ______ ____
ROOT
ATOM      1  O   UNL     1     110.412 127.610 135.911  0.00  0.00    +0.000 OA
ATOM      2  O   UNL     1     107.904 129.050 135.799  0.00  0.00    +0.000 OA
ATOM      3  C   UNL     1     109.991 126.863 135.969  0.00  0.00    +0.000 C 
ATOM      4  C   UNL     1     109.132 126.860 135.969  0.00  0.00    +0.000 C 
ATOM      5  C   UNL     1     108.705 127.604 135.911  0.00  0.00    +0.000 C 
ATOM      6  C   UNL     1     109.144 128.341 135.854  0.00  0.00    +0.000 A 
ATOM      7  C   UNL     1     109.969 128.343 135.854  0.00  0.00    +0.000 A 
ATOM      8  C   UNL     1     110.379 129.057 135.798  0.00  0.00    +0.000 A 
ATOM      9  C   UNL     1     108.729 129.052 135.798  0.00  0.00    +0.000 A 
ATOM     10  C   UNL     1     109.140 129.765 135.743  0.00  0.00    +0.000 A 
ATOM     11  C   UNL     1     109.965 129.768 135.743  0.00  0.00    +0.000 A 
ATOM     12  C   UNL     1     111.204 129.059 135.798  0.00  0.00    +0.000 C 
ATOM     13  C   UNL     1     108.725 130.477 135.687  0.00  0.00    +0.000 C 
ENDROOT
BRANCH   3  17
ATOM     14  O   UNL     1     111.431 124.787 137.450  0.00  0.00    +0.000 OA
ATOM     15  O   UNL     1     111.663 124.067 136.359  0.00  0.00    +0.000 OA
ATOM     16  O   UNL     1     110.279 125.967 134.614  0.00  0.00    +0.000 OA
ATOM     17  C   UNL     1     110.408 126.153 136.025  0.00  0.00    +0.000 A 
ATOM     18  C   UNL     1     110.681 125.891 136.758  0.00  0.00    +0.000 A 
ATOM     19  C   UNL     1     110.552 125.705 135.347  0.00  0.00    +0.000 A 
ATOM     20  C   UNL     1     111.098 125.181 136.813  0.00  0.00    +0.000 A 
ATOM     21  C   UNL     1     111.242 124.733 136.135  0.00  0.00    +0.000 A 
ATOM     22  C   UNL     1     110.968 124.996 135.402  0.00  0.00    +0.000 A 
ATOM     23  C   UNL     1     111.780 124.099 137.170  0.00  0.00    +0.000 C 
ENDBRANCH   3  17
BRANCH  11  24
ATOM     24  O   UNL     1     110.375 130.482 135.687  0.00  0.00    +0.000 OA
ATOM     25  C   UNL     1     110.592 130.887 136.371  0.00  0.00    +0.000 C 
ENDBRANCH  11  24
TORSDOF 2
ENDMDL
MODEL 5
REMARK VINA RESULT:      -8.6      8.187      9.053
REMARK  Name = 44257195
REMARK  2 active torsions:
REMARK  status: ('A' for Active; 'I' for Inactive)
REMARK    1  A    between atoms: O_3  and  C_16
REMARK    2  A    between atoms: C_7  and  C_12
REMARK                            x       y       z     vdW  Elec       q    Type
REMARK                         _______ _______ _______ _____ _____    ______ ____
ROOT
ATOM      1  O   UNL     1     102.811 130.914 142.233  0.00  0.00    +0.000 OA
ATOM      2  O   UNL     1     103.552 128.680 140.548  0.00  0.00    +0.000 OA
ATOM      3  C   UNL     1     102.328 131.241 141.601  0.00  0.00    +0.000 C 
ATOM      4  C   UNL     1     102.277 130.828 140.850  0.00  0.00    +0.000 C 
ATOM      5  C   UNL     1     102.710 130.093 140.739  0.00  0.00    +0.000 C 
ATOM      6  C   UNL     1     103.187 129.782 141.382  0.00  0.00    +0.000 A 
ATOM      7  C   UNL     1     103.236 130.179 142.104  0.00  0.00    +0.000 A 
ATOM      8  C   UNL     1     103.698 129.869 142.713  0.00  0.00    +0.000 A 
ATOM      9  C   UNL     1     103.601 129.076 141.269  0.00  0.00    +0.000 A 
ATOM     10  C   UNL     1     104.062 128.768 141.880  0.00  0.00    +0.000 A 
ATOM     11  C   UNL     1     104.111 129.164 142.601  0.00  0.00    +0.000 A 
ATOM     12  C   UNL     1     103.747 130.266 143.435  0.00  0.00    +0.000 C 
ATOM     13  C   UNL     1     104.476 128.062 141.767  0.00  0.00    +0.000 C 
ENDROOT
BRANCH   3  17
ATOM     14  O   UNL     1     102.110 134.160 141.654  0.00  0.00    +0.000 OA
ATOM     15  O   UNL     1     100.833 134.131 142.016  0.00  0.00    +0.000 OA
ATOM     16  O   UNL     1     100.741 131.205 142.052  0.00  0.00    +0.000 OA
ATOM     17  C   UNL     1     101.916 131.946 141.716  0.00  0.00    +0.000 A 
ATOM     18  C   UNL     1     102.297 132.669 141.605  0.00  0.00    +0.000 A 
ATOM     19  C   UNL     1     101.122 131.928 141.941  0.00  0.00    +0.000 A 
ATOM     20  C   UNL     1     101.884 133.375 141.720  0.00  0.00    +0.000 A 
ATOM     21  C   UNL     1     101.091 133.357 141.945  0.00  0.00    +0.000 A 
ATOM     22  C   UNL     1     100.710 132.633 142.056  0.00  0.00    +0.000 A 
ATOM     23  C   UNL     1     101.461 134.627 141.836  0.00  0.00    +0.000 C 
ENDBRANCH   3  17
BRANCH  11  24
ATOM     24  O   UNL     1     104.573 128.855 143.211  0.00  0.00    +0.000 OA
ATOM     25  C   UNL     1     105.369 129.063 143.272  0.00  0.00    +0.000 C 
ENDBRANCH  11  24
TORSDOF 2
ENDMDL
MODEL 6
REMARK VINA RESULT:      -8.6      8.836      9.949
REMARK  Name = 44257195
REMARK  2 active torsions:
REMARK  status: ('A' for Active; 'I' for Inactive)
REMARK    1  A    between atoms: O_3  and  C_16
REMARK    2  A    between atoms: C_7  and  C_12
REMARK                            x       y       z     vdW  Elec       q    Type
REMARK                         _______ _______ _______ _____ _____    ______ ____
ROOT
ATOM      1  O   UNL     1     102.975 131.664 141.219  0.00  0.00    +0.000 OA
ATOM      2  O   UNL     1     100.710 133.216 142.136  0.00  0.00    +0.000 OA
ATOM      3  C   UNL     1     102.574 130.935 141.436  0.00  0.00    +0.000 C 
ATOM      4  C   UNL     1     101.788 130.970 141.782  0.00  0.00    +0.000 C 
ATOM      5  C   UNL     1     101.413 131.734 141.906  0.00  0.00    +0.000 C 
ATOM      6  C   UNL     1     101.830 132.452 141.683  0.00  0.00    +0.000 A 
ATOM      7  C   UNL     1     102.584 132.418 141.351  0.00  0.00    +0.000 A 
ATOM      8  C   UNL     1     102.974 133.114 141.141  0.00  0.00    +0.000 A 
ATOM      9  C   UNL     1     101.465 133.182 141.805  0.00  0.00    +0.000 A 
ATOM     10  C   UNL     1     101.855 133.878 141.594  0.00  0.00    +0.000 A 
ATOM     11  C   UNL     1     102.609 133.844 141.262  0.00  0.00    +0.000 A 
ATOM     12  C   UNL     1     103.728 133.080 140.809  0.00  0.00    +0.000 C 
ATOM     13  C   UNL     1     101.490 134.608 141.716  0.00  0.00    +0.000 C 
ENDROOT
BRANCH   3  17
ATOM     14  O   UNL     1     104.441 128.796 142.153  0.00  0.00    +0.000 OA
ATOM     15  O   UNL     1     104.123 128.063 141.092  0.00  0.00    +0.000 OA
ATOM     16  O   UNL     1     102.179 130.024 140.118  0.00  0.00    +0.000 OA
ATOM     17  C   UNL     1     102.941 130.206 141.313  0.00  0.00    +0.000 A 
ATOM     18  C   UNL     1     103.505 129.933 141.850  0.00  0.00    +0.000 A 
ATOM     19  C   UNL     1     102.743 129.751 140.655  0.00  0.00    +0.000 A 
ATOM     20  C   UNL     1     103.872 129.204 141.726  0.00  0.00    +0.000 A 
ATOM     21  C   UNL     1     103.674 128.749 141.067  0.00  0.00    +0.000 A 
ATOM     22  C   UNL     1     103.110 129.023 140.532  0.00  0.00    +0.000 A 
ATOM     23  C   UNL     1     104.595 128.092 141.762  0.00  0.00    +0.000 C 
ENDBRANCH   3  17
BRANCH  11  24
ATOM     24  O   UNL     1     102.999 134.540 141.052  0.00  0.00    +0.000 OA
ATOM     25  C   UNL     1     102.914 134.848 140.292  0.00  0.00    +0.000 C 
ENDBRANCH  11  24
TORSDOF 2
ENDMDL
MODEL 7
REMARK VINA RESULT:      -8.5     11.432     13.284
REMARK  Name = 44257195
REMARK  2 active torsions:
REMARK  status: ('A' for Active; 'I' for Inactive)
REMARK    1  A    between atoms: O_3  and  C_16
REMARK    2  A    between atoms: C_7  and  C_12
REMARK                            x       y       z     vdW  Elec       q    Type
REMARK                         _______ _______ _______ _____ _____    ______ ____
ROOT
ATOM      1  O   UNL     1     111.352 126.295 136.063  0.00  0.00    +0.000 OA
ATOM      2  O   UNL     1     108.693 126.972 136.984  0.00  0.00    +0.000 OA
ATOM      3  C   UNL     1     111.449 125.747 136.719  0.00  0.00    +0.000 C 
ATOM      4  C   UNL     1     110.810 125.647 137.285  0.00  0.00    +0.000 C 
ATOM      5  C   UNL     1     110.084 126.097 137.188  0.00  0.00    +0.000 C 
ATOM      6  C   UNL     1     110.006 126.639 136.527  0.00  0.00    +0.000 A 
ATOM      7  C   UNL     1     110.619 126.735 135.983  0.00  0.00    +0.000 A 
ATOM      8  C   UNL     1     110.532 127.259 135.352  0.00  0.00    +0.000 A 
ATOM      9  C   UNL     1     109.306 127.068 136.440  0.00  0.00    +0.000 A 
ATOM     10  C   UNL     1     109.220 127.592 135.809  0.00  0.00    +0.000 A 
ATOM     11  C   UNL     1     109.833 127.688 135.265  0.00  0.00    +0.000 A 
ATOM     12  C   UNL     1     111.145 127.355 134.808  0.00  0.00    +0.000 C 
ATOM     13  C   UNL     1     108.520 128.021 135.722  0.00  0.00    +0.000 C 
ENDROOT
BRANCH   3  17
ATOM     14  O   UNL     1     114.233 125.436 137.570  0.00  0.00    +0.000 OA
ATOM     15  O   UNL     1     114.304 124.185 137.132  0.00  0.00    +0.000 OA
ATOM     16  O   UNL     1     111.537 124.192 136.174  0.00  0.00    +0.000 OA
ATOM     17  C   UNL     1     112.149 125.319 136.804  0.00  0.00    +0.000 A 
ATOM     18  C   UNL     1     112.805 125.669 137.161  0.00  0.00    +0.000 A 
ATOM     19  C   UNL     1     112.194 124.542 136.531  0.00  0.00    +0.000 A 
ATOM     20  C   UNL     1     113.506 125.241 137.246  0.00  0.00    +0.000 A 
ATOM     21  C   UNL     1     113.550 124.464 136.973  0.00  0.00    +0.000 A 
ATOM     22  C   UNL     1     112.893 124.115 136.616  0.00  0.00    +0.000 A 
ATOM     23  C   UNL     1     114.726 124.784 137.500  0.00  0.00    +0.000 C 
ENDBRANCH   3  17
BRANCH  11  24
ATOM     24  O   UNL     1     109.746 128.212 134.634  0.00  0.00    +0.000 OA
ATOM     25  C   UNL     1     109.978 128.999 134.716  0.00  0.00    +0.000 C 
ENDBRANCH  11  24
TORSDOF 2
ENDMDL
MODEL 8
REMARK VINA RESULT:      -8.5     12.763     14.766
REMARK  Name = 44257195
REMARK  2 active torsions:
REMARK  status: ('A' for Active; 'I' for Inactive)
REMARK    1  A    between atoms: O_3  and  C_16
REMARK    2  A    between atoms: C_7  and  C_12
REMARK                            x       y       z     vdW  Elec       q    Type
REMARK                         _______ _______ _______ _____ _____    ______ ____
ROOT
ATOM      1  O   UNL     1     113.470 127.543 136.331  0.00  0.00    +0.000 OA
ATOM      2  O   UNL     1     110.909 126.297 135.819  0.00  0.00    +0.000 OA
ATOM      3  C   UNL     1     113.181 128.288 136.013  0.00  0.00    +0.000 C 
ATOM      4  C   UNL     1     112.375 128.339 135.722  0.00  0.00    +0.000 C 
ATOM      5  C   UNL     1     111.868 127.645 135.752  0.00  0.00    +0.000 C 
ATOM      6  C   UNL     1     112.175 126.910 136.073  0.00  0.00    +0.000 A 
ATOM      7  C   UNL     1     112.949 126.861 136.353  0.00  0.00    +0.000 A 
ATOM      8  C   UNL     1     113.232 126.149 136.659  0.00  0.00    +0.000 A 
ATOM      9  C   UNL     1     111.683 126.247 136.099  0.00  0.00    +0.000 A 
ATOM     10  C   UNL     1     111.967 125.536 136.405  0.00  0.00    +0.000 A 
ATOM     11  C   UNL     1     112.741 125.487 136.685  0.00  0.00    +0.000 A 
ATOM     12  C   UNL     1     114.006 126.099 136.939  0.00  0.00    +0.000 C 
ATOM     13  C   UNL     1     111.475 124.873 136.431  0.00  0.00    +0.000 C 
ENDROOT
BRANCH   3  17
ATOM     14  O   UNL     1     115.236 129.970 134.779  0.00  0.00    +0.000 OA
ATOM     15  O   UNL     1     115.204 130.859 135.764  0.00  0.00    +0.000 OA
ATOM     16  O   UNL     1     113.141 129.393 137.238  0.00  0.00    +0.000 OA
ATOM     17  C   UNL     1     113.674 128.949 135.988  0.00  0.00    +0.000 A 
ATOM     18  C   UNL     1     114.187 129.057 135.351  0.00  0.00    +0.000 A 
ATOM     19  C   UNL     1     113.654 129.502 136.601  0.00  0.00    +0.000 A 
ATOM     20  C   UNL     1     114.680 129.718 135.327  0.00  0.00    +0.000 A 
ATOM     21  C   UNL     1     114.661 130.271 135.939  0.00  0.00    +0.000 A 
ATOM     22  C   UNL     1     114.147 130.162 136.576  0.00  0.00    +0.000 A 
ATOM     23  C   UNL     1     115.559 130.674 135.049  0.00  0.00    +0.000 C 
ENDBRANCH   3  17
BRANCH  11  24
ATOM     24  O   UNL     1     113.024 124.775 136.992  0.00  0.00    +0.000 OA
ATOM     25  C   UNL     1     113.410 124.238 136.499  0.00  0.00    +0.000 C 
ENDBRANCH  11  24
TORSDOF 2
ENDMDL
MODEL 9
REMARK VINA RESULT:      -8.4     12.833     14.859
REMARK  Name = 44257195
REMARK  2 active torsions:
REMARK  status: ('A' for Active; 'I' for Inactive)
REMARK    1  A    between atoms: O_3  and  C_16
REMARK    2  A    between atoms: C_7  and  C_12
REMARK                            x       y       z     vdW  Elec       q    Type
REMARK                         _______ _______ _______ _____ _____    ______ ____
ROOT
ATOM      1  O   UNL     1     112.623 127.954 135.817  0.00  0.00    +0.000 OA
ATOM      2  O   UNL     1     112.654 125.199 136.705  0.00  0.00    +0.000 OA
ATOM      3  C   UNL     1     113.421 128.068 136.116  0.00  0.00    +0.000 C 
ATOM      4  C   UNL     1     113.829 127.414 136.495  0.00  0.00    +0.000 C 
ATOM      5  C   UNL     1     113.434 126.654 136.571  0.00  0.00    +0.000 C 
ATOM      6  C   UNL     1     112.636 126.560 136.266  0.00  0.00    +0.000 A 
ATOM      7  C   UNL     1     112.244 127.188 135.902  0.00  0.00    +0.000 A 
ATOM      8  C   UNL     1     111.478 127.084 135.613  0.00  0.00    +0.000 A 
ATOM      9  C   UNL     1     112.262 125.827 136.341  0.00  0.00    +0.000 A 
ATOM     10  C   UNL     1     111.496 125.725 136.052  0.00  0.00    +0.000 A 
ATOM     11  C   UNL     1     111.104 126.353 135.688  0.00  0.00    +0.000 A 
ATOM     12  C   UNL     1     111.087 127.712 135.249  0.00  0.00    +0.000 C 
ATOM     13  C   UNL     1     111.122 124.993 136.128  0.00  0.00    +0.000 C 
ENDROOT
BRANCH   3  17
ATOM     14  O   UNL     1     115.034 130.041 134.675  0.00  0.00    +0.000 OA
ATOM     15  O   UNL     1     114.954 130.932 135.656  0.00  0.00    +0.000 OA
ATOM     16  O   UNL     1     113.321 129.175 137.336  0.00  0.00    +0.000 OA
ATOM     17  C   UNL     1     113.793 128.801 136.040  0.00  0.00    +0.000 A 
ATOM     18  C   UNL     1     114.214 128.980 135.353  0.00  0.00    +0.000 A 
ATOM     19  C   UNL     1     113.743 129.354 136.649  0.00  0.00    +0.000 A 
ATOM     20  C   UNL     1     114.586 129.713 135.277  0.00  0.00    +0.000 A 
ATOM     21  C   UNL     1     114.536 130.266 135.887  0.00  0.00    +0.000 A 
ATOM     22  C   UNL     1     114.114 130.086 136.573  0.00  0.00    +0.000 A 
ATOM     23  C   UNL     1     115.261 130.794 134.909  0.00  0.00    +0.000 C 
ENDBRANCH   3  17
BRANCH  11  24
ATOM     24  O   UNL     1     110.338 126.249 135.400  0.00  0.00    +0.000 OA
ATOM     25  C   UNL     1     110.219 126.037 134.612  0.00  0.00    +0.000 C 
ENDBRANCH  11  24
TORSDOF 2
ENDMDL
MODEL 10
REMARK VINA RESULT:      -8.3     10.033     11.647
REMARK  Name = 44257195
REMARK  2 active torsions:
REMARK  status: ('A' for Active; 'I' for Inactive)
REMARK    1  A    between atoms: O_3  and  C_16
REMARK    2  A    between atoms: C_7  and  C_12
REMARK                            x       y       z     vdW  Elec       q    Type
REMARK                         _______ _______ _______ _____ _____    ______ ____
ROOT
ATOM      1  O   UNL     1     111.805 126.136 138.473  0.00  0.00    +0.000 OA
ATOM      2  O   UNL     1     114.336 126.667 139.773  0.00  0.00    +0.000 OA
ATOM      3  C   UNL     1     112.212 125.937 137.742  0.00  0.00    +0.000 C 
ATOM      4  C   UNL     1     113.070 125.975 137.711  0.00  0.00    +0.000 C 
ATOM      5  C   UNL     1     113.509 126.211 138.412  0.00  0.00    +0.000 C 
ATOM      6  C   UNL     1     113.085 126.405 139.133  0.00  0.00    +0.000 A 
ATOM      7  C   UNL     1     112.261 126.369 139.162  0.00  0.00    +0.000 A 
ATOM      8  C   UNL     1     111.865 126.559 139.861  0.00  0.00    +0.000 A 
ATOM      9  C   UNL     1     113.512 126.631 139.802  0.00  0.00    +0.000 A 
ATOM     10  C   UNL     1     113.115 126.820 140.500  0.00  0.00    +0.000 A 
ATOM     11  C   UNL     1     112.292 126.784 140.529  0.00  0.00    +0.000 A 
ATOM     12  C   UNL     1     111.041 126.523 139.890  0.00  0.00    +0.000 C 
ATOM     13  C   UNL     1     113.543 127.046 141.169  0.00  0.00    +0.000 C 
ENDROOT
BRANCH   3  17
ATOM     14  O   UNL     1     110.672 126.496 135.315  0.00  0.00    +0.000 OA
ATOM     15  O   UNL     1     110.483 125.208 135.051  0.00  0.00    +0.000 OA
ATOM     16  O   UNL     1     111.978 124.338 137.413  0.00  0.00    +0.000 OA
ATOM     17  C   UNL     1     111.783 125.712 137.075  0.00  0.00    +0.000 A 
ATOM     18  C   UNL     1     111.471 126.287 136.571  0.00  0.00    +0.000 A 
ATOM     19  C   UNL     1     111.665 124.912 136.910  0.00  0.00    +0.000 A 
ATOM     20  C   UNL     1     111.041 126.061 135.904  0.00  0.00    +0.000 A 
ATOM     21  C   UNL     1     110.924 125.261 135.740  0.00  0.00    +0.000 A 
ATOM     22  C   UNL     1     111.236 124.687 136.244  0.00  0.00    +0.000 A 
ATOM     23  C   UNL     1     110.328 125.969 134.789  0.00  0.00    +0.000 C 
ENDBRANCH   3  17
BRANCH  11  24
ATOM     24  O   UNL     1     111.895 126.974 141.228  0.00  0.00    +0.000 OA
ATOM     25  C   UNL     1     111.663 127.751 141.373  0.00  0.00    +0.000 C 
ENDBRANCH  11  24
TORSDOF 2
ENDMDL
