MODEL 1
REMARK VINA RESULT:     -11.0      0.000      0.000
REMARK  Name = 131833677
REMARK  6 active torsions:
REMARK  status: ('A' for Active; 'I' for Inactive)
REMARK    1  A    between atoms: S_1  and  O_14
REMARK    2  A    between atoms: O_2  and  C_19
REMARK    3  A    between atoms: O_2  and  C_20
REMARK    4  A    between atoms: O_14  and  C_43
REMARK    5  A    between atoms: C_23  and  C_29
REMARK    6  A    between atoms: C_39  and  C_40
REMARK                            x       y       z     vdW  Elec       q    Type
REMARK                         _______ _______ _______ _____ _____    ______ ____
ROOT
ATOM      1  O   UNL     1     113.307 126.017 139.404  0.00  0.00    +0.000 OA
ATOM      2  O   UNL     1     112.842 127.462 136.982  0.00  0.00    +0.000 OA
ATOM      3  O   UNL     1     113.592 128.897 139.365  0.00  0.00    +0.000 OA
ATOM      4  O   UNL     1     113.684 126.699 140.619  0.00  0.00    +0.000 OA
ATOM      5  C   UNL     1     113.075 126.740 138.193  0.00  0.00    +0.000 A 
ATOM      6  C   UNL     1     113.276 126.732 138.993  0.00  0.00    +0.000 A 
ATOM      7  C   UNL     1     113.044 127.455 137.783  0.00  0.00    +0.000 A 
ATOM      8  C   UNL     1     113.447 127.439 139.382  0.00  0.00    +0.000 A 
ATOM      9  C   UNL     1     113.214 128.161 138.172  0.00  0.00    +0.000 A 
ATOM     10  C   UNL     1     113.416 128.154 138.972  0.00  0.00    +0.000 A 
ATOM     11  C   UNL     1     113.656 127.417 140.216  0.00  0.00    +0.000 A 
ATOM     12  C   UNL     1     113.835 128.151 140.627  0.00  0.00    +0.000 A 
ATOM     13  C   UNL     1     113.803 128.896 140.199  0.00  0.00    +0.000 A 
ENDROOT
BRANCH   5  18
ATOM     14  O   UNL     1     113.479 125.668 137.339  0.00  0.00    +0.000 OA
ATOM     15  O   UNL     1     111.239 124.640 137.568  0.00  0.00    +0.000 OA
ATOM     16  O   UNL     1     112.391 123.911 136.637  0.00  0.00    +0.000 OA
ATOM     17  C   UNL     1     112.157 125.690 137.880  0.00  0.00    +0.000 C 
ATOM     18  C   UNL     1     112.904 126.032 137.804  0.00  0.00    +0.000 C 
ATOM     19  C   UNL     1     111.986 124.982 137.491  0.00  0.00    +0.000 C 
ATOM     20  C   UNL     1     113.308 124.961 136.950  0.00  0.00    +0.000 C 
ATOM     21  C   UNL     1     112.562 124.618 137.026  0.00  0.00    +0.000 C 
ATOM     22  C   UNL     1     113.884 124.596 136.485  0.00  0.00    +0.000 C 
BRANCH  17  23
ATOM     23  O   UNL     1     111.581 126.055 138.346  0.00  0.00    +0.000 OA
BRANCH  23  28
ATOM     24  O   UNL     1     110.749 126.381 137.231  0.00  0.00    +0.000 OA
ATOM     25  O   UNL     1     110.253 126.007 139.323  0.00  0.00    +0.000 OA
ATOM     26  O   UNL     1     108.757 126.310 138.697  0.00  0.00    +0.000 OA
ATOM     27  O   UNL     1     108.589 126.660 137.093  0.00  0.00    +0.000 OA
ATOM     28  C   UNL     1     110.833 126.206 138.032  0.00  0.00    +0.000 C 
ATOM     29  C   UNL     1     110.169 126.183 138.520  0.00  0.00    +0.000 C 
ATOM     30  C   UNL     1     109.421 126.334 138.208  0.00  0.00    +0.000 C 
ATOM     31  C   UNL     1     109.338 126.509 137.406  0.00  0.00    +0.000 C 
ATOM     32  C   UNL     1     110.002 126.533 136.918  0.00  0.00    +0.000 C 
ATOM     33  C   UNL     1     109.917 126.708 136.116  0.00  0.00    +0.000 C 
ENDBRANCH  23  28
ENDBRANCH  17  23
ENDBRANCH   5  18
BRANCH  13  35
ATOM     34  O   UNL     1     114.485 131.729 141.745  0.00  0.00    +0.000 OA
ATOM     35  C   UNL     1     113.973 129.604 140.586  0.00  0.00    +0.000 A 
ATOM     36  C   UNL     1     113.379 130.004 140.995  0.00  0.00    +0.000 A 
ATOM     37  C   UNL     1     114.738 129.913 140.564  0.00  0.00    +0.000 A 
ATOM     38  C   UNL     1     113.550 130.713 141.381  0.00  0.00    +0.000 A 
ATOM     39  C   UNL     1     114.909 130.620 140.950  0.00  0.00    +0.000 A 
ATOM     40  C   UNL     1     114.315 131.021 141.359  0.00  0.00    +0.000 A 
BRANCH  38  41
ATOM     41  O   UNL     1     112.955 131.113 141.790  0.00  0.00    +0.000 OA
BRANCH  41  42
ATOM     42  S   UNL     1     112.250 130.728 141.971  0.00  0.00    +0.000 S 
ATOM     43  O   UNL     1     111.543 130.343 142.153  0.00  0.00    +0.000 OA
ATOM     44  O   UNL     1     112.587 130.435 142.665  0.00  0.00    +0.000 OA
ATOM     45  O   UNL     1     111.911 131.021 141.278  0.00  0.00    +0.000 OA
ENDBRANCH  41  42
ENDBRANCH  38  41
ENDBRANCH  13  35
TORSDOF 6
ENDMDL
MODEL 2
REMARK VINA RESULT:     -10.9      7.471      9.269
REMARK  Name = 131833677
REMARK  6 active torsions:
REMARK  status: ('A' for Active; 'I' for Inactive)
REMARK    1  A    between atoms: S_1  and  O_14
REMARK    2  A    between atoms: O_2  and  C_19
REMARK    3  A    between atoms: O_2  and  C_20
REMARK    4  A    between atoms: O_14  and  C_43
REMARK    5  A    between atoms: C_23  and  C_29
REMARK    6  A    between atoms: C_39  and  C_40
REMARK                            x       y       z     vdW  Elec       q    Type
REMARK                         _______ _______ _______ _____ _____    ______ ____
ROOT
ATOM      1  O   UNL     1     106.403 128.201 144.676  0.00  0.00    +0.000 OA
ATOM      2  O   UNL     1     105.443 125.854 143.357  0.00  0.00    +0.000 OA
ATOM      3  O   UNL     1     106.504 125.644 146.028  0.00  0.00    +0.000 OA
ATOM      4  O   UNL     1     106.942 128.137 146.013  0.00  0.00    +0.000 OA
ATOM      5  C   UNL     1     105.923 127.027 144.017  0.00  0.00    +0.000 A 
ATOM      6  C   UNL     1     106.259 127.389 144.678  0.00  0.00    +0.000 A 
ATOM      7  C   UNL     1     105.779 126.215 144.019  0.00  0.00    +0.000 A 
ATOM      8  C   UNL     1     106.452 126.937 145.341  0.00  0.00    +0.000 A 
ATOM      9  C   UNL     1     105.972 125.764 144.682  0.00  0.00    +0.000 A 
ATOM     10  C   UNL     1     106.308 126.124 145.344  0.00  0.00    +0.000 A 
ATOM     11  C   UNL     1     106.802 127.325 146.023  0.00  0.00    +0.000 A 
ATOM     12  C   UNL     1     107.004 126.860 146.718  0.00  0.00    +0.000 A 
ATOM     13  C   UNL     1     106.855 126.014 146.720  0.00  0.00    +0.000 A 
ENDROOT
BRANCH   5  18
ATOM     14  O   UNL     1     105.056 127.954 143.359  0.00  0.00    +0.000 OA
ATOM     15  O   UNL     1     106.502 127.882 141.352  0.00  0.00    +0.000 OA
ATOM     16  O   UNL     1     105.154 128.833 141.364  0.00  0.00    +0.000 OA
ATOM     17  C   UNL     1     106.213 127.455 142.685  0.00  0.00    +0.000 C 
ATOM     18  C   UNL     1     105.730 127.479 143.353  0.00  0.00    +0.000 C 
ATOM     19  C   UNL     1     106.020 127.906 142.021  0.00  0.00    +0.000 C 
ATOM     20  C   UNL     1     104.864 128.405 142.696  0.00  0.00    +0.000 C 
ATOM     21  C   UNL     1     105.346 128.382 142.027  0.00  0.00    +0.000 C 
ATOM     22  C   UNL     1     104.190 128.880 142.702  0.00  0.00    +0.000 C 
BRANCH  17  23
ATOM     23  O   UNL     1     106.887 126.979 142.679  0.00  0.00    +0.000 OA
BRANCH  23  28
ATOM     24  O   UNL     1     107.823 128.059 142.665  0.00  0.00    +0.000 OA
ATOM     25  O   UNL     1     107.913 126.079 141.752  0.00  0.00    +0.000 OA
ATOM     26  O   UNL     1     109.361 126.708 141.274  0.00  0.00    +0.000 OA
ATOM     27  O   UNL     1     109.784 128.238 141.723  0.00  0.00    +0.000 OA
ATOM     28  C   UNL     1     107.611 127.295 142.440  0.00  0.00    +0.000 C 
ATOM     29  C   UNL     1     108.124 126.844 141.977  0.00  0.00    +0.000 C 
ATOM     30  C   UNL     1     108.848 127.158 141.737  0.00  0.00    +0.000 C 
ATOM     31  C   UNL     1     109.059 127.923 141.962  0.00  0.00    +0.000 C 
ATOM     32  C   UNL     1     108.547 128.374 142.426  0.00  0.00    +0.000 C 
ATOM     33  C   UNL     1     108.759 129.139 142.650  0.00  0.00    +0.000 C 
ENDBRANCH  23  28
ENDBRANCH  17  23
ENDBRANCH   5  18
BRANCH  13  35
ATOM     34  O   UNL     1     107.622 124.199 149.367  0.00  0.00    +0.000 OA
ATOM     35  C   UNL     1     107.046 125.560 147.382  0.00  0.00    +0.000 A 
ATOM     36  C   UNL     1     106.453 125.320 147.903  0.00  0.00    +0.000 A 
ATOM     37  C   UNL     1     107.831 125.346 147.522  0.00  0.00    +0.000 A 
ATOM     38  C   UNL     1     106.646 124.866 148.565  0.00  0.00    +0.000 A 
ATOM     39  C   UNL     1     108.022 124.893 148.183  0.00  0.00    +0.000 A 
ATOM     40  C   UNL     1     107.431 124.653 148.705  0.00  0.00    +0.000 A 
BRANCH  38  41
ATOM     41  O   UNL     1     106.053 124.626 149.087  0.00  0.00    +0.000 OA
BRANCH  41  42
ATOM     42  S   UNL     1     105.334 125.028 149.105  0.00  0.00    +0.000 S 
ATOM     43  O   UNL     1     104.613 125.429 149.122  0.00  0.00    +0.000 OA
ATOM     44  O   UNL     1     105.006 124.465 148.597  0.00  0.00    +0.000 OA
ATOM     45  O   UNL     1     105.660 125.591 149.612  0.00  0.00    +0.000 OA
ENDBRANCH  41  42
ENDBRANCH  38  41
ENDBRANCH  13  35
TORSDOF 6
ENDMDL
MODEL 3
REMARK VINA RESULT:     -10.9      2.868      4.819
REMARK  Name = 131833677
REMARK  6 active torsions:
REMARK  status: ('A' for Active; 'I' for Inactive)
REMARK    1  A    between atoms: S_1  and  O_14
REMARK    2  A    between atoms: O_2  and  C_19
REMARK    3  A    between atoms: O_2  and  C_20
REMARK    4  A    between atoms: O_14  and  C_43
REMARK    5  A    between atoms: C_23  and  C_29
REMARK    6  A    between atoms: C_39  and  C_40
REMARK                            x       y       z     vdW  Elec       q    Type
REMARK                         _______ _______ _______ _____ _____    ______ ____
ROOT
ATOM      1  O   UNL     1     109.516 126.468 136.570  0.00  0.00    +0.000 OA
ATOM      2  O   UNL     1     112.259 127.255 136.726  0.00  0.00    +0.000 OA
ATOM      3  O   UNL     1     110.267 129.204 135.993  0.00  0.00    +0.000 OA
ATOM      4  O   UNL     1     108.488 127.415 136.206  0.00  0.00    +0.000 OA
ATOM      5  C   UNL     1     110.887 126.862 136.647  0.00  0.00    +0.000 A 
ATOM      6  C   UNL     1     110.097 127.049 136.501  0.00  0.00    +0.000 A 
ATOM      7  C   UNL     1     111.469 127.443 136.579  0.00  0.00    +0.000 A 
ATOM      8  C   UNL     1     109.889 127.819 136.285  0.00  0.00    +0.000 A 
ATOM      9  C   UNL     1     111.261 128.211 136.364  0.00  0.00    +0.000 A 
ATOM     10  C   UNL     1     110.471 128.400 136.217  0.00  0.00    +0.000 A 
ATOM     11  C   UNL     1     109.063 128.001 136.136  0.00  0.00    +0.000 A 
ATOM     12  C   UNL     1     108.840 128.801 135.911  0.00  0.00    +0.000 A 
ATOM     13  C   UNL     1     109.446 129.406 135.839  0.00  0.00    +0.000 A 
ENDROOT
BRANCH   5  18
ATOM     14  O   UNL     1     111.386 125.570 136.295  0.00  0.00    +0.000 OA
ATOM     15  O   UNL     1     111.138 124.834 138.645  0.00  0.00    +0.000 OA
ATOM     16  O   UNL     1     111.719 123.787 137.509  0.00  0.00    +0.000 OA
ATOM     17  C   UNL     1     111.012 125.848 137.646  0.00  0.00    +0.000 C 
ATOM     18  C   UNL     1     111.095 126.093 136.863  0.00  0.00    +0.000 C 
ATOM     19  C   UNL     1     111.221 125.078 137.862  0.00  0.00    +0.000 C 
ATOM     20  C   UNL     1     111.594 124.801 136.511  0.00  0.00    +0.000 C 
ATOM     21  C   UNL     1     111.511 124.555 137.294  0.00  0.00    +0.000 C 
ATOM     22  C   UNL     1     111.884 124.278 135.943  0.00  0.00    +0.000 C 
BRANCH  17  23
ATOM     23  O   UNL     1     110.722 126.371 138.214  0.00  0.00    +0.000 OA
BRANCH  23  28
ATOM     24  O   UNL     1     111.947 126.484 138.941  0.00  0.00    +0.000 OA
ATOM     25  O   UNL     1     109.873 126.533 139.619  0.00  0.00    +0.000 OA
ATOM     26  O   UNL     1     110.673 126.727 141.049  0.00  0.00    +0.000 OA
ATOM     27  O   UNL     1     112.323 126.758 141.073  0.00  0.00    +0.000 OA
ATOM     28  C   UNL     1     111.123 126.468 138.929  0.00  0.00    +0.000 C 
ATOM     29  C   UNL     1     110.698 126.549 139.631  0.00  0.00    +0.000 C 
ATOM     30  C   UNL     1     111.098 126.646 140.346  0.00  0.00    +0.000 C 
ATOM     31  C   UNL     1     111.923 126.661 140.358  0.00  0.00    +0.000 C 
ATOM     32  C   UNL     1     112.347 126.580 139.655  0.00  0.00    +0.000 C 
ATOM     33  C   UNL     1     113.172 126.596 139.668  0.00  0.00    +0.000 C 
ENDBRANCH  23  28
ENDBRANCH  17  23
ENDBRANCH   5  18
BRANCH  13  35
ATOM     34  O   UNL     1     108.625 132.483 134.977  0.00  0.00    +0.000 OA
ATOM     35  C   UNL     1     109.241 130.175 135.624  0.00  0.00    +0.000 A 
ATOM     36  C   UNL     1     109.048 130.728 136.205  0.00  0.00    +0.000 A 
ATOM     37  C   UNL     1     109.229 130.392 134.828  0.00  0.00    +0.000 A 
ATOM     38  C   UNL     1     108.842 131.498 135.989  0.00  0.00    +0.000 A 
ATOM     39  C   UNL     1     109.024 131.160 134.613  0.00  0.00    +0.000 A 
ATOM     40  C   UNL     1     108.830 131.714 135.193  0.00  0.00    +0.000 A 
BRANCH  38  41
ATOM     41  O   UNL     1     108.649 132.051 136.570  0.00  0.00    +0.000 OA
BRANCH  41  42
ATOM     42  S   UNL     1     108.357 131.799 137.298  0.00  0.00    +0.000 S 
ATOM     43  O   UNL     1     108.064 131.546 138.026  0.00  0.00    +0.000 OA
ATOM     44  O   UNL     1     107.601 131.732 136.972  0.00  0.00    +0.000 OA
ATOM     45  O   UNL     1     109.111 131.866 137.624  0.00  0.00    +0.000 OA
ENDBRANCH  41  42
ENDBRANCH  38  41
ENDBRANCH  13  35
TORSDOF 6
ENDMDL
MODEL 4
REMARK VINA RESULT:     -10.8      8.340     10.253
REMARK  Name = 131833677
REMARK  6 active torsions:
REMARK  status: ('A' for Active; 'I' for Inactive)
REMARK    1  A    between atoms: S_1  and  O_14
REMARK    2  A    between atoms: O_2  and  C_19
REMARK    3  A    between atoms: O_2  and  C_20
REMARK    4  A    between atoms: O_14  and  C_43
REMARK    5  A    between atoms: C_23  and  C_29
REMARK    6  A    between atoms: C_39  and  C_40
REMARK                            x       y       z     vdW  Elec       q    Type
REMARK                         _______ _______ _______ _____ _____    ______ ____
ROOT
ATOM      1  O   UNL     1     105.720 127.253 146.429  0.00  0.00    +0.000 OA
ATOM      2  O   UNL     1     106.421 125.116 144.666  0.00  0.00    +0.000 OA
ATOM      3  O   UNL     1     105.458 127.600 143.567  0.00  0.00    +0.000 OA
ATOM      4  O   UNL     1     105.234 128.513 145.918  0.00  0.00    +0.000 OA
ATOM      5  C   UNL     1     106.070 126.185 145.547  0.00  0.00    +0.000 A 
ATOM      6  C   UNL     1     105.794 126.953 145.664  0.00  0.00    +0.000 A 
ATOM      7  C   UNL     1     106.144 125.885 144.782  0.00  0.00    +0.000 A 
ATOM      8  C   UNL     1     105.592 127.422 145.015  0.00  0.00    +0.000 A 
ATOM      9  C   UNL     1     105.942 126.353 144.134  0.00  0.00    +0.000 A 
ATOM     10  C   UNL     1     105.666 127.122 144.250  0.00  0.00    +0.000 A 
ATOM     11  C   UNL     1     105.305 128.221 145.151  0.00  0.00    +0.000 A 
ATOM     12  C   UNL     1     105.093 128.714 144.479  0.00  0.00    +0.000 A 
ATOM     13  C   UNL     1     105.170 128.401 143.682  0.00  0.00    +0.000 A 
ENDROOT
BRANCH   5  18
ATOM     14  O   UNL     1     106.995 125.830 146.578  0.00  0.00    +0.000 OA
ATOM     15  O   UNL     1     105.434 124.083 147.376  0.00  0.00    +0.000 OA
ATOM     16  O   UNL     1     106.879 124.311 148.140  0.00  0.00    +0.000 OA
ATOM     17  C   UNL     1     105.752 125.134 146.461  0.00  0.00    +0.000 C 
ATOM     18  C   UNL     1     106.273 125.716 146.196  0.00  0.00    +0.000 C 
ATOM     19  C   UNL     1     105.955 124.665 147.110  0.00  0.00    +0.000 C 
ATOM     20  C   UNL     1     107.197 125.362 147.226  0.00  0.00    +0.000 C 
ATOM     21  C   UNL     1     106.677 124.779 147.492  0.00  0.00    +0.000 C 
ATOM     22  C   UNL     1     107.919 125.476 147.608  0.00  0.00    +0.000 C 
BRANCH  17  23
ATOM     23  O   UNL     1     105.030 125.020 146.079  0.00  0.00    +0.000 OA
BRANCH  23  28
ATOM     24  O   UNL     1     104.230 125.480 147.170  0.00  0.00    +0.000 OA
ATOM     25  O   UNL     1     103.840 123.960 145.653  0.00  0.00    +0.000 OA
ATOM     26  O   UNL     1     102.444 123.889 146.531  0.00  0.00    +0.000 OA
ATOM     27  O   UNL     1     102.239 124.880 147.835  0.00  0.00    +0.000 OA
ATOM     28  C   UNL     1     104.332 124.985 146.519  0.00  0.00    +0.000 C 
ATOM     29  C   UNL     1     103.737 124.455 146.306  0.00  0.00    +0.000 C 
ATOM     30  C   UNL     1     103.040 124.420 146.744  0.00  0.00    +0.000 C 
ATOM     31  C   UNL     1     102.937 124.915 147.396  0.00  0.00    +0.000 C 
ATOM     32  C   UNL     1     103.533 125.445 147.609  0.00  0.00    +0.000 C 
ATOM     33  C   UNL     1     103.429 125.940 148.261  0.00  0.00    +0.000 C 
ENDBRANCH  23  28
ENDBRANCH  17  23
ENDBRANCH   5  18
BRANCH  13  35
ATOM     34  O   UNL     1     104.362 130.266 141.083  0.00  0.00    +0.000 OA
ATOM     35  C   UNL     1     104.968 128.868 143.032  0.00  0.00    +0.000 A 
ATOM     36  C   UNL     1     105.555 129.270 142.615  0.00  0.00    +0.000 A 
ATOM     37  C   UNL     1     104.179 128.932 142.800  0.00  0.00    +0.000 A 
ATOM     38  C   UNL     1     105.353 129.736 141.964  0.00  0.00    +0.000 A 
ATOM     39  C   UNL     1     103.977 129.398 142.150  0.00  0.00    +0.000 A 
ATOM     40  C   UNL     1     104.564 129.800 141.733  0.00  0.00    +0.000 A 
BRANCH  38  41
ATOM     41  O   UNL     1     105.940 130.138 141.547  0.00  0.00    +0.000 OA
BRANCH  41  42
ATOM     42  S   UNL     1     106.734 130.001 141.719  0.00  0.00    +0.000 S 
ATOM     43  O   UNL     1     107.529 129.864 141.891  0.00  0.00    +0.000 OA
ATOM     44  O   UNL     1     106.741 129.368 141.190  0.00  0.00    +0.000 OA
ATOM     45  O   UNL     1     106.729 130.634 142.248  0.00  0.00    +0.000 OA
ENDBRANCH  41  42
ENDBRANCH  38  41
ENDBRANCH  13  35
TORSDOF 6
ENDMDL
MODEL 5
REMARK VINA RESULT:     -10.7      1.990      5.905
REMARK  Name = 131833677
REMARK  6 active torsions:
REMARK  status: ('A' for Active; 'I' for Inactive)
REMARK    1  A    between atoms: S_1  and  O_14
REMARK    2  A    between atoms: O_2  and  C_19
REMARK    3  A    between atoms: O_2  and  C_20
REMARK    4  A    between atoms: O_14  and  C_43
REMARK    5  A    between atoms: C_23  and  C_29
REMARK    6  A    between atoms: C_39  and  C_40
REMARK                            x       y       z     vdW  Elec       q    Type
REMARK                         _______ _______ _______ _____ _____    ______ ____
ROOT
ATOM      1  O   UNL     1     112.585 129.183 139.289  0.00  0.00    +0.000 OA
ATOM      2  O   UNL     1     114.019 127.771 141.318  0.00  0.00    +0.000 OA
ATOM      3  O   UNL     1     112.942 126.319 139.074  0.00  0.00    +0.000 OA
ATOM      4  O   UNL     1     112.030 128.492 138.150  0.00  0.00    +0.000 OA
ATOM      5  C   UNL     1     113.302 128.476 140.303  0.00  0.00    +0.000 A 
ATOM      6  C   UNL     1     112.883 128.476 139.592  0.00  0.00    +0.000 A 
ATOM      7  C   UNL     1     113.600 127.770 140.607  0.00  0.00    +0.000 A 
ATOM      8  C   UNL     1     112.763 127.768 139.185  0.00  0.00    +0.000 A 
ATOM      9  C   UNL     1     113.480 127.063 140.200  0.00  0.00    +0.000 A 
ATOM     10  C   UNL     1     113.061 127.062 139.489  0.00  0.00    +0.000 A 
ATOM     11  C   UNL     1     112.325 127.782 138.446  0.00  0.00    +0.000 A 
ATOM     12  C   UNL     1     112.196 127.047 138.017  0.00  0.00    +0.000 A 
ATOM     13  C   UNL     1     112.507 126.311 138.333  0.00  0.00    +0.000 A 
ENDROOT
BRANCH   5  18
ATOM     14  O   UNL     1     114.002 129.713 140.456  0.00  0.00    +0.000 OA
ATOM     15  O   UNL     1     112.623 130.248 142.440  0.00  0.00    +0.000 OA
ATOM     16  O   UNL     1     113.783 131.306 141.932  0.00  0.00    +0.000 OA
ATOM     17  C   UNL     1     112.963 129.362 141.372  0.00  0.00    +0.000 C 
ATOM     18  C   UNL     1     113.423 129.184 140.710  0.00  0.00    +0.000 C 
ATOM     19  C   UNL     1     113.083 130.070 141.779  0.00  0.00    +0.000 C 
ATOM     20  C   UNL     1     114.122 130.420 140.863  0.00  0.00    +0.000 C 
ATOM     21  C   UNL     1     113.663 130.599 141.525  0.00  0.00    +0.000 C 
ATOM     22  C   UNL     1     114.702 130.949 140.609  0.00  0.00    +0.000 C 
BRANCH  17  23
ATOM     23  O   UNL     1     112.383 128.833 141.626  0.00  0.00    +0.000 OA
BRANCH  23  28
ATOM     24  O   UNL     1     111.286 129.684 141.285  0.00  0.00    +0.000 OA
ATOM     25  O   UNL     1     111.504 128.198 142.869  0.00  0.00    +0.000 OA
ATOM     26  O   UNL     1     109.968 128.730 143.150  0.00  0.00    +0.000 OA
ATOM     27  O   UNL     1     109.311 129.899 142.188  0.00  0.00    +0.000 OA
ATOM     28  C   UNL     1     111.615 129.100 141.766  0.00  0.00    +0.000 C 
ATOM     29  C   UNL     1     111.175 128.782 142.388  0.00  0.00    +0.000 C 
ATOM     30  C   UNL     1     110.407 129.048 142.529  0.00  0.00    +0.000 C 
ATOM     31  C   UNL     1     110.079 129.632 142.047  0.00  0.00    +0.000 C 
ATOM     32  C   UNL     1     110.519 129.950 141.426  0.00  0.00    +0.000 C 
ATOM     33  C   UNL     1     110.190 130.534 140.945  0.00  0.00    +0.000 C 
ENDBRANCH  23  28
ENDBRANCH  17  23
ENDBRANCH   5  18
BRANCH  13  35
ATOM     34  O   UNL     1     112.030 123.476 136.713  0.00  0.00    +0.000 OA
ATOM     35  C   UNL     1     112.388 125.602 137.928  0.00  0.00    +0.000 A 
ATOM     36  C   UNL     1     113.015 125.246 137.527  0.00  0.00    +0.000 A 
ATOM     37  C   UNL     1     111.642 125.250 137.924  0.00  0.00    +0.000 A 
ATOM     38  C   UNL     1     112.895 124.537 137.122  0.00  0.00    +0.000 A 
ATOM     39  C   UNL     1     111.523 124.542 137.519  0.00  0.00    +0.000 A 
ATOM     40  C   UNL     1     112.149 124.185 137.118  0.00  0.00    +0.000 A 
BRANCH  38  41
ATOM     41  O   UNL     1     113.522 124.181 136.721  0.00  0.00    +0.000 OA
BRANCH  41  42
ATOM     42  S   UNL     1     114.252 124.560 136.680  0.00  0.00    +0.000 S 
ATOM     43  O   UNL     1     114.984 124.939 136.639  0.00  0.00    +0.000 OA
ATOM     44  O   UNL     1     114.485 124.188 137.379  0.00  0.00    +0.000 OA
ATOM     45  O   UNL     1     114.021 124.931 135.980  0.00  0.00    +0.000 OA
ENDBRANCH  41  42
ENDBRANCH  38  41
ENDBRANCH  13  35
TORSDOF 6
ENDMDL
MODEL 6
REMARK VINA RESULT:     -10.7      3.257      6.369
REMARK  Name = 131833677
REMARK  6 active torsions:
REMARK  status: ('A' for Active; 'I' for Inactive)
REMARK    1  A    between atoms: S_1  and  O_14
REMARK    2  A    between atoms: O_2  and  C_19
REMARK    3  A    between atoms: O_2  and  C_20
REMARK    4  A    between atoms: O_14  and  C_43
REMARK    5  A    between atoms: C_23  and  C_29
REMARK    6  A    between atoms: C_39  and  C_40
REMARK                            x       y       z     vdW  Elec       q    Type
REMARK                         _______ _______ _______ _____ _____    ______ ____
ROOT
ATOM      1  O   UNL     1     108.296 128.728 136.296  0.00  0.00    +0.000 OA
ATOM      2  O   UNL     1     110.712 130.220 135.977  0.00  0.00    +0.000 OA
ATOM      3  O   UNL     1     110.843 127.354 136.236  0.00  0.00    +0.000 OA
ATOM      4  O   UNL     1     108.319 127.291 136.429  0.00  0.00    +0.000 OA
ATOM      5  C   UNL     1     109.505 129.473 136.137  0.00  0.00    +0.000 A 
ATOM      6  C   UNL     1     109.118 128.751 136.233  0.00  0.00    +0.000 A 
ATOM      7  C   UNL     1     110.327 129.497 136.073  0.00  0.00    +0.000 A 
ATOM      8  C   UNL     1     109.555 128.051 136.266  0.00  0.00    +0.000 A 
ATOM      9  C   UNL     1     110.763 128.798 136.107  0.00  0.00    +0.000 A 
ATOM     10  C   UNL     1     110.378 128.075 136.203  0.00  0.00    +0.000 A 
ATOM     11  C   UNL     1     109.141 127.305 136.367  0.00  0.00    +0.000 A 
ATOM     12  C   UNL     1     109.591 126.573 136.402  0.00  0.00    +0.000 A 
ATOM     13  C   UNL     1     110.447 126.597 136.336  0.00  0.00    +0.000 A 
ENDROOT
BRANCH   5  18
ATOM     14  O   UNL     1     108.907 130.525 135.375  0.00  0.00    +0.000 OA
ATOM     15  O   UNL     1     108.081 131.567 137.462  0.00  0.00    +0.000 OA
ATOM     16  O   UNL     1     107.759 132.271 136.005  0.00  0.00    +0.000 OA
ATOM     17  C   UNL     1     108.793 130.520 136.799  0.00  0.00    +0.000 C 
ATOM     18  C   UNL     1     109.068 130.173 136.104  0.00  0.00    +0.000 C 
ATOM     19  C   UNL     1     108.356 131.220 136.766  0.00  0.00    +0.000 C 
ATOM     20  C   UNL     1     108.471 131.224 135.342  0.00  0.00    +0.000 C 
ATOM     21  C   UNL     1     108.195 131.572 136.038  0.00  0.00    +0.000 C 
ATOM     22  C   UNL     1     108.310 131.576 134.613  0.00  0.00    +0.000 C 
BRANCH  17  23
ATOM     23  O   UNL     1     108.954 130.168 137.528  0.00  0.00    +0.000 OA
BRANCH  23  28
ATOM     24  O   UNL     1     109.797 131.232 137.976  0.00  0.00    +0.000 OA
ATOM     25  O   UNL     1     108.533 129.844 139.090  0.00  0.00    +0.000 OA
ATOM     26  O   UNL     1     109.166 130.744 140.319  0.00  0.00    +0.000 OA
ATOM     27  O   UNL     1     110.219 131.970 139.986  0.00  0.00    +0.000 OA
ATOM     28  C   UNL     1     109.271 130.619 138.142  0.00  0.00    +0.000 C 
ATOM     29  C   UNL     1     109.060 130.457 138.923  0.00  0.00    +0.000 C 
ATOM     30  C   UNL     1     109.376 130.907 139.538  0.00  0.00    +0.000 C 
ATOM     31  C   UNL     1     109.903 131.520 139.371  0.00  0.00    +0.000 C 
ATOM     32  C   UNL     1     110.113 131.682 138.590  0.00  0.00    +0.000 C 
ATOM     33  C   UNL     1     110.640 132.295 138.424  0.00  0.00    +0.000 C 
ENDBRANCH  23  28
ENDBRANCH  17  23
ENDBRANCH   5  18
BRANCH  13  35
ATOM     34  O   UNL     1     112.202 123.806 136.466  0.00  0.00    +0.000 OA
ATOM     35  C   UNL     1     110.886 125.899 136.369  0.00  0.00    +0.000 A 
ATOM     36  C   UNL     1     111.358 125.739 137.027  0.00  0.00    +0.000 A 
ATOM     37  C   UNL     1     110.853 125.362 135.744  0.00  0.00    +0.000 A 
ATOM     38  C   UNL     1     111.797 125.041 137.059  0.00  0.00    +0.000 A 
ATOM     39  C   UNL     1     111.291 124.664 135.777  0.00  0.00    +0.000 A 
ATOM     40  C   UNL     1     111.763 124.504 136.433  0.00  0.00    +0.000 A 
BRANCH  38  41
ATOM     41  O   UNL     1     112.269 124.881 137.716  0.00  0.00    +0.000 OA
BRANCH  41  42
ATOM     42  S   UNL     1     112.538 125.499 138.190  0.00  0.00    +0.000 S 
ATOM     43  O   UNL     1     112.806 126.118 138.665  0.00  0.00    +0.000 OA
ATOM     44  O   UNL     1     111.898 125.388 138.699  0.00  0.00    +0.000 OA
ATOM     45  O   UNL     1     113.177 125.611 137.682  0.00  0.00    +0.000 OA
ENDBRANCH  41  42
ENDBRANCH  38  41
ENDBRANCH  13  35
TORSDOF 6
ENDMDL
MODEL 7
REMARK VINA RESULT:     -10.6      2.654      4.617
REMARK  Name = 131833677
REMARK  6 active torsions:
REMARK  status: ('A' for Active; 'I' for Inactive)
REMARK    1  A    between atoms: S_1  and  O_14
REMARK    2  A    between atoms: O_2  and  C_19
REMARK    3  A    between atoms: O_2  and  C_20
REMARK    4  A    between atoms: O_14  and  C_43
REMARK    5  A    between atoms: C_23  and  C_29
REMARK    6  A    between atoms: C_39  and  C_40
REMARK                            x       y       z     vdW  Elec       q    Type
REMARK                         _______ _______ _______ _____ _____    ______ ____
ROOT
ATOM      1  O   UNL     1     113.221 128.152 136.901  0.00  0.00    +0.000 OA
ATOM      2  O   UNL     1     111.540 125.904 136.363  0.00  0.00    +0.000 OA
ATOM      3  O   UNL     1     110.542 128.564 135.887  0.00  0.00    +0.000 OA
ATOM      4  O   UNL     1     112.758 129.500 136.676  0.00  0.00    +0.000 OA
ATOM      5  C   UNL     1     112.380 127.028 136.632  0.00  0.00    +0.000 A 
ATOM      6  C   UNL     1     112.500 127.844 136.645  0.00  0.00    +0.000 A 
ATOM      7  C   UNL     1     111.659 126.721 136.376  0.00  0.00    +0.000 A 
ATOM      8  C   UNL     1     111.897 128.353 136.400  0.00  0.00    +0.000 A 
ATOM      9  C   UNL     1     111.057 127.229 136.132  0.00  0.00    +0.000 A 
ATOM     10  C   UNL     1     111.176 128.046 136.144  0.00  0.00    +0.000 A 
ATOM     11  C   UNL     1     112.035 129.201 136.418  0.00  0.00    +0.000 A 
ATOM     12  C   UNL     1     111.411 129.736 136.165  0.00  0.00    +0.000 A 
ATOM     13  C   UNL     1     110.660 129.416 135.898  0.00  0.00    +0.000 A 
ENDROOT
BRANCH   5  18
ATOM     14  O   UNL     1     113.617 126.360 136.374  0.00  0.00    +0.000 OA
ATOM     15  O   UNL     1     113.519 125.313 138.615  0.00  0.00    +0.000 OA
ATOM     16  O   UNL     1     114.788 124.994 137.610  0.00  0.00    +0.000 OA
ATOM     17  C   UNL     1     112.949 126.171 137.623  0.00  0.00    +0.000 C 
ATOM     18  C   UNL     1     112.983 126.519 136.877  0.00  0.00    +0.000 C 
ATOM     19  C   UNL     1     113.552 125.662 137.868  0.00  0.00    +0.000 C 
ATOM     20  C   UNL     1     114.218 125.852 136.618  0.00  0.00    +0.000 C 
ATOM     21  C   UNL     1     114.187 125.502 137.365  0.00  0.00    +0.000 C 
ATOM     22  C   UNL     1     114.853 125.692 136.116  0.00  0.00    +0.000 C 
BRANCH  17  23
ATOM     23  O   UNL     1     112.315 126.330 138.126  0.00  0.00    +0.000 OA
BRANCH  23  28
ATOM     24  O   UNL     1     113.085 127.066 139.079  0.00  0.00    +0.000 OA
ATOM     25  O   UNL     1     111.333 125.790 139.337  0.00  0.00    +0.000 OA
ATOM     26  O   UNL     1     111.612 126.255 140.895  0.00  0.00    +0.000 OA
ATOM     27  O   UNL     1     112.872 127.261 141.243  0.00  0.00    +0.000 OA
ATOM     28  C   UNL     1     112.455 126.564 138.905  0.00  0.00    +0.000 C 
ATOM     29  C   UNL     1     111.964 126.293 139.510  0.00  0.00    +0.000 C 
ATOM     30  C   UNL     1     112.103 126.525 140.290  0.00  0.00    +0.000 C 
ATOM     31  C   UNL     1     112.733 127.028 140.463  0.00  0.00    +0.000 C 
ATOM     32  C   UNL     1     113.224 127.299 139.857  0.00  0.00    +0.000 C 
ATOM     33  C   UNL     1     113.854 127.802 140.032  0.00  0.00    +0.000 C 
ENDBRANCH  23  28
ENDBRANCH  17  23
ENDBRANCH   5  18
BRANCH  13  35
ATOM     34  O   UNL     1     108.246 131.441 134.918  0.00  0.00    +0.000 OA
ATOM     35  C   UNL     1     110.056 129.922 135.653  0.00  0.00    +0.000 A 
ATOM     36  C   UNL     1     109.514 130.214 136.203  0.00  0.00    +0.000 A 
ATOM     37  C   UNL     1     109.994 130.137 134.859  0.00  0.00    +0.000 A 
ATOM     38  C   UNL     1     108.911 130.721 135.957  0.00  0.00    +0.000 A 
ATOM     39  C   UNL     1     109.391 130.642 134.614  0.00  0.00    +0.000 A 
ATOM     40  C   UNL     1     108.849 130.935 135.162  0.00  0.00    +0.000 A 
BRANCH  38  41
ATOM     41  O   UNL     1     108.369 131.013 136.506  0.00  0.00    +0.000 OA
BRANCH  41  42
ATOM     42  S   UNL     1     108.618 131.206 137.268  0.00  0.00    +0.000 S 
ATOM     43  O   UNL     1     108.868 131.399 138.030  0.00  0.00    +0.000 OA
ATOM     44  O   UNL     1     108.373 130.465 137.536  0.00  0.00    +0.000 OA
ATOM     45  O   UNL     1     108.864 131.947 137.000  0.00  0.00    +0.000 OA
ENDBRANCH  41  42
ENDBRANCH  38  41
ENDBRANCH  13  35
TORSDOF 6
ENDMDL
MODEL 8
REMARK VINA RESULT:     -10.6      2.690      6.281
REMARK  Name = 131833677
REMARK  6 active torsions:
REMARK  status: ('A' for Active; 'I' for Inactive)
REMARK    1  A    between atoms: S_1  and  O_14
REMARK    2  A    between atoms: O_2  and  C_19
REMARK    3  A    between atoms: O_2  and  C_20
REMARK    4  A    between atoms: O_14  and  C_43
REMARK    5  A    between atoms: C_23  and  C_29
REMARK    6  A    between atoms: C_39  and  C_40
REMARK                            x       y       z     vdW  Elec       q    Type
REMARK                         _______ _______ _______ _____ _____    ______ ____
ROOT
ATOM      1  O   UNL     1     110.674 129.038 137.648  0.00  0.00    +0.000 OA
ATOM      2  O   UNL     1     112.457 129.692 135.513  0.00  0.00    +0.000 OA
ATOM      3  O   UNL     1     112.024 126.927 136.199  0.00  0.00    +0.000 OA
ATOM      4  O   UNL     1     110.430 127.665 138.022  0.00  0.00    +0.000 OA
ATOM      5  C   UNL     1     111.566 129.364 136.580  0.00  0.00    +0.000 A 
ATOM      6  C   UNL     1     111.194 128.800 137.053  0.00  0.00    +0.000 A 
ATOM      7  C   UNL     1     112.086 129.126 135.986  0.00  0.00    +0.000 A 
ATOM      8  C   UNL     1     111.342 127.997 136.931  0.00  0.00    +0.000 A 
ATOM      9  C   UNL     1     112.233 128.324 135.864  0.00  0.00    +0.000 A 
ATOM     10  C   UNL     1     111.862 127.759 136.336  0.00  0.00    +0.000 A 
ATOM     11  C   UNL     1     110.948 127.419 137.431  0.00  0.00    +0.000 A 
ATOM     12  C   UNL     1     111.098 126.581 137.308  0.00  0.00    +0.000 A 
ATOM     13  C   UNL     1     111.640 126.334 136.688  0.00  0.00    +0.000 A 
ENDROOT
BRANCH   5  18
ATOM     14  O   UNL     1     110.713 130.502 136.435  0.00  0.00    +0.000 OA
ATOM     15  O   UNL     1     112.384 131.904 137.605  0.00  0.00    +0.000 OA
ATOM     16  O   UNL     1     110.974 132.574 137.069  0.00  0.00    +0.000 OA
ATOM     17  C   UNL     1     111.975 130.634 137.092  0.00  0.00    +0.000 C 
ATOM     18  C   UNL     1     111.418 130.167 136.703  0.00  0.00    +0.000 C 
ATOM     19  C   UNL     1     111.826 131.437 137.215  0.00  0.00    +0.000 C 
ATOM     20  C   UNL     1     110.565 131.304 136.557  0.00  0.00    +0.000 C 
ATOM     21  C   UNL     1     111.122 131.772 136.947  0.00  0.00    +0.000 C 
ATOM     22  C   UNL     1     109.860 131.639 136.289  0.00  0.00    +0.000 C 
BRANCH  17  23
ATOM     23  O   UNL     1     112.679 130.299 137.360  0.00  0.00    +0.000 OA
BRANCH  23  28
ATOM     24  O   UNL     1     112.325 130.351 138.743  0.00  0.00    +0.000 OA
ATOM     25  O   UNL     1     114.267 130.508 137.760  0.00  0.00    +0.000 OA
ATOM     26  O   UNL     1     114.705 130.665 139.342  0.00  0.00    +0.000 OA
ATOM     27  O   UNL     1     113.557 130.613 140.526  0.00  0.00    +0.000 OA
ATOM     28  C   UNL     1     112.898 130.377 138.152  0.00  0.00    +0.000 C 
ATOM     29  C   UNL     1     113.692 130.482 138.352  0.00  0.00    +0.000 C 
ATOM     30  C   UNL     1     113.912 130.560 139.143  0.00  0.00    +0.000 C 
ATOM     31  C   UNL     1     113.337 130.534 139.734  0.00  0.00    +0.000 C 
ATOM     32  C   UNL     1     112.544 130.430 139.534  0.00  0.00    +0.000 C 
ATOM     33  C   UNL     1     111.970 130.403 140.127  0.00  0.00    +0.000 C 
ENDBRANCH  23  28
ENDBRANCH  17  23
ENDBRANCH   5  18
BRANCH  13  35
ATOM     34  O   UNL     1     112.237 123.127 136.191  0.00  0.00    +0.000 OA
ATOM     35  C   UNL     1     111.789 125.532 136.564  0.00  0.00    +0.000 A 
ATOM     36  C   UNL     1     112.520 125.211 136.774  0.00  0.00    +0.000 A 
ATOM     37  C   UNL     1     111.208 125.051 136.230  0.00  0.00    +0.000 A 
ATOM     38  C   UNL     1     112.669 124.409 136.649  0.00  0.00    +0.000 A 
ATOM     39  C   UNL     1     111.358 124.250 136.106  0.00  0.00    +0.000 A 
ATOM     40  C   UNL     1     112.088 123.929 136.315  0.00  0.00    +0.000 A 
BRANCH  38  41
ATOM     41  O   UNL     1     113.400 124.089 136.859  0.00  0.00    +0.000 OA
BRANCH  41  42
ATOM     42  S   UNL     1     114.056 124.580 136.946  0.00  0.00    +0.000 S 
ATOM     43  O   UNL     1     114.712 125.073 137.034  0.00  0.00    +0.000 OA
ATOM     44  O   UNL     1     113.920 124.618 137.759  0.00  0.00    +0.000 OA
ATOM     45  O   UNL     1     114.192 124.543 136.133  0.00  0.00    +0.000 OA
ENDBRANCH  41  42
ENDBRANCH  38  41
ENDBRANCH  13  35
TORSDOF 6
ENDMDL
MODEL 9
REMARK VINA RESULT:     -10.5      3.204      5.553
REMARK  Name = 131833677
REMARK  6 active torsions:
REMARK  status: ('A' for Active; 'I' for Inactive)
REMARK    1  A    between atoms: S_1  and  O_14
REMARK    2  A    between atoms: O_2  and  C_19
REMARK    3  A    between atoms: O_2  and  C_20
REMARK    4  A    between atoms: O_14  and  C_43
REMARK    5  A    between atoms: C_23  and  C_29
REMARK    6  A    between atoms: C_39  and  C_40
REMARK                            x       y       z     vdW  Elec       q    Type
REMARK                         _______ _______ _______ _____ _____    ______ ____
ROOT
ATOM      1  O   UNL     1     111.955 130.729 139.708  0.00  0.00    +0.000 OA
ATOM      2  O   UNL     1     113.725 129.795 137.668  0.00  0.00    +0.000 OA
ATOM      3  O   UNL     1     111.184 130.934 136.926  0.00  0.00    +0.000 OA
ATOM      4  O   UNL     1     110.674 131.306 139.378  0.00  0.00    +0.000 OA
ATOM      5  C   UNL     1     112.839 130.262 138.687  0.00  0.00    +0.000 A 
ATOM      6  C   UNL     1     112.124 130.607 138.910  0.00  0.00    +0.000 A 
ATOM      7  C   UNL     1     113.008 130.140 137.889  0.00  0.00    +0.000 A 
ATOM      8  C   UNL     1     111.576 130.829 138.333  0.00  0.00    +0.000 A 
ATOM      9  C   UNL     1     112.462 130.362 137.314  0.00  0.00    +0.000 A 
ATOM     10  C   UNL     1     111.745 130.707 137.535  0.00  0.00    +0.000 A 
ATOM     11  C   UNL     1     110.835 131.187 138.578  0.00  0.00    +0.000 A 
ATOM     12  C   UNL     1     110.260 131.421 137.982  0.00  0.00    +0.000 A 
ATOM     13  C   UNL     1     110.436 131.293 137.151  0.00  0.00    +0.000 A 
ENDROOT
BRANCH   5  18
ATOM     14  O   UNL     1     113.860 130.611 139.626  0.00  0.00    +0.000 OA
ATOM     15  O   UNL     1     114.081 128.231 140.269  0.00  0.00    +0.000 OA
ATOM     16  O   UNL     1     115.027 129.373 140.992  0.00  0.00    +0.000 OA
ATOM     17  C   UNL     1     113.460 129.247 139.478  0.00  0.00    +0.000 C 
ATOM     18  C   UNL     1     113.387 130.040 139.264  0.00  0.00    +0.000 C 
ATOM     19  C   UNL     1     114.008 129.024 140.055  0.00  0.00    +0.000 C 
ATOM     20  C   UNL     1     114.406 130.388 140.202  0.00  0.00    +0.000 C 
ATOM     21  C   UNL     1     114.481 129.595 140.417  0.00  0.00    +0.000 C 
ATOM     22  C   UNL     1     114.880 130.959 140.564  0.00  0.00    +0.000 C 
BRANCH  17  23
ATOM     23  O   UNL     1     112.987 128.676 139.116  0.00  0.00    +0.000 OA
BRANCH  23  28
ATOM     24  O   UNL     1     112.240 128.347 140.289  0.00  0.00    +0.000 OA
ATOM     25  O   UNL     1     112.882 127.109 138.610  0.00  0.00    +0.000 OA
ATOM     26  O   UNL     1     112.083 125.996 139.530  0.00  0.00    +0.000 OA
ATOM     27  O   UNL     1     111.388 126.451 140.956  0.00  0.00    +0.000 OA
ATOM     28  C   UNL     1     112.587 128.120 139.577  0.00  0.00    +0.000 C 
ATOM     29  C   UNL     1     112.535 127.336 139.324  0.00  0.00    +0.000 C 
ATOM     30  C   UNL     1     112.135 126.780 139.783  0.00  0.00    +0.000 C 
ATOM     31  C   UNL     1     111.788 127.008 140.496  0.00  0.00    +0.000 C 
ATOM     32  C   UNL     1     111.841 127.791 140.749  0.00  0.00    +0.000 C 
ATOM     33  C   UNL     1     111.493 128.018 141.462  0.00  0.00    +0.000 C 
ENDBRANCH  23  28
ENDBRANCH  17  23
ENDBRANCH   5  18
BRANCH  13  35
ATOM     34  O   UNL     1     108.256 132.180 134.838  0.00  0.00    +0.000 OA
ATOM     35  C   UNL     1     109.891 131.515 136.572  0.00  0.00    +0.000 A 
ATOM     36  C   UNL     1     109.389 130.950 136.241  0.00  0.00    +0.000 A 
ATOM     37  C   UNL     1     109.848 132.301 136.325  0.00  0.00    +0.000 A 
ATOM     38  C   UNL     1     108.843 131.172 135.663  0.00  0.00    +0.000 A 
ATOM     39  C   UNL     1     109.304 132.522 135.747  0.00  0.00    +0.000 A 
ATOM     40  C   UNL     1     108.801 131.958 135.416  0.00  0.00    +0.000 A 
BRANCH  38  41
ATOM     41  O   UNL     1     108.341 130.608 135.332  0.00  0.00    +0.000 OA
BRANCH  41  42
ATOM     42  S   UNL     1     108.288 129.857 135.667  0.00  0.00    +0.000 S 
ATOM     43  O   UNL     1     108.235 129.105 136.003  0.00  0.00    +0.000 OA
ATOM     44  O   UNL     1     108.887 129.590 135.166  0.00  0.00    +0.000 OA
ATOM     45  O   UNL     1     107.689 130.122 136.168  0.00  0.00    +0.000 OA
ENDBRANCH  41  42
ENDBRANCH  38  41
ENDBRANCH  13  35
TORSDOF 6
ENDMDL
MODEL 10
REMARK VINA RESULT:     -10.4      3.585      5.646
REMARK  Name = 131833677
REMARK  6 active torsions:
REMARK  status: ('A' for Active; 'I' for Inactive)
REMARK    1  A    between atoms: S_1  and  O_14
REMARK    2  A    between atoms: O_2  and  C_19
REMARK    3  A    between atoms: O_2  and  C_20
REMARK    4  A    between atoms: O_14  and  C_43
REMARK    5  A    between atoms: C_23  and  C_29
REMARK    6  A    between atoms: C_39  and  C_40
REMARK                            x       y       z     vdW  Elec       q    Type
REMARK                         _______ _______ _______ _____ _____    ______ ____
ROOT
ATOM      1  O   UNL     1     112.934 131.354 142.000  0.00  0.00    +0.000 OA
ATOM      2  O   UNL     1     111.422 129.037 142.714  0.00  0.00    +0.000 OA
ATOM      3  O   UNL     1     111.524 131.275 144.526  0.00  0.00    +0.000 OA
ATOM      4  O   UNL     1     113.010 132.496 142.880  0.00  0.00    +0.000 OA
ATOM      5  C   UNL     1     112.178 130.196 142.358  0.00  0.00    +0.000 A 
ATOM      6  C   UNL     1     112.450 130.954 142.534  0.00  0.00    +0.000 A 
ATOM      7  C   UNL     1     111.693 129.796 142.892  0.00  0.00    +0.000 A 
ATOM      8  C   UNL     1     112.237 131.313 143.247  0.00  0.00    +0.000 A 
ATOM      9  C   UNL     1     111.481 130.154 143.604  0.00  0.00    +0.000 A 
ATOM     10  C   UNL     1     111.752 130.913 143.782  0.00  0.00    +0.000 A 
ATOM     11  C   UNL     1     112.527 132.103 143.419  0.00  0.00    +0.000 A 
ATOM     12  C   UNL     1     112.308 132.482 144.160  0.00  0.00    +0.000 A 
ATOM     13  C   UNL     1     111.803 132.065 144.717  0.00  0.00    +0.000 A 
ENDROOT
BRANCH   5  18
ATOM     14  O   UNL     1     112.997 129.277 141.630  0.00  0.00    +0.000 OA
ATOM     15  O   UNL     1     111.816 129.882 139.540  0.00  0.00    +0.000 OA
ATOM     16  O   UNL     1     113.028 128.763 139.509  0.00  0.00    +0.000 OA
ATOM     17  C   UNL     1     111.997 130.039 140.949  0.00  0.00    +0.000 C 
ATOM     18  C   UNL     1     112.391 129.837 141.645  0.00  0.00    +0.000 C 
ATOM     19  C   UNL     1     112.210 129.680 140.236  0.00  0.00    +0.000 C 
ATOM     20  C   UNL     1     113.209 128.920 140.918  0.00  0.00    +0.000 C 
ATOM     21  C   UNL     1     112.816 129.121 140.221  0.00  0.00    +0.000 C 
ATOM     22  C   UNL     1     113.815 128.360 140.903  0.00  0.00    +0.000 C 
BRANCH  17  23
ATOM     23  O   UNL     1     111.391 130.598 140.964  0.00  0.00    +0.000 OA
BRANCH  23  28
ATOM     24  O   UNL     1     110.369 129.655 140.636  0.00  0.00    +0.000 OA
ATOM     25  O   UNL     1     110.519 131.796 140.238  0.00  0.00    +0.000 OA
ATOM     26  O   UNL     1     109.061 131.452 139.547  0.00  0.00    +0.000 OA
ATOM     27  O   UNL     1     108.474 129.910 139.582  0.00  0.00    +0.000 OA
ATOM     28  C   UNL     1     110.662 130.426 140.619  0.00  0.00    +0.000 C 
ATOM     29  C   UNL     1     110.226 131.024 140.256  0.00  0.00    +0.000 C 
ATOM     30  C   UNL     1     109.497 130.853 139.910  0.00  0.00    +0.000 C 
ATOM     31  C   UNL     1     109.204 130.082 139.928  0.00  0.00    +0.000 C 
ATOM     32  C   UNL     1     109.640 129.483 140.291  0.00  0.00    +0.000 C 
ATOM     33  C   UNL     1     109.346 128.712 140.309  0.00  0.00    +0.000 C 
ENDBRANCH  23  28
ENDBRANCH  17  23
ENDBRANCH   5  18
BRANCH  13  35
ATOM     34  O   UNL     1     110.948 133.489 147.568  0.00  0.00    +0.000 OA
ATOM     35  C   UNL     1     111.589 132.421 145.429  0.00  0.00    +0.000 A 
ATOM     36  C   UNL     1     110.848 132.774 145.508  0.00  0.00    +0.000 A 
ATOM     37  C   UNL     1     112.116 132.424 146.064  0.00  0.00    +0.000 A 
ATOM     38  C   UNL     1     110.634 133.130 146.221  0.00  0.00    +0.000 A 
ATOM     39  C   UNL     1     111.903 132.780 146.776  0.00  0.00    +0.000 A 
ATOM     40  C   UNL     1     111.162 133.133 146.855  0.00  0.00    +0.000 A 
BRANCH  38  41
ATOM     41  O   UNL     1     109.892 133.483 146.299  0.00  0.00    +0.000 OA
BRANCH  41  42
ATOM     42  S   UNL     1     109.277 133.264 145.797  0.00  0.00    +0.000 S 
ATOM     43  O   UNL     1     108.661 133.044 145.294  0.00  0.00    +0.000 OA
ATOM     44  O   UNL     1     109.094 132.632 146.296  0.00  0.00    +0.000 OA
ATOM     45  O   UNL     1     109.459 133.895 145.298  0.00  0.00    +0.000 OA
ENDBRANCH  41  42
ENDBRANCH  38  41
ENDBRANCH  13  35
TORSDOF 6
ENDMDL
