MODEL 1
REMARK VINA RESULT:      -7.8      0.000      0.000
REMARK  Name = 10452846
REMARK  6 active torsions:
REMARK  status: ('A' for Active; 'I' for Inactive)
REMARK    1  A    between atoms: O_2  and  C_11
REMARK    2  A    between atoms: O_3  and  C_13
REMARK    3  A    between atoms: O_4  and  C_15
REMARK    4  A    between atoms: O_7  and  C_21
REMARK    5  A    between atoms: O_8  and  C_22
REMARK    6  A    between atoms: C_12  and  C_16
REMARK                            x       y       z     vdW  Elec       q    Type
REMARK                         _______ _______ _______ _____ _____    ______ ____
ROOT
ATOM      1  O   UNL     1     104.769 124.391 147.395  0.00  0.00    +0.000 OA
ATOM      2  O   UNL     1     107.187 124.876 148.885  0.00  0.00    +0.000 OA
ATOM      3  O   UNL     1     105.888 125.343 145.333  0.00  0.00    +0.000 OA
ATOM      4  C   UNL     1     105.941 124.987 146.749  0.00  0.00    +0.000 A 
ATOM      5  C   UNL     1     105.578 124.678 147.422  0.00  0.00    +0.000 A 
ATOM      6  C   UNL     1     106.718 125.260 146.788  0.00  0.00    +0.000 A 
ATOM      7  C   UNL     1     104.331 124.427 146.657  0.00  0.00    +0.000 A 
ATOM      8  C   UNL     1     105.994 124.640 148.135  0.00  0.00    +0.000 A 
ATOM      9  C   UNL     1     105.519 125.032 146.002  0.00  0.00    +0.000 A 
ATOM     10  C   UNL     1     107.134 125.223 147.499  0.00  0.00    +0.000 A 
ATOM     11  C   UNL     1     106.772 124.913 148.172  0.00  0.00    +0.000 A 
ATOM     12  C   UNL     1     104.708 124.749 145.955  0.00  0.00    +0.000 A 
ENDROOT
BRANCH   7  13
ATOM     13  C   UNL     1     103.553 124.153 146.621  0.00  0.00    +0.000 A 
ATOM     14  C   UNL     1     102.949 124.580 146.987  0.00  0.00    +0.000 A 
ATOM     15  C   UNL     1     103.379 123.454 146.221  0.00  0.00    +0.000 A 
ATOM     16  C   UNL     1     102.171 124.308 146.952  0.00  0.00    +0.000 A 
ATOM     17  C   UNL     1     101.997 123.607 146.551  0.00  0.00    +0.000 A 
ATOM     18  C   UNL     1     102.601 123.181 146.185  0.00  0.00    +0.000 A 
BRANCH  16  19
ATOM     19  O   UNL     1     101.567 124.735 147.317  0.00  0.00    +0.000 OA
ATOM     20  C   UNL     1     101.738 125.224 147.959  0.00  0.00    +0.000 C 
ENDBRANCH  16  19
BRANCH  17  21
ATOM     21  O   UNL     1     101.220 123.335 146.516  0.00  0.00    +0.000 OA
ATOM     22  C   UNL     1     101.015 122.740 145.982  0.00  0.00    +0.000 C 
ENDBRANCH  17  21
ENDBRANCH   7  13
BRANCH   6  23
ATOM     23  O   UNL     1     107.081 125.570 146.114  0.00  0.00    +0.000 OA
ATOM     24  C   UNL     1     106.799 126.268 145.778  0.00  0.00    +0.000 C 
ENDBRANCH   6  23
BRANCH   8  25
ATOM     25  O   UNL     1     105.632 124.331 148.807  0.00  0.00    +0.000 OA
ATOM     26  C   UNL     1     105.524 124.806 149.473  0.00  0.00    +0.000 C 
ENDBRANCH   8  25
BRANCH  10  27
ATOM     27  O   UNL     1     107.912 125.495 147.538  0.00  0.00    +0.000 OA
ATOM     28  C   UNL     1     108.516 124.987 147.774  0.00  0.00    +0.000 C 
ENDBRANCH  10  27
TORSDOF 6
ENDMDL
MODEL 2
REMARK VINA RESULT:      -7.7     12.582     14.267
REMARK  Name = 10452846
REMARK  6 active torsions:
REMARK  status: ('A' for Active; 'I' for Inactive)
REMARK    1  A    between atoms: O_2  and  C_11
REMARK    2  A    between atoms: O_3  and  C_13
REMARK    3  A    between atoms: O_4  and  C_15
REMARK    4  A    between atoms: O_7  and  C_21
REMARK    5  A    between atoms: O_8  and  C_22
REMARK    6  A    between atoms: C_12  and  C_16
REMARK                            x       y       z     vdW  Elec       q    Type
REMARK                         _______ _______ _______ _____ _____    ______ ____
ROOT
ATOM      1  O   UNL     1     113.433 126.926 136.477  0.00  0.00    +0.000 OA
ATOM      2  O   UNL     1     113.552 124.069 136.833  0.00  0.00    +0.000 OA
ATOM      3  O   UNL     1     110.971 126.720 135.923  0.00  0.00    +0.000 OA
ATOM      4  C   UNL     1     112.240 126.097 136.292  0.00  0.00    +0.000 A 
ATOM      5  C   UNL     1     113.042 126.162 136.473  0.00  0.00    +0.000 A 
ATOM      6  C   UNL     1     111.875 125.357 136.292  0.00  0.00    +0.000 A 
ATOM      7  C   UNL     1     112.983 127.634 136.289  0.00  0.00    +0.000 A 
ATOM      8  C   UNL     1     113.480 125.485 136.653  0.00  0.00    +0.000 A 
ATOM      9  C   UNL     1     111.773 126.793 136.102  0.00  0.00    +0.000 A 
ATOM     10  C   UNL     1     112.312 124.682 136.472  0.00  0.00    +0.000 A 
ATOM     11  C   UNL     1     113.114 124.746 136.653  0.00  0.00    +0.000 A 
ATOM     12  C   UNL     1     112.148 127.567 136.101  0.00  0.00    +0.000 A 
ENDROOT
BRANCH   7  13
ATOM     13  C   UNL     1     113.351 128.373 136.291  0.00  0.00    +0.000 A 
ATOM     14  C   UNL     1     113.331 128.842 136.969  0.00  0.00    +0.000 A 
ATOM     15  C   UNL     1     113.738 128.643 135.614  0.00  0.00    +0.000 A 
ATOM     16  C   UNL     1     113.698 129.580 136.971  0.00  0.00    +0.000 A 
ATOM     17  C   UNL     1     114.086 129.851 136.294  0.00  0.00    +0.000 A 
ATOM     18  C   UNL     1     114.105 129.381 135.616  0.00  0.00    +0.000 A 
BRANCH  16  19
ATOM     19  O   UNL     1     113.679 130.050 137.650  0.00  0.00    +0.000 OA
ATOM     20  C   UNL     1     113.414 129.732 138.364  0.00  0.00    +0.000 C 
ENDBRANCH  16  19
BRANCH  17  21
ATOM     21  O   UNL     1     114.453 130.588 136.296  0.00  0.00    +0.000 OA
ATOM     22  C   UNL     1     114.895 130.831 135.644  0.00  0.00    +0.000 C 
ENDBRANCH  17  21
ENDBRANCH   7  13
BRANCH   6  23
ATOM     23  O   UNL     1     111.073 125.293 136.111  0.00  0.00    +0.000 OA
ATOM     24  C   UNL     1     110.808 125.452 135.346  0.00  0.00    +0.000 C 
ENDBRANCH   6  23
BRANCH   8  25
ATOM     25  O   UNL     1     114.281 125.549 136.834  0.00  0.00    +0.000 OA
ATOM     26  C   UNL     1     114.843 125.179 136.357  0.00  0.00    +0.000 C 
ENDBRANCH   8  25
BRANCH  10  27
ATOM     27  O   UNL     1     111.948 123.941 136.471  0.00  0.00    +0.000 OA
ATOM     28  C   UNL     1     111.852 123.528 137.178  0.00  0.00    +0.000 C 
ENDBRANCH  10  27
TORSDOF 6
ENDMDL
MODEL 3
REMARK VINA RESULT:      -7.5      9.941     12.696
REMARK  Name = 10452846
REMARK  6 active torsions:
REMARK  status: ('A' for Active; 'I' for Inactive)
REMARK    1  A    between atoms: O_2  and  C_11
REMARK    2  A    between atoms: O_3  and  C_13
REMARK    3  A    between atoms: O_4  and  C_15
REMARK    4  A    between atoms: O_7  and  C_21
REMARK    5  A    between atoms: O_8  and  C_22
REMARK    6  A    between atoms: C_12  and  C_16
REMARK                            x       y       z     vdW  Elec       q    Type
REMARK                         _______ _______ _______ _____ _____    ______ ____
ROOT
ATOM      1  O   UNL     1     112.109 126.679 137.618  0.00  0.00    +0.000 OA
ATOM      2  O   UNL     1     110.910 127.266 135.065  0.00  0.00    +0.000 OA
ATOM      3  O   UNL     1     111.650 124.220 137.231  0.00  0.00    +0.000 OA
ATOM      4  C   UNL     1     111.576 125.605 136.777  0.00  0.00    +0.000 A 
ATOM      5  C   UNL     1     111.724 126.408 136.900  0.00  0.00    +0.000 A 
ATOM      6  C   UNL     1     111.205 125.357 136.082  0.00  0.00    +0.000 A 
ATOM      7  C   UNL     1     112.343 126.108 138.217  0.00  0.00    +0.000 A 
ATOM      8  C   UNL     1     111.502 126.961 136.330  0.00  0.00    +0.000 A 
ATOM      9  C   UNL     1     111.802 125.020 137.363  0.00  0.00    +0.000 A 
ATOM     10  C   UNL     1     110.984 125.910 135.512  0.00  0.00    +0.000 A 
ATOM     11  C   UNL     1     111.132 126.712 135.636  0.00  0.00    +0.000 A 
ATOM     12  C   UNL     1     112.189 125.273 138.088  0.00  0.00    +0.000 A 
ENDROOT
BRANCH   7  13
ATOM     13  C   UNL     1     112.714 126.359 138.910  0.00  0.00    +0.000 A 
ATOM     14  C   UNL     1     112.263 126.532 139.579  0.00  0.00    +0.000 A 
ATOM     15  C   UNL     1     113.534 126.438 138.934  0.00  0.00    +0.000 A 
ATOM     16  C   UNL     1     112.632 126.784 140.272  0.00  0.00    +0.000 A 
ATOM     17  C   UNL     1     113.454 126.863 140.296  0.00  0.00    +0.000 A 
ATOM     18  C   UNL     1     113.904 126.690 139.627  0.00  0.00    +0.000 A 
BRANCH  16  19
ATOM     19  O   UNL     1     112.181 126.957 140.941  0.00  0.00    +0.000 OA
ATOM     20  C   UNL     1     111.375 126.780 140.952  0.00  0.00    +0.000 C 
ENDBRANCH  16  19
BRANCH  17  21
ATOM     21  O   UNL     1     113.823 127.114 140.989  0.00  0.00    +0.000 OA
ATOM     22  C   UNL     1     114.641 127.213 141.007  0.00  0.00    +0.000 C 
ENDBRANCH  17  21
ENDBRANCH   7  13
BRANCH   6  23
ATOM     23  O   UNL     1     111.057 124.555 135.959  0.00  0.00    +0.000 OA
ATOM     24  C   UNL     1     111.678 124.012 135.978  0.00  0.00    +0.000 C 
ENDBRANCH   6  23
BRANCH   8  25
ATOM     25  O   UNL     1     111.651 127.762 136.453  0.00  0.00    +0.000 OA
ATOM     26  C   UNL     1     112.152 128.173 135.943  0.00  0.00    +0.000 C 
ENDBRANCH   8  25
BRANCH  10  27
ATOM     27  O   UNL     1     110.613 125.662 134.818  0.00  0.00    +0.000 OA
ATOM     28  C   UNL     1     109.812 125.815 134.700  0.00  0.00    +0.000 C 
ENDBRANCH  10  27
TORSDOF 6
ENDMDL
MODEL 4
REMARK VINA RESULT:      -7.5     11.890     13.375
REMARK  Name = 10452846
REMARK  6 active torsions:
REMARK  status: ('A' for Active; 'I' for Inactive)
REMARK    1  A    between atoms: O_2  and  C_11
REMARK    2  A    between atoms: O_3  and  C_13
REMARK    3  A    between atoms: O_4  and  C_15
REMARK    4  A    between atoms: O_7  and  C_21
REMARK    5  A    between atoms: O_8  and  C_22
REMARK    6  A    between atoms: C_12  and  C_16
REMARK                            x       y       z     vdW  Elec       q    Type
REMARK                         _______ _______ _______ _____ _____    ______ ____
ROOT
ATOM      1  O   UNL     1     112.425 127.378 137.261  0.00  0.00    +0.000 OA
ATOM      2  O   UNL     1     112.289 130.023 138.395  0.00  0.00    +0.000 OA
ATOM      3  O   UNL     1     114.276 128.169 135.725  0.00  0.00    +0.000 OA
ATOM      4  C   UNL     1     113.311 128.444 136.785  0.00  0.00    +0.000 A 
ATOM      5  C   UNL     1     112.708 128.189 137.287  0.00  0.00    +0.000 A 
ATOM      6  C   UNL     1     113.573 129.225 136.820  0.00  0.00    +0.000 A 
ATOM      7  C   UNL     1     112.776 126.824 136.704  0.00  0.00    +0.000 A 
ATOM      8  C   UNL     1     112.367 128.715 137.824  0.00  0.00    +0.000 A 
ATOM      9  C   UNL     1     113.673 127.905 136.223  0.00  0.00    +0.000 A 
ATOM     10  C   UNL     1     113.233 129.751 137.356  0.00  0.00    +0.000 A 
ATOM     11  C   UNL     1     112.630 129.496 137.858  0.00  0.00    +0.000 A 
ATOM     12  C   UNL     1     113.404 127.090 136.182  0.00  0.00    +0.000 A 
ENDROOT
BRANCH   7  13
ATOM     13  C   UNL     1     112.511 126.044 136.672  0.00  0.00    +0.000 A 
ATOM     14  C   UNL     1     111.864 125.847 136.201  0.00  0.00    +0.000 A 
ATOM     15  C   UNL     1     112.894 125.459 137.111  0.00  0.00    +0.000 A 
ATOM     16  C   UNL     1     111.598 125.067 136.167  0.00  0.00    +0.000 A 
ATOM     17  C   UNL     1     111.981 124.482 136.607  0.00  0.00    +0.000 A 
ATOM     18  C   UNL     1     112.629 124.679 137.078  0.00  0.00    +0.000 A 
BRANCH  16  19
ATOM     19  O   UNL     1     110.950 124.870 135.696  0.00  0.00    +0.000 OA
ATOM     20  C   UNL     1     110.508 125.465 135.333  0.00  0.00    +0.000 C 
ENDBRANCH  16  19
BRANCH  17  21
ATOM     21  O   UNL     1     111.717 123.702 136.574  0.00  0.00    +0.000 OA
ATOM     22  C   UNL     1     112.057 123.130 137.061  0.00  0.00    +0.000 C 
ENDBRANCH  17  21
ENDBRANCH   7  13
BRANCH   6  23
ATOM     23  O   UNL     1     114.176 129.480 136.319  0.00  0.00    +0.000 OA
ATOM     24  C   UNL     1     114.041 129.539 135.507  0.00  0.00    +0.000 C 
ENDBRANCH   6  23
BRANCH   8  25
ATOM     25  O   UNL     1     111.764 128.461 138.325  0.00  0.00    +0.000 OA
ATOM     26  C   UNL     1     111.017 128.807 138.282  0.00  0.00    +0.000 C 
ENDBRANCH   8  25
BRANCH  10  27
ATOM     27  O   UNL     1     113.495 130.533 137.391  0.00  0.00    +0.000 OA
ATOM     28  C   UNL     1     113.952 130.787 138.029  0.00  0.00    +0.000 C 
ENDBRANCH  10  27
TORSDOF 6
ENDMDL
MODEL 5
REMARK VINA RESULT:      -7.4      0.866      4.929
REMARK  Name = 10452846
REMARK  6 active torsions:
REMARK  status: ('A' for Active; 'I' for Inactive)
REMARK    1  A    between atoms: O_2  and  C_11
REMARK    2  A    between atoms: O_3  and  C_13
REMARK    3  A    between atoms: O_4  and  C_15
REMARK    4  A    between atoms: O_7  and  C_21
REMARK    5  A    between atoms: O_8  and  C_22
REMARK    6  A    between atoms: C_12  and  C_16
REMARK                            x       y       z     vdW  Elec       q    Type
REMARK                         _______ _______ _______ _____ _____    ______ ____
ROOT
ATOM      1  O   UNL     1     104.357 124.291 146.657  0.00  0.00    +0.000 OA
ATOM      2  O   UNL     1     102.121 123.112 145.275  0.00  0.00    +0.000 OA
ATOM      3  O   UNL     1     102.791 125.002 148.515  0.00  0.00    +0.000 OA
ATOM      4  C   UNL     1     103.010 124.345 147.229  0.00  0.00    +0.000 A 
ATOM      5  C   UNL     1     103.518 124.112 146.622  0.00  0.00    +0.000 A 
ATOM      6  C   UNL     1     102.205 124.166 147.184  0.00  0.00    +0.000 A 
ATOM      7  C   UNL     1     104.672 124.719 147.333  0.00  0.00    +0.000 A 
ATOM      8  C   UNL     1     103.221 123.701 145.971  0.00  0.00    +0.000 A 
ATOM      9  C   UNL     1     103.306 124.773 147.913  0.00  0.00    +0.000 A 
ATOM     10  C   UNL     1     101.909 123.756 146.534  0.00  0.00    +0.000 A 
ATOM     11  C   UNL     1     102.417 123.523 145.927  0.00  0.00    +0.000 A 
ATOM     12  C   UNL     1     104.143 124.961 147.965  0.00  0.00    +0.000 A 
ENDROOT
BRANCH   7  13
ATOM     13  C   UNL     1     105.477 124.896 147.375  0.00  0.00    +0.000 A 
ATOM     14  C   UNL     1     105.814 125.414 146.828  0.00  0.00    +0.000 A 
ATOM     15  C   UNL     1     105.944 124.555 147.962  0.00  0.00    +0.000 A 
ATOM     16  C   UNL     1     106.618 125.591 146.869  0.00  0.00    +0.000 A 
ATOM     17  C   UNL     1     107.087 125.250 147.458  0.00  0.00    +0.000 A 
ATOM     18  C   UNL     1     106.749 124.732 148.004  0.00  0.00    +0.000 A 
BRANCH  16  19
ATOM     19  O   UNL     1     106.956 126.109 146.323  0.00  0.00    +0.000 OA
ATOM     20  C   UNL     1     106.477 126.625 145.892  0.00  0.00    +0.000 C 
ENDBRANCH  16  19
BRANCH  17  21
ATOM     21  O   UNL     1     107.890 125.427 147.499  0.00  0.00    +0.000 OA
ATOM     22  C   UNL     1     108.407 124.912 147.883  0.00  0.00    +0.000 C 
ENDBRANCH  17  21
ENDBRANCH   7  13
BRANCH   6  23
ATOM     23  O   UNL     1     101.697 124.399 147.791  0.00  0.00    +0.000 OA
ATOM     24  C   UNL     1     101.559 125.200 147.930  0.00  0.00    +0.000 C 
ENDBRANCH   6  23
BRANCH   8  25
ATOM     25  O   UNL     1     103.729 123.468 145.364  0.00  0.00    +0.000 OA
ATOM     26  C   UNL     1     103.623 122.739 144.994  0.00  0.00    +0.000 C 
ENDBRANCH   8  25
BRANCH  10  27
ATOM     27  O   UNL     1     101.105 123.577 146.489  0.00  0.00    +0.000 OA
ATOM     28  C   UNL     1     100.847 122.801 146.592  0.00  0.00    +0.000 C 
ENDBRANCH  10  27
TORSDOF 6
ENDMDL
MODEL 6
REMARK VINA RESULT:      -7.4      0.939      4.715
REMARK  Name = 10452846
REMARK  6 active torsions:
REMARK  status: ('A' for Active; 'I' for Inactive)
REMARK    1  A    between atoms: O_2  and  C_11
REMARK    2  A    between atoms: O_3  and  C_13
REMARK    3  A    between atoms: O_4  and  C_15
REMARK    4  A    between atoms: O_7  and  C_21
REMARK    5  A    between atoms: O_8  and  C_22
REMARK    6  A    between atoms: C_12  and  C_16
REMARK                            x       y       z     vdW  Elec       q    Type
REMARK                         _______ _______ _______ _____ _____    ______ ____
ROOT
ATOM      1  O   UNL     1     104.091 124.703 147.407  0.00  0.00    +0.000 OA
ATOM      2  O   UNL     1     101.354 124.730 148.307  0.00  0.00    +0.000 OA
ATOM      3  O   UNL     1     103.508 122.835 145.799  0.00  0.00    +0.000 OA
ATOM      4  C   UNL     1     103.105 123.781 146.836  0.00  0.00    +0.000 A 
ATOM      5  C   UNL     1     103.292 124.390 147.361  0.00  0.00    +0.000 A 
ATOM      6  C   UNL     1     102.334 123.489 146.802  0.00  0.00    +0.000 A 
ATOM      7  C   UNL     1     104.704 124.378 146.898  0.00  0.00    +0.000 A 
ATOM      8  C   UNL     1     102.708 124.706 147.852  0.00  0.00    +0.000 A 
ATOM      9  C   UNL     1     103.704 123.444 146.321  0.00  0.00    +0.000 A 
ATOM     10  C   UNL     1     101.751 123.805 147.292  0.00  0.00    +0.000 A 
ATOM     11  C   UNL     1     101.938 124.413 147.817  0.00  0.00    +0.000 A 
ATOM     12  C   UNL     1     104.509 123.745 146.352  0.00  0.00    +0.000 A 
ENDROOT
BRANCH   7  13
ATOM     13  C   UNL     1     105.473 124.673 146.935  0.00  0.00    +0.000 A 
ATOM     14  C   UNL     1     105.776 125.115 146.308  0.00  0.00    +0.000 A 
ATOM     15  C   UNL     1     105.941 124.525 147.598  0.00  0.00    +0.000 A 
ATOM     16  C   UNL     1     106.545 125.410 146.343  0.00  0.00    +0.000 A 
ATOM     17  C   UNL     1     107.013 125.262 147.008  0.00  0.00    +0.000 A 
ATOM     18  C   UNL     1     106.711 124.820 147.635  0.00  0.00    +0.000 A 
BRANCH  16  19
ATOM     19  O   UNL     1     106.848 125.853 145.716  0.00  0.00    +0.000 OA
ATOM     20  C   UNL     1     106.361 126.384 145.314  0.00  0.00    +0.000 C 
ENDBRANCH  16  19
BRANCH  17  21
ATOM     21  O   UNL     1     107.782 125.557 147.044  0.00  0.00    +0.000 OA
ATOM     22  C   UNL     1     108.293 125.305 147.640  0.00  0.00    +0.000 C 
ENDBRANCH  17  21
ENDBRANCH   7  13
BRANCH   6  23
ATOM     23  O   UNL     1     102.148 122.880 146.278  0.00  0.00    +0.000 OA
ATOM     24  C   UNL     1     102.278 122.978 145.469  0.00  0.00    +0.000 C 
ENDBRANCH   6  23
BRANCH   8  25
ATOM     25  O   UNL     1     102.895 125.314 148.376  0.00  0.00    +0.000 OA
ATOM     26  C   UNL     1     102.527 126.049 148.304  0.00  0.00    +0.000 C 
ENDBRANCH   8  25
BRANCH  10  27
ATOM     27  O   UNL     1     100.980 123.512 147.258  0.00  0.00    +0.000 OA
ATOM     28  C   UNL     1     100.713 122.983 147.831  0.00  0.00    +0.000 C 
ENDBRANCH  10  27
TORSDOF 6
ENDMDL
MODEL 7
REMARK VINA RESULT:      -7.4     12.657     14.932
REMARK  Name = 10452846
REMARK  6 active torsions:
REMARK  status: ('A' for Active; 'I' for Inactive)
REMARK    1  A    between atoms: O_2  and  C_11
REMARK    2  A    between atoms: O_3  and  C_13
REMARK    3  A    between atoms: O_4  and  C_15
REMARK    4  A    between atoms: O_7  and  C_21
REMARK    5  A    between atoms: O_8  and  C_22
REMARK    6  A    between atoms: C_12  and  C_16
REMARK                            x       y       z     vdW  Elec       q    Type
REMARK                         _______ _______ _______ _____ _____    ______ ____
ROOT
ATOM      1  O   UNL     1     112.688 128.365 135.646  0.00  0.00    +0.000 OA
ATOM      2  O   UNL     1     110.219 126.896 135.428  0.00  0.00    +0.000 OA
ATOM      3  O   UNL     1     113.705 126.405 136.885  0.00  0.00    +0.000 OA
ATOM      4  C   UNL     1     112.566 127.017 136.206  0.00  0.00    +0.000 A 
ATOM      5  C   UNL     1     112.232 127.654 135.803  0.00  0.00    +0.000 A 
ATOM      6  C   UNL     1     112.117 126.339 136.350  0.00  0.00    +0.000 A 
ATOM      7  C   UNL     1     113.503 128.413 135.914  0.00  0.00    +0.000 A 
ATOM      8  C   UNL     1     111.449 127.614 135.543  0.00  0.00    +0.000 A 
ATOM      9  C   UNL     1     113.379 127.047 136.482  0.00  0.00    +0.000 A 
ATOM     10  C   UNL     1     111.336 126.299 136.091  0.00  0.00    +0.000 A 
ATOM     11  C   UNL     1     111.002 126.936 135.687  0.00  0.00    +0.000 A 
ATOM     12  C   UNL     1     113.851 127.750 136.334  0.00  0.00    +0.000 A 
ENDROOT
BRANCH   7  13
ATOM     13  C   UNL     1     113.949 129.092 135.768  0.00  0.00    +0.000 A 
ATOM     14  C   UNL     1     113.909 129.731 136.288  0.00  0.00    +0.000 A 
ATOM     15  C   UNL     1     114.435 129.133 135.103  0.00  0.00    +0.000 A 
ATOM     16  C   UNL     1     114.354 130.410 136.144  0.00  0.00    +0.000 A 
ATOM     17  C   UNL     1     114.840 130.450 135.477  0.00  0.00    +0.000 A 
ATOM     18  C   UNL     1     114.880 129.811 134.957  0.00  0.00    +0.000 A 
BRANCH  16  19
ATOM     19  O   UNL     1     114.314 131.049 136.664  0.00  0.00    +0.000 OA
ATOM     20  C   UNL     1     113.836 131.006 137.335  0.00  0.00    +0.000 C 
ENDBRANCH  16  19
BRANCH  17  21
ATOM     21  O   UNL     1     115.285 131.129 135.332  0.00  0.00    +0.000 OA
ATOM     22  C   UNL     1     115.710 131.201 134.629  0.00  0.00    +0.000 C 
ENDBRANCH  17  21
ENDBRANCH   7  13
BRANCH   6  23
ATOM     23  O   UNL     1     112.452 125.702 136.754  0.00  0.00    +0.000 OA
ATOM     24  C   UNL     1     112.627 125.769 137.557  0.00  0.00    +0.000 C 
ENDBRANCH   6  23
BRANCH   8  25
ATOM     25  O   UNL     1     111.115 128.250 135.139  0.00  0.00    +0.000 OA
ATOM     26  C   UNL     1     110.465 128.645 135.457  0.00  0.00    +0.000 C 
ENDBRANCH   8  25
BRANCH  10  27
ATOM     27  O   UNL     1     110.887 125.621 136.235  0.00  0.00    +0.000 OA
ATOM     28  C   UNL     1     110.697 125.112 135.615  0.00  0.00    +0.000 C 
ENDBRANCH  10  27
TORSDOF 6
ENDMDL
MODEL 8
REMARK VINA RESULT:      -7.3     12.681     14.041
REMARK  Name = 10452846
REMARK  6 active torsions:
REMARK  status: ('A' for Active; 'I' for Inactive)
REMARK    1  A    between atoms: O_2  and  C_11
REMARK    2  A    between atoms: O_3  and  C_13
REMARK    3  A    between atoms: O_4  and  C_15
REMARK    4  A    between atoms: O_7  and  C_21
REMARK    5  A    between atoms: O_8  and  C_22
REMARK    6  A    between atoms: C_12  and  C_16
REMARK                            x       y       z     vdW  Elec       q    Type
REMARK                         _______ _______ _______ _____ _____    ______ ____
ROOT
ATOM      1  O   UNL     1     112.426 126.873 136.509  0.00  0.00    +0.000 OA
ATOM      2  O   UNL     1     111.210 124.297 136.078  0.00  0.00    +0.000 OA
ATOM      3  O   UNL     1     114.462 125.713 137.469  0.00  0.00    +0.000 OA
ATOM      4  C   UNL     1     113.129 125.641 136.877  0.00  0.00    +0.000 A 
ATOM      5  C   UNL     1     112.464 126.017 136.563  0.00  0.00    +0.000 A 
ATOM      6  C   UNL     1     113.153 124.818 136.923  0.00  0.00    +0.000 A 
ATOM      7  C   UNL     1     113.089 127.346 136.785  0.00  0.00    +0.000 A 
ATOM      8  C   UNL     1     111.824 125.568 136.297  0.00  0.00    +0.000 A 
ATOM      9  C   UNL     1     113.801 126.097 137.157  0.00  0.00    +0.000 A 
ATOM     10  C   UNL     1     112.515 124.370 136.657  0.00  0.00    +0.000 A 
ATOM     11  C   UNL     1     111.850 124.745 136.344  0.00  0.00    +0.000 A 
ATOM     12  C   UNL     1     113.781 126.955 137.111  0.00  0.00    +0.000 A 
ENDROOT
BRANCH   7  13
ATOM     13  C   UNL     1     113.062 128.169 136.737  0.00  0.00    +0.000 A 
ATOM     14  C   UNL     1     113.351 128.553 136.066  0.00  0.00    +0.000 A 
ATOM     15  C   UNL     1     112.745 128.608 137.358  0.00  0.00    +0.000 A 
ATOM     16  C   UNL     1     113.324 129.375 136.017  0.00  0.00    +0.000 A 
ATOM     17  C   UNL     1     113.007 129.815 136.640  0.00  0.00    +0.000 A 
ATOM     18  C   UNL     1     112.717 129.432 137.310  0.00  0.00    +0.000 A 
BRANCH  16  19
ATOM     19  O   UNL     1     113.613 129.759 135.346  0.00  0.00    +0.000 OA
ATOM     20  C   UNL     1     113.911 129.319 134.715  0.00  0.00    +0.000 C 
ENDBRANCH  16  19
BRANCH  17  21
ATOM     21  O   UNL     1     112.979 130.638 136.591  0.00  0.00    +0.000 OA
ATOM     22  C   UNL     1     112.679 131.078 137.220  0.00  0.00    +0.000 C 
ENDBRANCH  17  21
ENDBRANCH   7  13
BRANCH   6  23
ATOM     23  O   UNL     1     113.818 124.443 137.236  0.00  0.00    +0.000 OA
ATOM     24  C   UNL     1     114.568 124.611 136.936  0.00  0.00    +0.000 C 
ENDBRANCH   6  23
BRANCH   8  25
ATOM     25  O   UNL     1     111.160 125.943 135.984  0.00  0.00    +0.000 OA
ATOM     26  C   UNL     1     110.898 125.753 135.226  0.00  0.00    +0.000 C 
ENDBRANCH   8  25
BRANCH  10  27
ATOM     27  O   UNL     1     112.539 123.547 136.704  0.00  0.00    +0.000 OA
ATOM     28  C   UNL     1     112.053 123.149 137.238  0.00  0.00    +0.000 C 
ENDBRANCH  10  27
TORSDOF 6
ENDMDL
MODEL 9
REMARK VINA RESULT:      -7.3      8.823     10.395
REMARK  Name = 10452846
REMARK  6 active torsions:
REMARK  status: ('A' for Active; 'I' for Inactive)
REMARK    1  A    between atoms: O_2  and  C_11
REMARK    2  A    between atoms: O_3  and  C_13
REMARK    3  A    between atoms: O_4  and  C_15
REMARK    4  A    between atoms: O_7  and  C_21
REMARK    5  A    between atoms: O_8  and  C_22
REMARK    6  A    between atoms: C_12  and  C_16
REMARK                            x       y       z     vdW  Elec       q    Type
REMARK                         _______ _______ _______ _____ _____    ______ ____
ROOT
ATOM      1  O   UNL     1     103.299 132.133 140.967  0.00  0.00    +0.000 OA
ATOM      2  O   UNL     1     103.640 134.895 140.222  0.00  0.00    +0.000 OA
ATOM      3  O   UNL     1     101.259 132.784 142.318  0.00  0.00    +0.000 OA
ATOM      4  C   UNL     1     102.372 133.159 141.449  0.00  0.00    +0.000 A 
ATOM      5  C   UNL     1     103.037 132.949 141.008  0.00  0.00    +0.000 A 
ATOM      6  C   UNL     1     102.130 133.947 141.481  0.00  0.00    +0.000 A 
ATOM      7  C   UNL     1     102.863 131.525 141.391  0.00  0.00    +0.000 A 
ATOM      8  C   UNL     1     103.460 133.528 140.599  0.00  0.00    +0.000 A 
ATOM      9  C   UNL     1     101.923 132.566 141.879  0.00  0.00    +0.000 A 
ATOM     10  C   UNL     1     102.552 134.525 141.072  0.00  0.00    +0.000 A 
ATOM     11  C   UNL     1     103.217 134.316 140.631  0.00  0.00    +0.000 A 
ATOM     12  C   UNL     1     102.171 131.743 141.850  0.00  0.00    +0.000 A 
ENDROOT
BRANCH   7  13
ATOM     13  C   UNL     1     103.108 130.738 141.357  0.00  0.00    +0.000 A 
ATOM     14  C   UNL     1     102.855 130.254 140.738  0.00  0.00    +0.000 A 
ATOM     15  C   UNL     1     103.604 130.434 141.941  0.00  0.00    +0.000 A 
ATOM     16  C   UNL     1     103.099 129.467 140.703  0.00  0.00    +0.000 A 
ATOM     17  C   UNL     1     103.597 129.163 141.289  0.00  0.00    +0.000 A 
ATOM     18  C   UNL     1     103.849 129.647 141.907  0.00  0.00    +0.000 A 
BRANCH  16  19
ATOM     19  O   UNL     1     102.847 128.983 140.085  0.00  0.00    +0.000 OA
ATOM     20  C   UNL     1     102.277 129.255 139.554  0.00  0.00    +0.000 C 
ENDBRANCH  16  19
BRANCH  17  21
ATOM     21  O   UNL     1     103.841 128.376 141.254  0.00  0.00    +0.000 OA
ATOM     22  C   UNL     1     104.502 128.131 141.681  0.00  0.00    +0.000 C 
ENDBRANCH  17  21
ENDBRANCH   7  13
BRANCH   6  23
ATOM     23  O   UNL     1     101.464 134.156 141.922  0.00  0.00    +0.000 OA
ATOM     24  C   UNL     1     100.711 133.953 141.655  0.00  0.00    +0.000 C 
ENDBRANCH   6  23
BRANCH   8  25
ATOM     25  O   UNL     1     104.124 133.319 140.159  0.00  0.00    +0.000 OA
ATOM     26  C   UNL     1     104.171 133.523 139.361  0.00  0.00    +0.000 C 
ENDBRANCH   8  25
BRANCH  10  27
ATOM     27  O   UNL     1     102.310 135.313 141.104  0.00  0.00    +0.000 OA
ATOM     28  C   UNL     1     102.777 135.874 141.489  0.00  0.00    +0.000 C 
ENDBRANCH  10  27
TORSDOF 6
ENDMDL
MODEL 10
REMARK VINA RESULT:      -7.3      2.379      4.407
REMARK  Name = 10452846
REMARK  6 active torsions:
REMARK  status: ('A' for Active; 'I' for Inactive)
REMARK    1  A    between atoms: O_2  and  C_11
REMARK    2  A    between atoms: O_3  and  C_13
REMARK    3  A    between atoms: O_4  and  C_15
REMARK    4  A    between atoms: O_7  and  C_21
REMARK    5  A    between atoms: O_8  and  C_22
REMARK    6  A    between atoms: C_12  and  C_16
REMARK                            x       y       z     vdW  Elec       q    Type
REMARK                         _______ _______ _______ _____ _____    ______ ____
ROOT
ATOM      1  O   UNL     1     106.351 125.222 145.793  0.00  0.00    +0.000 OA
ATOM      2  O   UNL     1     105.543 124.880 143.049  0.00  0.00    +0.000 OA
ATOM      3  O   UNL     1     106.504 127.719 145.402  0.00  0.00    +0.000 OA
ATOM      4  C   UNL     1     106.221 126.377 144.901  0.00  0.00    +0.000 A 
ATOM      5  C   UNL     1     106.171 125.563 145.026  0.00  0.00    +0.000 A 
ATOM      6  C   UNL     1     106.046 126.691 144.158  0.00  0.00    +0.000 A 
ATOM      7  C   UNL     1     106.588 125.737 146.441  0.00  0.00    +0.000 A 
ATOM      8  C   UNL     1     105.945 125.063 144.408  0.00  0.00    +0.000 A 
ATOM      9  C   UNL     1     106.456 126.906 145.535  0.00  0.00    +0.000 A 
ATOM     10  C   UNL     1     105.820 126.193 143.542  0.00  0.00    +0.000 A 
ATOM     11  C   UNL     1     105.769 125.379 143.667  0.00  0.00    +0.000 A 
ATOM     12  C   UNL     1     106.640 126.584 146.311  0.00  0.00    +0.000 A 
ENDROOT
BRANCH   7  13
ATOM     13  C   UNL     1     106.763 125.419 147.181  0.00  0.00    +0.000 A 
ATOM     14  C   UNL     1     106.153 125.237 147.707  0.00  0.00    +0.000 A 
ATOM     15  C   UNL     1     107.547 125.283 147.398  0.00  0.00    +0.000 A 
ATOM     16  C   UNL     1     106.327 124.919 148.448  0.00  0.00    +0.000 A 
ATOM     17  C   UNL     1     107.112 124.783 148.664  0.00  0.00    +0.000 A 
ATOM     18  C   UNL     1     107.722 124.965 148.139  0.00  0.00    +0.000 A 
BRANCH  16  19
ATOM     19  O   UNL     1     105.717 124.737 148.973  0.00  0.00    +0.000 OA
ATOM     20  C   UNL     1     104.931 124.804 148.731  0.00  0.00    +0.000 C 
ENDBRANCH  16  19
BRANCH  17  21
ATOM     21  O   UNL     1     107.287 124.465 149.404  0.00  0.00    +0.000 OA
ATOM     22  C   UNL     1     108.069 124.309 149.612  0.00  0.00    +0.000 C 
ENDBRANCH  17  21
ENDBRANCH   7  13
BRANCH   6  23
ATOM     23  O   UNL     1     106.096 127.505 144.034  0.00  0.00    +0.000 OA
ATOM     24  C   UNL     1     105.540 128.010 144.374  0.00  0.00    +0.000 C 
ENDBRANCH   6  23
BRANCH   8  25
ATOM     25  O   UNL     1     105.894 124.250 144.533  0.00  0.00    +0.000 OA
ATOM     26  C   UNL     1     105.164 123.870 144.485  0.00  0.00    +0.000 C 
ENDBRANCH   8  25
BRANCH  10  27
ATOM     27  O   UNL     1     105.644 126.508 142.799  0.00  0.00    +0.000 OA
ATOM     28  C   UNL     1     106.154 126.379 142.165  0.00  0.00    +0.000 C 
ENDBRANCH  10  27
TORSDOF 6
ENDMDL
