MODEL 1
REMARK VINA RESULT:      -8.0      0.000      0.000
REMARK  Name = 
REMARK  5 active torsions:
REMARK  status: ('A' for Active; 'I' for Inactive)
REMARK    1  A    between atoms: C_6  and  C_8
REMARK    2  A    between atoms: C_11  and  O_13
REMARK    3  A    between atoms: C_15  and  O_19
REMARK    4  A    between atoms: C_20  and  O_23
REMARK    5  A    between atoms: C_21  and  O_25
REMARK                            x       y       z     vdW  Elec       q    Type
REMARK                         _______ _______ _______ _____ _____    ______ ____
ROOT
ATOM      1  C   UNL     1     112.569 125.860 136.608  0.00  0.00    +0.000 A 
ATOM      2  O   UNL     1     112.406 126.613 136.315  0.00  0.00    +0.000 OA
ATOM      3  C   UNL     1     112.059 125.233 136.441  0.00  0.00    +0.000 A 
ATOM      4  C   UNL     1     111.734 126.740 135.854  0.00  0.00    +0.000 A 
ATOM      5  C   UNL     1     111.387 125.359 135.981  0.00  0.00    +0.000 A 
ATOM      6  C   UNL     1     111.571 127.493 135.560  0.00  0.00    +0.000 A 
ATOM      7  C   UNL     1     111.223 126.113 135.687  0.00  0.00    +0.000 A 
ATOM      8  O   UNL     1     110.877 124.733 135.814  0.00  0.00    +0.000 OA
ATOM      9  C   UNL     1     110.899 127.621 135.099  0.00  0.00    +0.000 A 
ATOM     10  C   UNL     1     110.551 126.240 135.227  0.00  0.00    +0.000 A 
ATOM     11  C   UNL     1     110.388 126.993 134.932  0.00  0.00    +0.000 A 
ENDROOT
BRANCH   1  17
ATOM     12 CL   UNL     1     113.948 126.119 139.097  0.00  0.00    +0.000 Cl
ATOM     13  C   UNL     1     113.930 125.863 138.314  0.00  0.00    +0.000 A 
ATOM     14  C   UNL     1     113.259 125.989 137.853  0.00  0.00    +0.000 A 
ATOM     15  C   UNL     1     114.585 125.478 137.991  0.00  0.00    +0.000 A 
ATOM     16  O   UNL     1     112.603 126.374 138.176  0.00  0.00    +0.000 OA
ATOM     17  C   UNL     1     113.242 125.732 137.069  0.00  0.00    +0.000 A 
ATOM     18  C   UNL     1     114.568 125.221 137.208  0.00  0.00    +0.000 A 
ATOM     19  C   UNL     1     113.896 125.349 136.747  0.00  0.00    +0.000 A 
ENDBRANCH   1  17
BRANCH   3  20
ATOM     20  O   UNL     1     112.222 124.479 136.735  0.00  0.00    +0.000 OA
ATOM     21  C   UNL     1     111.772 123.833 136.490  0.00  0.00    +0.000 C 
ENDBRANCH   3  20
BRANCH   6  22
ATOM     22  O   UNL     1     112.081 128.120 135.727  0.00  0.00    +0.000 OA
ATOM     23  C   UNL     1     112.528 128.461 135.122  0.00  0.00    +0.000 C 
ENDBRANCH   6  22
BRANCH   9  24
ATOM     24  O   UNL     1     110.736 128.374 134.806  0.00  0.00    +0.000 OA
ATOM     25  C   UNL     1     109.954 128.625 134.722  0.00  0.00    +0.000 C 
ENDBRANCH   9  24
BRANCH  10  26
ATOM     26  O   UNL     1     110.041 125.613 135.060  0.00  0.00    +0.000 OA
ATOM     27  C   UNL     1     109.360 125.743 134.613  0.00  0.00    +0.000 C 
ENDBRANCH  10  26
TORSDOF 5
ENDMDL
MODEL 2
REMARK VINA RESULT:      -8.0     12.515     13.281
REMARK  Name = 
REMARK  5 active torsions:
REMARK  status: ('A' for Active; 'I' for Inactive)
REMARK    1  A    between atoms: C_6  and  C_8
REMARK    2  A    between atoms: C_11  and  O_13
REMARK    3  A    between atoms: C_15  and  O_19
REMARK    4  A    between atoms: C_20  and  O_23
REMARK    5  A    between atoms: C_21  and  O_25
REMARK                            x       y       z     vdW  Elec       q    Type
REMARK                         _______ _______ _______ _____ _____    ______ ____
ROOT
ATOM      1  C   UNL     1     105.302 124.906 146.824  0.00  0.00    +0.000 A 
ATOM      2  O   UNL     1     104.710 124.828 147.392  0.00  0.00    +0.000 OA
ATOM      3  C   UNL     1     105.201 124.573 146.075  0.00  0.00    +0.000 A 
ATOM      4  C   UNL     1     104.016 124.419 147.213  0.00  0.00    +0.000 A 
ATOM      5  C   UNL     1     104.508 124.165 145.895  0.00  0.00    +0.000 A 
ATOM      6  C   UNL     1     103.424 124.342 147.781  0.00  0.00    +0.000 A 
ATOM      7  C   UNL     1     103.915 124.087 146.464  0.00  0.00    +0.000 A 
ATOM      8  O   UNL     1     104.408 123.833 145.147  0.00  0.00    +0.000 OA
ATOM      9  C   UNL     1     102.730 123.933 147.602  0.00  0.00    +0.000 A 
ATOM     10  C   UNL     1     103.222 123.678 146.284  0.00  0.00    +0.000 A 
ATOM     11  C   UNL     1     102.629 123.601 146.853  0.00  0.00    +0.000 A 
ENDROOT
BRANCH   1  17
ATOM     12 CL   UNL     1     107.866 124.995 148.082  0.00  0.00    +0.000 Cl
ATOM     13  C   UNL     1     107.278 125.359 147.633  0.00  0.00    +0.000 A 
ATOM     14  C   UNL     1     106.584 124.951 147.453  0.00  0.00    +0.000 A 
ATOM     15  C   UNL     1     107.383 126.131 147.362  0.00  0.00    +0.000 A 
ATOM     16  O   UNL     1     106.479 124.178 147.723  0.00  0.00    +0.000 OA
ATOM     17  C   UNL     1     105.996 125.315 147.003  0.00  0.00    +0.000 A 
ATOM     18  C   UNL     1     106.795 126.495 146.913  0.00  0.00    +0.000 A 
ATOM     19  C   UNL     1     106.102 126.087 146.734  0.00  0.00    +0.000 A 
ENDBRANCH   1  17
BRANCH   3  20
ATOM     20  O   UNL     1     105.795 124.651 145.506  0.00  0.00    +0.000 OA
ATOM     21  C   UNL     1     105.609 124.590 144.705  0.00  0.00    +0.000 C 
ENDBRANCH   3  20
BRANCH   6  22
ATOM     22  O   UNL     1     103.525 124.674 148.530  0.00  0.00    +0.000 OA
ATOM     23  C   UNL     1     103.086 125.339 148.749  0.00  0.00    +0.000 C 
ENDBRANCH   6  22
BRANCH   9  24
ATOM     24  O   UNL     1     102.138 123.856 148.170  0.00  0.00    +0.000 OA
ATOM     25  C   UNL     1     101.692 123.162 148.211  0.00  0.00    +0.000 C 
ENDBRANCH   9  24
BRANCH  10  26
ATOM     26  O   UNL     1     103.121 123.346 145.536  0.00  0.00    +0.000 OA
ATOM     27  C   UNL     1     102.458 122.883 145.375  0.00  0.00    +0.000 C 
ENDBRANCH  10  26
TORSDOF 5
ENDMDL
MODEL 3
REMARK VINA RESULT:      -7.9     12.771     13.567
REMARK  Name = 
REMARK  5 active torsions:
REMARK  status: ('A' for Active; 'I' for Inactive)
REMARK    1  A    between atoms: C_6  and  C_8
REMARK    2  A    between atoms: C_11  and  O_13
REMARK    3  A    between atoms: C_15  and  O_19
REMARK    4  A    between atoms: C_20  and  O_23
REMARK    5  A    between atoms: C_21  and  O_25
REMARK                            x       y       z     vdW  Elec       q    Type
REMARK                         _______ _______ _______ _____ _____    ______ ____
ROOT
ATOM      1  C   UNL     1     105.323 124.738 147.738  0.00  0.00    +0.000 A 
ATOM      2  O   UNL     1     105.091 124.302 147.078  0.00  0.00    +0.000 OA
ATOM      3  C   UNL     1     104.754 125.070 148.235  0.00  0.00    +0.000 A 
ATOM      4  C   UNL     1     104.289 124.196 146.914  0.00  0.00    +0.000 A 
ATOM      5  C   UNL     1     103.952 124.965 148.071  0.00  0.00    +0.000 A 
ATOM      6  C   UNL     1     104.057 123.760 146.254  0.00  0.00    +0.000 A 
ATOM      7  C   UNL     1     103.719 124.529 147.411  0.00  0.00    +0.000 A 
ATOM      8  O   UNL     1     103.383 125.297 148.568  0.00  0.00    +0.000 OA
ATOM      9  C   UNL     1     103.255 123.655 146.090  0.00  0.00    +0.000 A 
ATOM     10  C   UNL     1     102.918 124.424 147.247  0.00  0.00    +0.000 A 
ATOM     11  C   UNL     1     102.685 123.987 146.587  0.00  0.00    +0.000 A 
ENDROOT
BRANCH   1  17
ATOM     12 CL   UNL     1     107.790 126.095 147.251  0.00  0.00    +0.000 Cl
ATOM     13  C   UNL     1     107.359 125.522 147.658  0.00  0.00    +0.000 A 
ATOM     14  C   UNL     1     106.557 125.416 147.495  0.00  0.00    +0.000 A 
ATOM     15  C   UNL     1     107.728 125.055 148.229  0.00  0.00    +0.000 A 
ATOM     16  O   UNL     1     106.188 125.884 146.923  0.00  0.00    +0.000 OA
ATOM     17  C   UNL     1     106.125 124.843 147.902  0.00  0.00    +0.000 A 
ATOM     18  C   UNL     1     107.296 124.483 148.636  0.00  0.00    +0.000 A 
ATOM     19  C   UNL     1     106.495 124.377 148.472  0.00  0.00    +0.000 A 
ENDBRANCH   1  17
BRANCH   3  20
ATOM     20  O   UNL     1     104.987 125.507 148.895  0.00  0.00    +0.000 OA
ATOM     21  C   UNL     1     104.450 125.654 149.503  0.00  0.00    +0.000 C 
ENDBRANCH   3  20
BRANCH   6  22
ATOM     22  O   UNL     1     104.626 123.428 145.758  0.00  0.00    +0.000 OA
ATOM     23  C   UNL     1     104.681 123.673 144.971  0.00  0.00    +0.000 C 
ENDBRANCH   6  22
BRANCH   9  24
ATOM     24  O   UNL     1     103.022 123.218 145.430  0.00  0.00    +0.000 OA
ATOM     25  C   UNL     1     102.320 122.785 145.448  0.00  0.00    +0.000 C 
ENDBRANCH   9  24
BRANCH  10  26
ATOM     26  O   UNL     1     102.349 124.755 147.744  0.00  0.00    +0.000 OA
ATOM     27  C   UNL     1     101.548 124.682 147.561  0.00  0.00    +0.000 C 
ENDBRANCH  10  26
TORSDOF 5
ENDMDL
MODEL 4
REMARK VINA RESULT:      -7.5      2.568      4.099
REMARK  Name = 
REMARK  5 active torsions:
REMARK  status: ('A' for Active; 'I' for Inactive)
REMARK    1  A    between atoms: C_6  and  C_8
REMARK    2  A    between atoms: C_11  and  O_13
REMARK    3  A    between atoms: C_15  and  O_19
REMARK    4  A    between atoms: C_20  and  O_23
REMARK    5  A    between atoms: C_21  and  O_25
REMARK                            x       y       z     vdW  Elec       q    Type
REMARK                         _______ _______ _______ _____ _____    ______ ____
ROOT
ATOM      1  C   UNL     1     113.210 125.983 138.335  0.00  0.00    +0.000 A 
ATOM      2  O   UNL     1     113.474 126.443 138.966  0.00  0.00    +0.000 OA
ATOM      3  C   UNL     1     112.431 125.709 138.322  0.00  0.00    +0.000 A 
ATOM      4  C   UNL     1     112.962 126.630 139.585  0.00  0.00    +0.000 A 
ATOM      5  C   UNL     1     111.918 125.895 138.940  0.00  0.00    +0.000 A 
ATOM      6  C   UNL     1     113.226 127.090 140.215  0.00  0.00    +0.000 A 
ATOM      7  C   UNL     1     112.182 126.356 139.572  0.00  0.00    +0.000 A 
ATOM      8  O   UNL     1     111.140 125.621 138.927  0.00  0.00    +0.000 OA
ATOM      9  C   UNL     1     112.713 127.277 140.834  0.00  0.00    +0.000 A 
ATOM     10  C   UNL     1     111.670 126.542 140.190  0.00  0.00    +0.000 A 
ATOM     11  C   UNL     1     111.934 127.003 140.821  0.00  0.00    +0.000 A 
ENDROOT
BRANCH   1  17
ATOM     12 CL   UNL     1     114.520 126.710 135.902  0.00  0.00    +0.000 Cl
ATOM     13  C   UNL     1     114.377 126.160 136.499  0.00  0.00    +0.000 A 
ATOM     14  C   UNL     1     113.865 126.346 137.118  0.00  0.00    +0.000 A 
ATOM     15  C   UNL     1     114.747 125.423 136.479  0.00  0.00    +0.000 A 
ATOM     16  O   UNL     1     113.495 127.084 137.140  0.00  0.00    +0.000 OA
ATOM     17  C   UNL     1     113.723 125.796 137.716  0.00  0.00    +0.000 A 
ATOM     18  C   UNL     1     114.605 124.873 137.076  0.00  0.00    +0.000 A 
ATOM     19  C   UNL     1     114.093 125.059 137.695  0.00  0.00    +0.000 A 
ENDBRANCH   1  17
BRANCH   3  20
ATOM     20  O   UNL     1     112.166 125.248 137.691  0.00  0.00    +0.000 OA
ATOM     21  C   UNL     1     111.501 124.769 137.779  0.00  0.00    +0.000 C 
ENDBRANCH   3  20
BRANCH   6  22
ATOM     22  O   UNL     1     114.004 127.364 140.228  0.00  0.00    +0.000 OA
ATOM     23  C   UNL     1     114.535 127.073 140.789  0.00  0.00    +0.000 C 
ENDBRANCH   6  22
BRANCH   9  24
ATOM     24  O   UNL     1     112.978 127.737 141.465  0.00  0.00    +0.000 OA
ATOM     25  C   UNL     1     112.459 128.254 141.846  0.00  0.00    +0.000 C 
ENDBRANCH   9  24
BRANCH  10  26
ATOM     26  O   UNL     1     110.892 126.269 140.177  0.00  0.00    +0.000 OA
ATOM     27  C   UNL     1     110.387 126.429 140.809  0.00  0.00    +0.000 C 
ENDBRANCH  10  26
TORSDOF 5
ENDMDL
MODEL 5
REMARK VINA RESULT:      -7.4      2.209      4.460
REMARK  Name = 
REMARK  5 active torsions:
REMARK  status: ('A' for Active; 'I' for Inactive)
REMARK    1  A    between atoms: C_6  and  C_8
REMARK    2  A    between atoms: C_11  and  O_13
REMARK    3  A    between atoms: C_15  and  O_19
REMARK    4  A    between atoms: C_20  and  O_23
REMARK    5  A    between atoms: C_21  and  O_25
REMARK                            x       y       z     vdW  Elec       q    Type
REMARK                         _______ _______ _______ _____ _____    ______ ____
ROOT
ATOM      1  C   UNL     1     112.343 125.712 137.996  0.00  0.00    +0.000 A 
ATOM      2  O   UNL     1     111.848 126.017 138.580  0.00  0.00    +0.000 OA
ATOM      3  C   UNL     1     113.163 125.758 138.084  0.00  0.00    +0.000 A 
ATOM      4  C   UNL     1     112.171 126.369 139.253  0.00  0.00    +0.000 A 
ATOM      5  C   UNL     1     113.486 126.110 138.756  0.00  0.00    +0.000 A 
ATOM      6  C   UNL     1     111.676 126.674 139.837  0.00  0.00    +0.000 A 
ATOM      7  C   UNL     1     112.991 126.415 139.341  0.00  0.00    +0.000 A 
ATOM      8  O   UNL     1     114.305 126.156 138.844  0.00  0.00    +0.000 OA
ATOM      9  C   UNL     1     111.999 127.026 140.510  0.00  0.00    +0.000 A 
ATOM     10  C   UNL     1     113.314 126.767 140.013  0.00  0.00    +0.000 A 
ATOM     11  C   UNL     1     112.819 127.073 140.598  0.00  0.00    +0.000 A 
ENDROOT
BRANCH   1  17
ATOM     12 CL   UNL     1     111.108 125.950 135.431  0.00  0.00    +0.000 Cl
ATOM     13  C   UNL     1     111.403 125.479 136.040  0.00  0.00    +0.000 A 
ATOM     14  C   UNL     1     111.726 125.830 136.713  0.00  0.00    +0.000 A 
ATOM     15  C   UNL     1     111.375 124.657 135.978  0.00  0.00    +0.000 A 
ATOM     16  O   UNL     1     111.754 126.653 136.776  0.00  0.00    +0.000 OA
ATOM     17  C   UNL     1     112.020 125.359 137.323  0.00  0.00    +0.000 A 
ATOM     18  C   UNL     1     111.669 124.187 136.588  0.00  0.00    +0.000 A 
ATOM     19  C   UNL     1     111.992 124.538 137.260  0.00  0.00    +0.000 A 
ENDBRANCH   1  17
BRANCH   3  20
ATOM     20  O   UNL     1     113.658 125.453 137.499  0.00  0.00    +0.000 OA
ATOM     21  C   UNL     1     114.440 125.262 137.677  0.00  0.00    +0.000 C 
ENDBRANCH   3  20
BRANCH   6  22
ATOM     22  O   UNL     1     110.857 126.627 139.750  0.00  0.00    +0.000 OA
ATOM     23  C   UNL     1     110.417 126.127 140.237  0.00  0.00    +0.000 C 
ENDBRANCH   6  22
BRANCH   9  24
ATOM     24  O   UNL     1     111.504 127.331 141.094  0.00  0.00    +0.000 OA
ATOM     25  C   UNL     1     111.763 127.951 141.574  0.00  0.00    +0.000 C 
ENDBRANCH   9  24
BRANCH  10  26
ATOM     26  O   UNL     1     114.133 126.814 140.101  0.00  0.00    +0.000 OA
ATOM     27  C   UNL     1     114.457 127.147 140.782  0.00  0.00    +0.000 C 
ENDBRANCH  10  26
TORSDOF 5
ENDMDL
MODEL 6
REMARK VINA RESULT:      -7.3      1.617      3.451
REMARK  Name = 
REMARK  5 active torsions:
REMARK  status: ('A' for Active; 'I' for Inactive)
REMARK    1  A    between atoms: C_6  and  C_8
REMARK    2  A    between atoms: C_11  and  O_13
REMARK    3  A    between atoms: C_15  and  O_19
REMARK    4  A    between atoms: C_20  and  O_23
REMARK    5  A    between atoms: C_21  and  O_25
REMARK                            x       y       z     vdW  Elec       q    Type
REMARK                         _______ _______ _______ _____ _____    ______ ____
ROOT
ATOM      1  C   UNL     1     113.001 128.210 136.093  0.00  0.00    +0.000 A 
ATOM      2  O   UNL     1     113.266 127.487 136.387  0.00  0.00    +0.000 OA
ATOM      3  C   UNL     1     112.262 128.261 135.729  0.00  0.00    +0.000 A 
ATOM      4  C   UNL     1     112.793 126.814 136.319  0.00  0.00    +0.000 A 
ATOM      5  C   UNL     1     111.789 127.590 135.660  0.00  0.00    +0.000 A 
ATOM      6  C   UNL     1     113.057 126.091 136.613  0.00  0.00    +0.000 A 
ATOM      7  C   UNL     1     112.053 126.866 135.955  0.00  0.00    +0.000 A 
ATOM      8  O   UNL     1     111.050 127.641 135.297  0.00  0.00    +0.000 OA
ATOM      9  C   UNL     1     112.584 125.418 136.544  0.00  0.00    +0.000 A 
ATOM     10  C   UNL     1     111.580 126.194 135.886  0.00  0.00    +0.000 A 
ATOM     11  C   UNL     1     111.845 125.470 136.180  0.00  0.00    +0.000 A 
ENDROOT
BRANCH   1  17
ATOM     12 CL   UNL     1     113.986 130.392 137.651  0.00  0.00    +0.000 Cl
ATOM     13  C   UNL     1     113.967 129.974 136.942  0.00  0.00    +0.000 A 
ATOM     14  C   UNL     1     113.494 129.301 136.872  0.00  0.00    +0.000 A 
ATOM     15  C   UNL     1     114.420 130.226 136.301  0.00  0.00    +0.000 A 
ATOM     16  O   UNL     1     113.040 129.048 137.514  0.00  0.00    +0.000 OA
ATOM     17  C   UNL     1     113.475 128.882 136.162  0.00  0.00    +0.000 A 
ATOM     18  C   UNL     1     114.401 129.807 135.590  0.00  0.00    +0.000 A 
ATOM     19  C   UNL     1     113.928 129.135 135.521  0.00  0.00    +0.000 A 
ENDBRANCH   1  17
BRANCH   3  20
ATOM     20  O   UNL     1     111.997 128.985 135.435  0.00  0.00    +0.000 OA
ATOM     21  C   UNL     1     111.426 129.006 134.840  0.00  0.00    +0.000 C 
ENDBRANCH   3  20
BRANCH   6  22
ATOM     22  O   UNL     1     113.796 126.039 136.977  0.00  0.00    +0.000 OA
ATOM     23  C   UNL     1     114.414 125.639 136.602  0.00  0.00    +0.000 C 
ENDBRANCH   6  22
BRANCH   9  24
ATOM     24  O   UNL     1     112.849 124.695 136.839  0.00  0.00    +0.000 OA
ATOM     25  C   UNL     1     112.308 124.098 137.016  0.00  0.00    +0.000 C 
ENDBRANCH   9  24
BRANCH  10  26
ATOM     26  O   UNL     1     110.841 126.246 135.522  0.00  0.00    +0.000 OA
ATOM     27  C   UNL     1     110.406 125.561 135.372  0.00  0.00    +0.000 C 
ENDBRANCH  10  26
TORSDOF 5
ENDMDL
MODEL 7
REMARK VINA RESULT:      -7.3     10.483     11.347
REMARK  Name = 
REMARK  5 active torsions:
REMARK  status: ('A' for Active; 'I' for Inactive)
REMARK    1  A    between atoms: C_6  and  C_8
REMARK    2  A    between atoms: C_11  and  O_13
REMARK    3  A    between atoms: C_15  and  O_19
REMARK    4  A    between atoms: C_20  and  O_23
REMARK    5  A    between atoms: C_21  and  O_25
REMARK                            x       y       z     vdW  Elec       q    Type
REMARK                         _______ _______ _______ _____ _____    ______ ____
ROOT
ATOM      1  C   UNL     1     106.523 125.880 146.531  0.00  0.00    +0.000 A 
ATOM      2  O   UNL     1     106.298 125.338 145.952  0.00  0.00    +0.000 OA
ATOM      3  C   UNL     1     106.630 126.675 146.333  0.00  0.00    +0.000 A 
ATOM      4  C   UNL     1     106.180 125.589 145.174  0.00  0.00    +0.000 A 
ATOM      5  C   UNL     1     106.512 126.926 145.557  0.00  0.00    +0.000 A 
ATOM      6  C   UNL     1     105.955 125.047 144.595  0.00  0.00    +0.000 A 
ATOM      7  C   UNL     1     106.287 126.384 144.977  0.00  0.00    +0.000 A 
ATOM      8  O   UNL     1     106.619 127.720 145.359  0.00  0.00    +0.000 OA
ATOM      9  C   UNL     1     105.836 125.298 143.818  0.00  0.00    +0.000 A 
ATOM     10  C   UNL     1     106.168 126.635 144.200  0.00  0.00    +0.000 A 
ATOM     11  C   UNL     1     105.943 126.093 143.620  0.00  0.00    +0.000 A 
ENDROOT
BRANCH   1  17
ATOM     12 CL   UNL     1     108.184 124.663 148.511  0.00  0.00    +0.000 Cl
ATOM     13  C   UNL     1     107.473 125.020 148.298  0.00  0.00    +0.000 A 
ATOM     14  C   UNL     1     107.353 125.271 147.521  0.00  0.00    +0.000 A 
ATOM     15  C   UNL     1     106.880 125.128 148.861  0.00  0.00    +0.000 A 
ATOM     16  O   UNL     1     107.947 125.164 146.957  0.00  0.00    +0.000 OA
ATOM     17  C   UNL     1     106.641 125.630 147.308  0.00  0.00    +0.000 A 
ATOM     18  C   UNL     1     106.168 125.486 148.647  0.00  0.00    +0.000 A 
ATOM     19  C   UNL     1     106.049 125.737 147.871  0.00  0.00    +0.000 A 
ENDBRANCH   1  17
BRANCH   3  20
ATOM     20  O   UNL     1     106.855 127.217 146.913  0.00  0.00    +0.000 OA
ATOM     21  C   UNL     1     106.692 128.019 146.814  0.00  0.00    +0.000 C 
ENDBRANCH   3  20
BRANCH   6  22
ATOM     22  O   UNL     1     105.848 124.253 144.793  0.00  0.00    +0.000 OA
ATOM     23  C   UNL     1     105.086 123.936 144.830  0.00  0.00    +0.000 C 
ENDBRANCH   6  22
BRANCH   9  24
ATOM     24  O   UNL     1     105.611 124.756 143.239  0.00  0.00    +0.000 OA
ATOM     25  C   UNL     1     105.912 124.820 142.473  0.00  0.00    +0.000 C 
ENDBRANCH   9  24
BRANCH  10  26
ATOM     26  O   UNL     1     106.275 127.429 144.003  0.00  0.00    +0.000 OA
ATOM     27  C   UNL     1     106.064 127.700 143.253  0.00  0.00    +0.000 C 
ENDBRANCH  10  26
TORSDOF 5
ENDMDL
MODEL 8
REMARK VINA RESULT:      -7.3      2.115      3.226
REMARK  Name = 
REMARK  5 active torsions:
REMARK  status: ('A' for Active; 'I' for Inactive)
REMARK    1  A    between atoms: C_6  and  C_8
REMARK    2  A    between atoms: C_11  and  O_13
REMARK    3  A    between atoms: C_15  and  O_19
REMARK    4  A    between atoms: C_20  and  O_23
REMARK    5  A    between atoms: C_21  and  O_25
REMARK                            x       y       z     vdW  Elec       q    Type
REMARK                         _______ _______ _______ _____ _____    ______ ____
ROOT
ATOM      1  C   UNL     1     113.347 126.679 137.593  0.00  0.00    +0.000 A 
ATOM      2  O   UNL     1     113.187 127.248 137.018  0.00  0.00    +0.000 OA
ATOM      3  C   UNL     1     113.284 126.873 138.393  0.00  0.00    +0.000 A 
ATOM      4  C   UNL     1     112.962 128.010 137.241  0.00  0.00    +0.000 A 
ATOM      5  C   UNL     1     113.060 127.634 138.617  0.00  0.00    +0.000 A 
ATOM      6  C   UNL     1     112.801 128.578 136.666  0.00  0.00    +0.000 A 
ATOM      7  C   UNL     1     112.898 128.203 138.041  0.00  0.00    +0.000 A 
ATOM      8  O   UNL     1     112.996 127.827 139.416  0.00  0.00    +0.000 OA
ATOM      9  C   UNL     1     112.577 129.340 136.889  0.00  0.00    +0.000 A 
ATOM     10  C   UNL     1     112.674 128.964 138.265  0.00  0.00    +0.000 A 
ATOM     11  C   UNL     1     112.513 129.533 137.690  0.00  0.00    +0.000 A 
ENDROOT
BRANCH   1  17
ATOM     12 CL   UNL     1     112.657 124.079 136.631  0.00  0.00    +0.000 Cl
ATOM     13  C   UNL     1     113.225 124.617 136.888  0.00  0.00    +0.000 A 
ATOM     14  C   UNL     1     113.002 125.379 137.112  0.00  0.00    +0.000 A 
ATOM     15  C   UNL     1     114.019 124.394 136.923  0.00  0.00    +0.000 A 
ATOM     16  O   UNL     1     112.208 125.603 137.077  0.00  0.00    +0.000 OA
ATOM     17  C   UNL     1     113.572 125.917 137.369  0.00  0.00    +0.000 A 
ATOM     18  C   UNL     1     114.588 124.932 137.180  0.00  0.00    +0.000 A 
ATOM     19  C   UNL     1     114.365 125.694 137.403  0.00  0.00    +0.000 A 
ENDBRANCH   1  17
BRANCH   3  20
ATOM     20  O   UNL     1     113.445 126.303 138.969  0.00  0.00    +0.000 OA
ATOM     21  C   UNL     1     113.601 126.533 139.745  0.00  0.00    +0.000 C 
ENDBRANCH   3  20
BRANCH   6  22
ATOM     22  O   UNL     1     112.865 128.385 135.866  0.00  0.00    +0.000 OA
ATOM     23  C   UNL     1     113.476 128.703 135.412  0.00  0.00    +0.000 C 
ENDBRANCH   6  22
BRANCH   9  24
ATOM     24  O   UNL     1     112.416 129.908 136.314  0.00  0.00    +0.000 OA
ATOM     25  C   UNL     1     111.815 130.461 136.436  0.00  0.00    +0.000 C 
ENDBRANCH   9  24
BRANCH  10  26
ATOM     26  O   UNL     1     112.611 129.157 139.065  0.00  0.00    +0.000 OA
ATOM     27  C   UNL     1     112.460 129.936 139.291  0.00  0.00    +0.000 C 
ENDBRANCH  10  26
TORSDOF 5
ENDMDL
MODEL 9
REMARK VINA RESULT:      -7.2      1.602      4.034
REMARK  Name = 
REMARK  5 active torsions:
REMARK  status: ('A' for Active; 'I' for Inactive)
REMARK    1  A    between atoms: C_6  and  C_8
REMARK    2  A    between atoms: C_11  and  O_13
REMARK    3  A    between atoms: C_15  and  O_19
REMARK    4  A    between atoms: C_20  and  O_23
REMARK    5  A    between atoms: C_21  and  O_25
REMARK                            x       y       z     vdW  Elec       q    Type
REMARK                         _______ _______ _______ _____ _____    ______ ____
ROOT
ATOM      1  C   UNL     1     112.000 127.726 136.014  0.00  0.00    +0.000 A 
ATOM      2  O   UNL     1     111.617 126.997 136.058  0.00  0.00    +0.000 OA
ATOM      3  C   UNL     1     112.813 127.774 136.156  0.00  0.00    +0.000 A 
ATOM      4  C   UNL     1     112.044 126.316 136.243  0.00  0.00    +0.000 A 
ATOM      5  C   UNL     1     113.239 127.093 136.342  0.00  0.00    +0.000 A 
ATOM      6  C   UNL     1     111.660 125.587 136.287  0.00  0.00    +0.000 A 
ATOM      7  C   UNL     1     112.856 126.364 136.386  0.00  0.00    +0.000 A 
ATOM      8  O   UNL     1     114.051 127.141 136.483  0.00  0.00    +0.000 OA
ATOM      9  C   UNL     1     112.087 124.906 136.473  0.00  0.00    +0.000 A 
ATOM     10  C   UNL     1     113.283 125.683 136.571  0.00  0.00    +0.000 A 
ATOM     11  C   UNL     1     112.899 124.954 136.615  0.00  0.00    +0.000 A 
ENDROOT
BRANCH   1  17
ATOM     12 CL   UNL     1     110.267 129.853 136.811  0.00  0.00    +0.000 Cl
ATOM     13  C   UNL     1     110.707 129.471 136.227  0.00  0.00    +0.000 A 
ATOM     14  C   UNL     1     111.134 128.789 136.412  0.00  0.00    +0.000 A 
ATOM     15  C   UNL     1     110.720 129.769 135.459  0.00  0.00    +0.000 A 
ATOM     16  O   UNL     1     111.121 128.491 137.181  0.00  0.00    +0.000 OA
ATOM     17  C   UNL     1     111.574 128.407 135.828  0.00  0.00    +0.000 A 
ATOM     18  C   UNL     1     111.160 129.386 134.875  0.00  0.00    +0.000 A 
ATOM     19  C   UNL     1     111.586 128.706 135.060  0.00  0.00    +0.000 A 
ENDBRANCH   1  17
BRANCH   3  20
ATOM     20  O   UNL     1     113.196 128.503 136.112  0.00  0.00    +0.000 OA
ATOM     21  C   UNL     1     113.993 128.539 135.902  0.00  0.00    +0.000 C 
ENDBRANCH   3  20
BRANCH   6  22
ATOM     22  O   UNL     1     110.849 125.539 136.145  0.00  0.00    +0.000 OA
ATOM     23  C   UNL     1     110.572 125.230 135.431  0.00  0.00    +0.000 C 
ENDBRANCH   6  22
BRANCH   9  24
ATOM     24  O   UNL     1     111.703 124.178 136.517  0.00  0.00    +0.000 OA
ATOM     25  C   UNL     1     111.987 123.591 137.022  0.00  0.00    +0.000 C 
ENDBRANCH   9  24
BRANCH  10  26
ATOM     26  O   UNL     1     114.094 125.731 136.713  0.00  0.00    +0.000 OA
ATOM     27  C   UNL     1     114.525 125.048 136.880  0.00  0.00    +0.000 C 
ENDBRANCH  10  26
TORSDOF 5
ENDMDL
MODEL 10
REMARK VINA RESULT:      -7.2     13.545     14.390
REMARK  Name = 
REMARK  5 active torsions:
REMARK  status: ('A' for Active; 'I' for Inactive)
REMARK    1  A    between atoms: C_6  and  C_8
REMARK    2  A    between atoms: C_11  and  O_13
REMARK    3  A    between atoms: C_15  and  O_19
REMARK    4  A    between atoms: C_20  and  O_23
REMARK    5  A    between atoms: C_21  and  O_25
REMARK                            x       y       z     vdW  Elec       q    Type
REMARK                         _______ _______ _______ _____ _____    ______ ____
ROOT
ATOM      1  C   UNL     1     102.934 123.983 147.556  0.00  0.00    +0.000 A 
ATOM      2  O   UNL     1     103.633 124.322 147.832  0.00  0.00    +0.000 OA
ATOM      3  C   UNL     1     102.849 123.807 146.754  0.00  0.00    +0.000 A 
ATOM      4  C   UNL     1     104.248 124.486 147.307  0.00  0.00    +0.000 A 
ATOM      5  C   UNL     1     103.463 123.971 146.229  0.00  0.00    +0.000 A 
ATOM      6  C   UNL     1     104.947 124.825 147.582  0.00  0.00    +0.000 A 
ATOM      7  C   UNL     1     104.163 124.310 146.504  0.00  0.00    +0.000 A 
ATOM      8  O   UNL     1     103.378 123.795 145.427  0.00  0.00    +0.000 OA
ATOM      9  C   UNL     1     105.562 124.989 147.057  0.00  0.00    +0.000 A 
ATOM     10  C   UNL     1     104.777 124.474 145.979  0.00  0.00    +0.000 A 
ATOM     11  C   UNL     1     105.477 124.813 146.255  0.00  0.00    +0.000 A 
ENDROOT
BRANCH   1  17
ATOM     12 CL   UNL     1     100.711 124.870 149.117  0.00  0.00    +0.000 Cl
ATOM     13  C   UNL     1     101.207 124.263 148.862  0.00  0.00    +0.000 A 
ATOM     14  C   UNL     1     101.822 124.426 148.337  0.00  0.00    +0.000 A 
ATOM     15  C   UNL     1     101.089 123.493 149.131  0.00  0.00    +0.000 A 
ATOM     16  O   UNL     1     101.940 125.197 148.067  0.00  0.00    +0.000 OA
ATOM     17  C   UNL     1     102.319 123.819 148.082  0.00  0.00    +0.000 A 
ATOM     18  C   UNL     1     101.586 122.886 148.876  0.00  0.00    +0.000 A 
ATOM     19  C   UNL     1     102.200 123.049 148.351  0.00  0.00    +0.000 A 
ENDBRANCH   1  17
BRANCH   3  20
ATOM     20  O   UNL     1     102.149 123.467 146.478  0.00  0.00    +0.000 OA
ATOM     21  C   UNL     1     102.152 123.018 145.788  0.00  0.00    +0.000 C 
ENDBRANCH   3  20
BRANCH   6  22
ATOM     22  O   UNL     1     105.032 125.001 148.384  0.00  0.00    +0.000 OA
ATOM     23  C   UNL     1     105.567 124.574 148.846  0.00  0.00    +0.000 C 
ENDBRANCH   6  22
BRANCH   9  24
ATOM     24  O   UNL     1     106.261 125.328 147.333  0.00  0.00    +0.000 OA
ATOM     25  C   UNL     1     106.711 125.809 146.836  0.00  0.00    +0.000 C 
ENDBRANCH   9  24
BRANCH  10  26
ATOM     26  O   UNL     1     104.692 124.298 145.178  0.00  0.00    +0.000 OA
ATOM     27  C   UNL     1     105.333 124.383 144.666  0.00  0.00    +0.000 C 
ENDBRANCH  10  26
TORSDOF 5
ENDMDL
