MODEL 1
REMARK VINA RESULT:      -8.6      0.000      0.000
REMARK  Name = 146492
REMARK  2 active torsions:
REMARK  status: ('A' for Active; 'I' for Inactive)
REMARK    1  A    between atoms: O_2  and  C_10
REMARK    2  A    between atoms: C_4  and  C_5
REMARK                            x       y       z     vdW  Elec       q    Type
REMARK                         _______ _______ _______ _____ _____    ______ ____
ROOT
ATOM      1  O   UNL     1     112.238 125.682 136.200  0.00  0.00    +0.000 OA
ATOM      2  O   UNL     1     112.192 123.311 136.909  0.00  0.00    +0.000 OA
ATOM      3  C   UNL     1     111.546 125.241 136.117  0.00  0.00    +0.000 A 
ATOM      4  C   UNL     1     112.899 124.544 136.756  0.00  0.00    +0.000 A 
ATOM      5  C   UNL     1     112.914 125.334 136.519  0.00  0.00    +0.000 A 
ATOM      6  C   UNL     1     111.531 124.450 136.353  0.00  0.00    +0.000 A 
ATOM      7  C   UNL     1     112.207 124.101 136.673  0.00  0.00    +0.000 A 
ATOM      8  C   UNL     1     113.597 124.169 137.090  0.00  0.00    +0.000 A 
ATOM      9  C   UNL     1     113.629 125.805 136.601  0.00  0.00    +0.000 A 
ATOM     10  C   UNL     1     114.320 124.624 137.179  0.00  0.00    +0.000 A 
ATOM     11  C   UNL     1     114.336 125.447 136.933  0.00  0.00    +0.000 A 
ENDROOT
BRANCH   3  12
ATOM     12  C   UNL     1     110.870 125.589 135.798  0.00  0.00    +0.000 A 
ATOM     13  C   UNL     1     110.328 125.965 136.292  0.00  0.00    +0.000 A 
ATOM     14  C   UNL     1     110.736 125.561 134.984  0.00  0.00    +0.000 A 
ATOM     15  C   UNL     1     109.651 126.314 135.973  0.00  0.00    +0.000 A 
ATOM     16  C   UNL     1     110.060 125.909 134.665  0.00  0.00    +0.000 A 
ATOM     17  C   UNL     1     109.518 126.285 135.160  0.00  0.00    +0.000 A 
BRANCH  13  18
ATOM     18  O   UNL     1     110.461 125.994 137.106  0.00  0.00    +0.000 OA
ATOM     19  C   UNL     1     109.919 126.371 137.600  0.00  0.00    +0.000 C 
ENDBRANCH  13  18
ENDBRANCH   3  12
TORSDOF 2
ENDMDL
MODEL 2
REMARK VINA RESULT:      -7.8      0.559      3.600
REMARK  Name = 146492
REMARK  2 active torsions:
REMARK  status: ('A' for Active; 'I' for Inactive)
REMARK    1  A    between atoms: O_2  and  C_10
REMARK    2  A    between atoms: C_4  and  C_5
REMARK                            x       y       z     vdW  Elec       q    Type
REMARK                         _______ _______ _______ _____ _____    ______ ____
ROOT
ATOM      1  O   UNL     1     111.585 125.439 135.740  0.00  0.00    +0.000 OA
ATOM      2  O   UNL     1     110.252 126.444 137.567  0.00  0.00    +0.000 OA
ATOM      3  C   UNL     1     111.892 125.468 136.505  0.00  0.00    +0.000 A 
ATOM      4  C   UNL     1     110.392 126.080 136.192  0.00  0.00    +0.000 A 
ATOM      5  C   UNL     1     110.836 125.745 135.583  0.00  0.00    +0.000 A 
ATOM      6  C   UNL     1     111.447 125.803 137.115  0.00  0.00    +0.000 A 
ATOM      7  C   UNL     1     110.697 126.109 136.958  0.00  0.00    +0.000 A 
ATOM      8  C   UNL     1     109.609 126.402 136.042  0.00  0.00    +0.000 A 
ATOM      9  C   UNL     1     110.528 125.709 134.781  0.00  0.00    +0.000 A 
ATOM     10  C   UNL     1     109.285 126.375 135.246  0.00  0.00    +0.000 A 
ATOM     11  C   UNL     1     109.748 126.026 134.612  0.00  0.00    +0.000 A 
ENDROOT
BRANCH   3  12
ATOM     12  C   UNL     1     112.641 125.162 136.662  0.00  0.00    +0.000 A 
ATOM     13  C   UNL     1     112.728 124.367 136.865  0.00  0.00    +0.000 A 
ATOM     14  C   UNL     1     113.305 125.651 136.616  0.00  0.00    +0.000 A 
ATOM     15  C   UNL     1     113.478 124.061 137.022  0.00  0.00    +0.000 A 
ATOM     16  C   UNL     1     114.054 125.345 136.773  0.00  0.00    +0.000 A 
ATOM     17  C   UNL     1     114.141 124.550 136.976  0.00  0.00    +0.000 A 
BRANCH  13  18
ATOM     18  O   UNL     1     112.066 123.878 136.911  0.00  0.00    +0.000 OA
ATOM     19  C   UNL     1     112.151 123.087 137.128  0.00  0.00    +0.000 C 
ENDBRANCH  13  18
ENDBRANCH   3  12
TORSDOF 2
ENDMDL
MODEL 3
REMARK VINA RESULT:      -7.8     11.893     12.936
REMARK  Name = 146492
REMARK  2 active torsions:
REMARK  status: ('A' for Active; 'I' for Inactive)
REMARK    1  A    between atoms: O_2  and  C_10
REMARK    2  A    between atoms: C_4  and  C_5
REMARK                            x       y       z     vdW  Elec       q    Type
REMARK                         _______ _______ _______ _____ _____    ______ ____
ROOT
ATOM      1  O   UNL     1     105.778 124.491 148.223  0.00  0.00    +0.000 OA
ATOM      2  O   UNL     1     107.459 125.397 146.648  0.00  0.00    +0.000 OA
ATOM      3  C   UNL     1     105.547 124.736 147.469  0.00  0.00    +0.000 A 
ATOM      4  C   UNL     1     107.128 124.850 147.927  0.00  0.00    +0.000 A 
ATOM      5  C   UNL     1     106.568 124.548 148.452  0.00  0.00    +0.000 A 
ATOM      6  C   UNL     1     106.107 125.038 146.945  0.00  0.00    +0.000 A 
ATOM      7  C   UNL     1     106.898 125.095 147.173  0.00  0.00    +0.000 A 
ATOM      8  C   UNL     1     107.955 124.915 148.153  0.00  0.00    +0.000 A 
ATOM      9  C   UNL     1     106.795 124.290 149.239  0.00  0.00    +0.000 A 
ATOM     10  C   UNL     1     108.200 124.661 148.936  0.00  0.00    +0.000 A 
ATOM     11  C   UNL     1     107.617 124.347 149.483  0.00  0.00    +0.000 A 
ENDROOT
BRANCH   3  12
ATOM     12  C   UNL     1     104.757 124.679 147.241  0.00  0.00    +0.000 A 
ATOM     13  C   UNL     1     104.227 125.281 147.435  0.00  0.00    +0.000 A 
ATOM     14  C   UNL     1     104.495 124.021 146.818  0.00  0.00    +0.000 A 
ATOM     15  C   UNL     1     103.435 125.224 147.206  0.00  0.00    +0.000 A 
ATOM     16  C   UNL     1     103.705 123.964 146.589  0.00  0.00    +0.000 A 
ATOM     17  C   UNL     1     103.175 124.566 146.784  0.00  0.00    +0.000 A 
BRANCH  13  18
ATOM     18  O   UNL     1     104.487 125.940 147.858  0.00  0.00    +0.000 OA
ATOM     19  C   UNL     1     103.958 126.544 148.047  0.00  0.00    +0.000 C 
ENDBRANCH  13  18
ENDBRANCH   3  12
TORSDOF 2
ENDMDL
MODEL 4
REMARK VINA RESULT:      -7.8     10.013     11.876
REMARK  Name = 146492
REMARK  2 active torsions:
REMARK  status: ('A' for Active; 'I' for Inactive)
REMARK    1  A    between atoms: O_2  and  C_10
REMARK    2  A    between atoms: C_4  and  C_5
REMARK                            x       y       z     vdW  Elec       q    Type
REMARK                         _______ _______ _______ _____ _____    ______ ____
ROOT
ATOM      1  O   UNL     1     102.904 130.497 142.112  0.00  0.00    +0.000 OA
ATOM      2  O   UNL     1     102.676 129.316 139.949  0.00  0.00    +0.000 OA
ATOM      3  C   UNL     1     102.385 130.785 141.538  0.00  0.00    +0.000 A 
ATOM      4  C   UNL     1     103.270 129.423 141.244  0.00  0.00    +0.000 A 
ATOM      5  C   UNL     1     103.346 129.817 141.965  0.00  0.00    +0.000 A 
ATOM      6  C   UNL     1     102.309 130.391 140.817  0.00  0.00    +0.000 A 
ATOM      7  C   UNL     1     102.752 129.710 140.670  0.00  0.00    +0.000 A 
ATOM      8  C   UNL     1     103.726 128.713 141.080  0.00  0.00    +0.000 A 
ATOM      9  C   UNL     1     103.882 129.527 142.571  0.00  0.00    +0.000 A 
ATOM     10  C   UNL     1     104.267 128.409 141.674  0.00  0.00    +0.000 A 
ATOM     11  C   UNL     1     104.345 128.819 142.424  0.00  0.00    +0.000 A 
ENDROOT
BRANCH   3  12
ATOM     12  C   UNL     1     101.943 131.465 141.684  0.00  0.00    +0.000 A 
ATOM     13  C   UNL     1     102.253 132.206 141.498  0.00  0.00    +0.000 A 
ATOM     14  C   UNL     1     101.190 131.405 142.016  0.00  0.00    +0.000 A 
ATOM     15  C   UNL     1     101.811 132.888 141.645  0.00  0.00    +0.000 A 
ATOM     16  C   UNL     1     100.748 132.085 142.163  0.00  0.00    +0.000 A 
ATOM     17  C   UNL     1     101.058 132.826 141.977  0.00  0.00    +0.000 A 
BRANCH  13  18
ATOM     18  O   UNL     1     103.006 132.268 141.166  0.00  0.00    +0.000 OA
ATOM     19  C   UNL     1     103.316 133.009 140.981  0.00  0.00    +0.000 C 
ENDBRANCH  13  18
ENDBRANCH   3  12
TORSDOF 2
ENDMDL
MODEL 5
REMARK VINA RESULT:      -7.5      2.822      4.064
REMARK  Name = 146492
REMARK  2 active torsions:
REMARK  status: ('A' for Active; 'I' for Inactive)
REMARK    1  A    between atoms: O_2  and  C_10
REMARK    2  A    between atoms: C_4  and  C_5
REMARK                            x       y       z     vdW  Elec       q    Type
REMARK                         _______ _______ _______ _____ _____    ______ ____
ROOT
ATOM      1  O   UNL     1     113.961 126.460 139.022  0.00  0.00    +0.000 OA
ATOM      2  O   UNL     1     111.551 126.013 139.361  0.00  0.00    +0.000 OA
ATOM      3  C   UNL     1     113.532 126.056 138.445  0.00  0.00    +0.000 A 
ATOM      4  C   UNL     1     112.784 126.565 139.825  0.00  0.00    +0.000 A 
ATOM      5  C   UNL     1     113.588 126.714 139.712  0.00  0.00    +0.000 A 
ATOM      6  C   UNL     1     112.728 125.907 138.558  0.00  0.00    +0.000 A 
ATOM      7  C   UNL     1     112.354 126.162 139.248  0.00  0.00    +0.000 A 
ATOM      8  C   UNL     1     112.384 126.825 140.540  0.00  0.00    +0.000 A 
ATOM      9  C   UNL     1     114.046 127.134 140.306  0.00  0.00    +0.000 A 
ATOM     10  C   UNL     1     112.826 127.246 141.144  0.00  0.00    +0.000 A 
ATOM     11  C   UNL     1     113.663 127.401 141.026  0.00  0.00    +0.000 A 
ENDROOT
BRANCH   3  12
ATOM     12  C   UNL     1     113.905 125.802 137.755  0.00  0.00    +0.000 A 
ATOM     13  C   UNL     1     113.894 126.277 137.081  0.00  0.00    +0.000 A 
ATOM     14  C   UNL     1     114.290 125.072 137.738  0.00  0.00    +0.000 A 
ATOM     15  C   UNL     1     114.268 126.023 136.390  0.00  0.00    +0.000 A 
ATOM     16  C   UNL     1     114.663 124.817 137.049  0.00  0.00    +0.000 A 
ATOM     17  C   UNL     1     114.652 125.293 136.375  0.00  0.00    +0.000 A 
BRANCH  13  18
ATOM     18  O   UNL     1     113.510 127.007 137.096  0.00  0.00    +0.000 OA
ATOM     19  C   UNL     1     113.509 127.487 136.426  0.00  0.00    +0.000 C 
ENDBRANCH  13  18
ENDBRANCH   3  12
TORSDOF 2
ENDMDL
MODEL 6
REMARK VINA RESULT:      -7.4      2.241      3.981
REMARK  Name = 146492
REMARK  2 active torsions:
REMARK  status: ('A' for Active; 'I' for Inactive)
REMARK    1  A    between atoms: O_2  and  C_10
REMARK    2  A    between atoms: C_4  and  C_5
REMARK                            x       y       z     vdW  Elec       q    Type
REMARK                         _______ _______ _______ _____ _____    ______ ____
ROOT
ATOM      1  O   UNL     1     113.824 127.463 136.395  0.00  0.00    +0.000 OA
ATOM      2  O   UNL     1     111.407 127.251 135.908  0.00  0.00    +0.000 OA
ATOM      3  C   UNL     1     113.434 126.752 136.548  0.00  0.00    +0.000 A 
ATOM      4  C   UNL     1     112.604 128.032 135.919  0.00  0.00    +0.000 A 
ATOM      5  C   UNL     1     113.409 128.103 136.081  0.00  0.00    +0.000 A 
ATOM      6  C   UNL     1     112.628 126.681 136.385  0.00  0.00    +0.000 A 
ATOM      7  C   UNL     1     112.213 127.322 136.071  0.00  0.00    +0.000 A 
ATOM      8  C   UNL     1     112.160 128.691 135.591  0.00  0.00    +0.000 A 
ATOM      9  C   UNL     1     113.827 128.838 135.927  0.00  0.00    +0.000 A 
ATOM     10  C   UNL     1     112.561 129.434 135.431  0.00  0.00    +0.000 A 
ATOM     11  C   UNL     1     113.400 129.507 135.600  0.00  0.00    +0.000 A 
ENDROOT
BRANCH   3  12
ATOM     12  C   UNL     1     113.849 126.113 136.862  0.00  0.00    +0.000 A 
ATOM     13  C   UNL     1     113.880 126.003 137.679  0.00  0.00    +0.000 A 
ATOM     14  C   UNL     1     114.232 125.582 136.360  0.00  0.00    +0.000 A 
ATOM     15  C   UNL     1     114.296 125.363 137.994  0.00  0.00    +0.000 A 
ATOM     16  C   UNL     1     114.647 124.943 136.674  0.00  0.00    +0.000 A 
ATOM     17  C   UNL     1     114.679 124.833 137.491  0.00  0.00    +0.000 A 
BRANCH  13  18
ATOM     18  O   UNL     1     113.497 126.533 138.182  0.00  0.00    +0.000 OA
ATOM     19  C   UNL     1     113.534 126.427 138.999  0.00  0.00    +0.000 C 
ENDBRANCH  13  18
ENDBRANCH   3  12
TORSDOF 2
ENDMDL
MODEL 7
REMARK VINA RESULT:      -7.4     10.716     12.529
REMARK  Name = 146492
REMARK  2 active torsions:
REMARK  status: ('A' for Active; 'I' for Inactive)
REMARK    1  A    between atoms: O_2  and  C_10
REMARK    2  A    between atoms: C_4  and  C_5
REMARK                            x       y       z     vdW  Elec       q    Type
REMARK                         _______ _______ _______ _____ _____    ______ ____
ROOT
ATOM      1  O   UNL     1     106.851 126.241 147.476  0.00  0.00    +0.000 OA
ATOM      2  O   UNL     1     106.452 124.920 145.421  0.00  0.00    +0.000 OA
ATOM      3  C   UNL     1     106.911 125.418 147.497  0.00  0.00    +0.000 A 
ATOM      4  C   UNL     1     106.525 126.183 146.087  0.00  0.00    +0.000 A 
ATOM      5  C   UNL     1     106.658 126.623 146.772  0.00  0.00    +0.000 A 
ATOM      6  C   UNL     1     106.778 124.978 146.812  0.00  0.00    +0.000 A 
ATOM      7  C   UNL     1     106.585 125.360 146.106  0.00  0.00    +0.000 A 
ATOM      8  C   UNL     1     106.323 126.570 145.346  0.00  0.00    +0.000 A 
ATOM      9  C   UNL     1     106.599 127.480 146.764  0.00  0.00    +0.000 A 
ATOM     10  C   UNL     1     106.260 127.426 145.319  0.00  0.00    +0.000 A 
ATOM     11  C   UNL     1     106.398 127.884 146.033  0.00  0.00    +0.000 A 
ENDROOT
BRANCH   3  12
ATOM     12  C   UNL     1     107.104 125.035 148.202  0.00  0.00    +0.000 A 
ATOM     13  C   UNL     1     106.508 124.815 148.728  0.00  0.00    +0.000 A 
ATOM     14  C   UNL     1     107.893 124.873 148.381  0.00  0.00    +0.000 A 
ATOM     15  C   UNL     1     106.701 124.432 149.433  0.00  0.00    +0.000 A 
ATOM     16  C   UNL     1     108.086 124.490 149.085  0.00  0.00    +0.000 A 
ATOM     17  C   UNL     1     107.490 124.270 149.612  0.00  0.00    +0.000 A 
BRANCH  13  18
ATOM     18  O   UNL     1     105.719 124.977 148.549  0.00  0.00    +0.000 OA
ATOM     19  C   UNL     1     105.126 124.789 149.091  0.00  0.00    +0.000 C 
ENDBRANCH  13  18
ENDBRANCH   3  12
TORSDOF 2
ENDMDL
MODEL 8
REMARK VINA RESULT:      -7.4      1.841      2.994
REMARK  Name = 146492
REMARK  2 active torsions:
REMARK  status: ('A' for Active; 'I' for Inactive)
REMARK    1  A    between atoms: O_2  and  C_10
REMARK    2  A    between atoms: C_4  and  C_5
REMARK                            x       y       z     vdW  Elec       q    Type
REMARK                         _______ _______ _______ _____ _____    ______ ____
ROOT
ATOM      1  O   UNL     1     112.720 126.114 136.509  0.00  0.00    +0.000 OA
ATOM      2  O   UNL     1     114.675 124.844 137.339  0.00  0.00    +0.000 OA
ATOM      3  C   UNL     1     113.416 126.512 136.706  0.00  0.00    +0.000 A 
ATOM      4  C   UNL     1     113.327 124.872 136.865  0.00  0.00    +0.000 A 
ATOM      5  C   UNL     1     112.676 125.295 136.588  0.00  0.00    +0.000 A 
ATOM      6  C   UNL     1     114.068 126.088 136.983  0.00  0.00    +0.000 A 
ATOM      7  C   UNL     1     114.024 125.267 137.062  0.00  0.00    +0.000 A 
ATOM      8  C   UNL     1     113.293 124.017 136.952  0.00  0.00    +0.000 A 
ATOM      9  C   UNL     1     111.945 124.893 136.379  0.00  0.00    +0.000 A 
ATOM     10  C   UNL     1     112.571 123.599 136.749  0.00  0.00    +0.000 A 
ATOM     11  C   UNL     1     111.893 124.040 136.460  0.00  0.00    +0.000 A 
ENDROOT
BRANCH   3  12
ATOM     12  C   UNL     1     113.461 127.331 136.626  0.00  0.00    +0.000 A 
ATOM     13  C   UNL     1     113.216 127.819 137.244  0.00  0.00    +0.000 A 
ATOM     14  C   UNL     1     113.751 127.663 135.929  0.00  0.00    +0.000 A 
ATOM     15  C   UNL     1     113.260 128.640 137.165  0.00  0.00    +0.000 A 
ATOM     16  C   UNL     1     113.795 128.483 135.849  0.00  0.00    +0.000 A 
ATOM     17  C   UNL     1     113.550 128.971 136.467  0.00  0.00    +0.000 A 
BRANCH  13  18
ATOM     18  O   UNL     1     112.926 127.488 137.942  0.00  0.00    +0.000 OA
ATOM     19  C   UNL     1     112.682 127.976 138.561  0.00  0.00    +0.000 C 
ENDBRANCH  13  18
ENDBRANCH   3  12
TORSDOF 2
ENDMDL
MODEL 9
REMARK VINA RESULT:      -7.3      1.393      3.276
REMARK  Name = 146492
REMARK  2 active torsions:
REMARK  status: ('A' for Active; 'I' for Inactive)
REMARK    1  A    between atoms: O_2  and  C_10
REMARK    2  A    between atoms: C_4  and  C_5
REMARK                            x       y       z     vdW  Elec       q    Type
REMARK                         _______ _______ _______ _____ _____    ______ ____
ROOT
ATOM      1  O   UNL     1     111.573 126.377 135.941  0.00  0.00    +0.000 OA
ATOM      2  O   UNL     1     109.550 125.814 134.632  0.00  0.00    +0.000 OA
ATOM      3  C   UNL     1     111.286 125.604 135.939  0.00  0.00    +0.000 A 
ATOM      4  C   UNL     1     110.513 126.774 135.070  0.00  0.00    +0.000 A 
ATOM      5  C   UNL     1     111.187 126.962 135.507  0.00  0.00    +0.000 A 
ATOM      6  C   UNL     1     110.611 125.416 135.503  0.00  0.00    +0.000 A 
ATOM      7  C   UNL     1     110.224 126.001 135.068  0.00  0.00    +0.000 A 
ATOM      8  C   UNL     1     110.101 127.375 134.614  0.00  0.00    +0.000 A 
ATOM      9  C   UNL     1     111.497 127.764 135.517  0.00  0.00    +0.000 A 
ATOM     10  C   UNL     1     110.397 128.182 134.612  0.00  0.00    +0.000 A 
ATOM     11  C   UNL     1     111.099 128.378 135.066  0.00  0.00    +0.000 A 
ENDROOT
BRANCH   3  12
ATOM     12  C   UNL     1     111.672 125.019 136.373  0.00  0.00    +0.000 A 
ATOM     13  C   UNL     1     111.503 124.921 137.175  0.00  0.00    +0.000 A 
ATOM     14  C   UNL     1     112.227 124.531 136.007  0.00  0.00    +0.000 A 
ATOM     15  C   UNL     1     111.890 124.335 137.610  0.00  0.00    +0.000 A 
ATOM     16  C   UNL     1     112.613 123.946 136.441  0.00  0.00    +0.000 A 
ATOM     17  C   UNL     1     112.444 123.848 137.242  0.00  0.00    +0.000 A 
BRANCH  13  18
ATOM     18  O   UNL     1     110.948 125.408 137.543  0.00  0.00    +0.000 OA
ATOM     19  C   UNL     1     110.855 125.384 138.362  0.00  0.00    +0.000 C 
ENDBRANCH  13  18
ENDBRANCH   3  12
TORSDOF 2
ENDMDL
MODEL 10
REMARK VINA RESULT:      -7.3     10.904     12.230
REMARK  Name = 146492
REMARK  2 active torsions:
REMARK  status: ('A' for Active; 'I' for Inactive)
REMARK    1  A    between atoms: O_2  and  C_10
REMARK    2  A    between atoms: C_4  and  C_5
REMARK                            x       y       z     vdW  Elec       q    Type
REMARK                         _______ _______ _______ _____ _____    ______ ____
ROOT
ATOM      1  O   UNL     1     106.268 125.527 147.824  0.00  0.00    +0.000 OA
ATOM      2  O   UNL     1     108.717 125.231 147.620  0.00  0.00    +0.000 OA
ATOM      3  C   UNL     1     106.675 125.879 147.199  0.00  0.00    +0.000 A 
ATOM      4  C   UNL     1     107.493 124.977 148.313  0.00  0.00    +0.000 A 
ATOM      5  C   UNL     1     106.677 125.076 148.381  0.00  0.00    +0.000 A 
ATOM      6  C   UNL     1     107.492 125.780 147.131  0.00  0.00    +0.000 A 
ATOM      7  C   UNL     1     107.901 125.329 147.688  0.00  0.00    +0.000 A 
ATOM      8  C   UNL     1     107.930 124.510 148.887  0.00  0.00    +0.000 A 
ATOM      9  C   UNL     1     106.241 124.714 149.028  0.00  0.00    +0.000 A 
ATOM     10  C   UNL     1     107.511 124.141 149.540  0.00  0.00    +0.000 A 
ATOM     11  C   UNL     1     106.661 124.244 149.611  0.00  0.00    +0.000 A 
ENDROOT
BRANCH   3  12
ATOM     12  C   UNL     1     106.267 126.330 146.642  0.00  0.00    +0.000 A 
ATOM     13  C   UNL     1     105.959 125.970 145.967  0.00  0.00    +0.000 A 
ATOM     14  C   UNL     1     106.166 127.140 146.760  0.00  0.00    +0.000 A 
ATOM     15  C   UNL     1     105.550 126.421 145.409  0.00  0.00    +0.000 A 
ATOM     16  C   UNL     1     105.758 127.591 146.203  0.00  0.00    +0.000 A 
ATOM     17  C   UNL     1     105.450 127.231 145.528  0.00  0.00    +0.000 A 
BRANCH  13  18
ATOM     18  O   UNL     1     106.059 125.160 145.848  0.00  0.00    +0.000 OA
ATOM     19  C   UNL     1     105.735 124.797 145.181  0.00  0.00    +0.000 C 
ENDBRANCH  13  18
ENDBRANCH   3  12
TORSDOF 2
ENDMDL
