MODEL 1
REMARK VINA RESULT:     -10.1      0.000      0.000
REMARK  Name = 44257779
REMARK  5 active torsions:
REMARK  status: ('A' for Active; 'I' for Inactive)
REMARK    1  A    between atoms: O_5  and  C_23
REMARK    2  A    between atoms: O_5  and  C_32
REMARK    3  A    between atoms: C_15  and  C_24
REMARK    4  A    between atoms: C_21  and  C_26
REMARK    5  A    between atoms: C_34  and  C_35
REMARK                            x       y       z     vdW  Elec       q    Type
REMARK                         _______ _______ _______ _____ _____    ______ ____
ROOT
ATOM      1  O   UNL     1     112.008 127.934 139.905  0.00  0.00    +0.000 OA
ATOM      2  O   UNL     1     112.752 126.920 137.298  0.00  0.00    +0.000 OA
ATOM      3  O   UNL     1     111.060 125.369 139.001  0.00  0.00    +0.000 OA
ATOM      4  O   UNL     1     113.248 128.209 137.714  0.00  0.00    +0.000 OA
ATOM      5  C   UNL     1     111.906 126.144 138.150  0.00  0.00    +0.000 A 
ATOM      6  C   UNL     1     112.347 126.827 138.011  0.00  0.00    +0.000 A 
ATOM      7  C   UNL     1     111.501 126.052 138.862  0.00  0.00    +0.000 A 
ATOM      8  C   UNL     1     112.383 127.419 138.586  0.00  0.00    +0.000 A 
ATOM      9  C   UNL     1     111.978 127.326 139.299  0.00  0.00    +0.000 A 
ATOM     10  C   UNL     1     111.537 126.643 139.437  0.00  0.00    +0.000 A 
ATOM     11  C   UNL     1     112.846 128.125 138.430  0.00  0.00    +0.000 A 
ATOM     12  C   UNL     1     112.466 128.649 139.767  0.00  0.00    +0.000 A 
ATOM     13  C   UNL     1     112.888 128.744 139.024  0.00  0.00    +0.000 A 
ENDROOT
BRANCH   5  18
ATOM     14  O   UNL     1     112.424 124.943 137.575  0.00  0.00    +0.000 OA
ATOM     15  O   UNL     1     110.650 125.002 135.850  0.00  0.00    +0.000 OA
ATOM     16  O   UNL     1     111.761 123.781 135.851  0.00  0.00    +0.000 OA
ATOM     17  C   UNL     1     111.242 124.982 136.425  0.00  0.00    +0.000 C 
ATOM     18  C   UNL     1     111.870 125.553 137.575  0.00  0.00    +0.000 C 
ATOM     19  C   UNL     1     111.797 124.372 136.426  0.00  0.00    +0.000 C 
ATOM     20  C   UNL     1     111.279 125.573 137.000  0.00  0.00    +0.000 C 
ATOM     21  C   UNL     1     112.388 124.353 137.001  0.00  0.00    +0.000 C 
ATOM     22  C   UNL     1     112.943 123.742 137.001  0.00  0.00    +0.000 C 
ENDBRANCH   5  18
BRANCH  12  24
ATOM     23  C   UNL     1     112.569 130.417 141.496  0.00  0.00    +0.000 A 
ATOM     24  C   UNL     1     112.501 129.238 140.343  0.00  0.00    +0.000 A 
ATOM     25  C   UNL     1     113.178 129.862 141.436  0.00  0.00    +0.000 A 
ATOM     26  C   UNL     1     111.928 130.381 140.979  0.00  0.00    +0.000 A 
ATOM     27  C   UNL     1     113.143 129.272 140.860  0.00  0.00    +0.000 A 
ATOM     28  C   UNL     1     111.893 129.792 140.403  0.00  0.00    +0.000 A 
BRANCH  23  29
ATOM     29  O   UNL     1     112.604 131.006 142.072  0.00  0.00    +0.000 OA
BRANCH  29  38
ATOM     30  O   UNL     1     112.119 130.245 143.180  0.00  0.00    +0.000 OA
ATOM     31  O   UNL     1     110.733 130.776 144.780  0.00  0.00    +0.000 OA
ATOM     32  O   UNL     1     110.767 132.182 143.919  0.00  0.00    +0.000 OA
ATOM     33  O   UNL     1     111.702 132.297 142.565  0.00  0.00    +0.000 OA
ATOM     34  C   UNL     1     111.201 130.833 144.103  0.00  0.00    +0.000 C 
ATOM     35  C   UNL     1     111.217 131.537 143.673  0.00  0.00    +0.000 C 
ATOM     36  C   UNL     1     111.651 130.187 143.857  0.00  0.00    +0.000 C 
ATOM     37  C   UNL     1     111.686 131.594 142.995  0.00  0.00    +0.000 C 
ATOM     38  C   UNL     1     112.136 130.948 142.749  0.00  0.00    +0.000 C 
BRANCH  36  40
ATOM     39  O   UNL     1     111.367 128.789 143.933  0.00  0.00    +0.000 OA
ATOM     40  C   UNL     1     111.634 129.485 144.288  0.00  0.00    +0.000 C 
ENDBRANCH  36  40
ENDBRANCH  29  38
ENDBRANCH  23  29
ENDBRANCH  12  24
TORSDOF 5
ENDMDL
MODEL 2
REMARK VINA RESULT:     -10.1      0.902      1.637
REMARK  Name = 44257779
REMARK  5 active torsions:
REMARK  status: ('A' for Active; 'I' for Inactive)
REMARK    1  A    between atoms: O_5  and  C_23
REMARK    2  A    between atoms: O_5  and  C_32
REMARK    3  A    between atoms: C_15  and  C_24
REMARK    4  A    between atoms: C_21  and  C_26
REMARK    5  A    between atoms: C_34  and  C_35
REMARK                            x       y       z     vdW  Elec       q    Type
REMARK                         _______ _______ _______ _____ _____    ______ ____
ROOT
ATOM      1  O   UNL     1     112.833 128.562 139.587  0.00  0.00    +0.000 OA
ATOM      2  O   UNL     1     112.490 125.706 139.263  0.00  0.00    +0.000 OA
ATOM      3  O   UNL     1     113.443 127.284 137.078  0.00  0.00    +0.000 OA
ATOM      4  O   UNL     1     112.174 126.308 140.534  0.00  0.00    +0.000 OA
ATOM      5  C   UNL     1     112.967 126.496 138.171  0.00  0.00    +0.000 A 
ATOM      6  C   UNL     1     112.706 126.439 138.951  0.00  0.00    +0.000 A 
ATOM      7  C   UNL     1     113.182 127.229 137.859  0.00  0.00    +0.000 A 
ATOM      8  C   UNL     1     112.660 127.117 139.421  0.00  0.00    +0.000 A 
ATOM      9  C   UNL     1     112.876 127.850 139.109  0.00  0.00    +0.000 A 
ATOM     10  C   UNL     1     113.137 127.906 138.328  0.00  0.00    +0.000 A 
ATOM     11  C   UNL     1     112.387 127.046 140.232  0.00  0.00    +0.000 A 
ATOM     12  C   UNL     1     112.562 128.511 140.402  0.00  0.00    +0.000 A 
ATOM     13  C   UNL     1     112.337 127.747 140.725  0.00  0.00    +0.000 A 
ENDROOT
BRANCH   5  18
ATOM     14  O   UNL     1     112.355 125.568 137.272  0.00  0.00    +0.000 OA
ATOM     15  O   UNL     1     114.467 124.285 137.154  0.00  0.00    +0.000 OA
ATOM     16  O   UNL     1     113.150 123.787 136.295  0.00  0.00    +0.000 OA
ATOM     17  C   UNL     1     113.763 124.713 137.193  0.00  0.00    +0.000 C 
ATOM     18  C   UNL     1     113.012 125.819 137.702  0.00  0.00    +0.000 C 
ATOM     19  C   UNL     1     113.104 124.464 136.764  0.00  0.00    +0.000 C 
ATOM     20  C   UNL     1     113.717 125.391 137.662  0.00  0.00    +0.000 C 
ATOM     21  C   UNL     1     112.400 124.892 136.803  0.00  0.00    +0.000 C 
ATOM     22  C   UNL     1     111.741 124.642 136.373  0.00  0.00    +0.000 C 
ENDBRANCH   5  18
BRANCH  12  24
ATOM     23  C   UNL     1     112.428 130.547 141.802  0.00  0.00    +0.000 A 
ATOM     24  C   UNL     1     112.517 129.190 140.868  0.00  0.00    +0.000 A 
ATOM     25  C   UNL     1     111.778 130.313 141.350  0.00  0.00    +0.000 A 
ATOM     26  C   UNL     1     113.122 130.102 141.786  0.00  0.00    +0.000 A 
ATOM     27  C   UNL     1     111.822 129.634 140.884  0.00  0.00    +0.000 A 
ATOM     28  C   UNL     1     113.167 129.423 141.319  0.00  0.00    +0.000 A 
BRANCH  23  29
ATOM     29  O   UNL     1     112.383 131.226 142.269  0.00  0.00    +0.000 OA
BRANCH  29  38
ATOM     30  O   UNL     1     112.021 130.530 143.463  0.00  0.00    +0.000 OA
ATOM     31  O   UNL     1     110.784 131.143 145.153  0.00  0.00    +0.000 OA
ATOM     32  O   UNL     1     110.709 132.492 144.208  0.00  0.00    +0.000 OA
ATOM     33  O   UNL     1     111.509 132.534 142.765  0.00  0.00    +0.000 OA
ATOM     34  C   UNL     1     111.184 131.163 144.432  0.00  0.00    +0.000 C 
ATOM     35  C   UNL     1     111.146 131.838 143.960  0.00  0.00    +0.000 C 
ATOM     36  C   UNL     1     111.621 130.509 144.184  0.00  0.00    +0.000 C 
ATOM     37  C   UNL     1     111.547 131.859 143.238  0.00  0.00    +0.000 C 
ATOM     38  C   UNL     1     111.984 131.205 142.990  0.00  0.00    +0.000 C 
BRANCH  36  40
ATOM     39  O   UNL     1     111.296 129.136 144.409  0.00  0.00    +0.000 OA
ATOM     40  C   UNL     1     111.659 129.835 144.657  0.00  0.00    +0.000 C 
ENDBRANCH  36  40
ENDBRANCH  29  38
ENDBRANCH  23  29
ENDBRANCH  12  24
TORSDOF 5
ENDMDL
MODEL 3
REMARK VINA RESULT:     -10.1      8.187      9.509
REMARK  Name = 44257779
REMARK  5 active torsions:
REMARK  status: ('A' for Active; 'I' for Inactive)
REMARK    1  A    between atoms: O_5  and  C_23
REMARK    2  A    between atoms: O_5  and  C_32
REMARK    3  A    between atoms: C_15  and  C_24
REMARK    4  A    between atoms: C_21  and  C_26
REMARK    5  A    between atoms: C_34  and  C_35
REMARK                            x       y       z     vdW  Elec       q    Type
REMARK                         _______ _______ _______ _____ _____    ______ ____
ROOT
ATOM      1  O   UNL     1     103.682 129.745 142.578  0.00  0.00    +0.000 OA
ATOM      2  O   UNL     1     104.755 127.514 141.078  0.00  0.00    +0.000 OA
ATOM      3  O   UNL     1     105.716 128.051 143.716  0.00  0.00    +0.000 OA
ATOM      4  O   UNL     1     103.738 128.339 140.474  0.00  0.00    +0.000 OA
ATOM      5  C   UNL     1     105.235 127.783 142.397  0.00  0.00    +0.000 A 
ATOM      6  C   UNL     1     104.739 127.970 141.766  0.00  0.00    +0.000 A 
ATOM      7  C   UNL     1     105.219 128.239 143.084  0.00  0.00    +0.000 A 
ATOM      8  C   UNL     1     104.227 128.616 141.821  0.00  0.00    +0.000 A 
ATOM      9  C   UNL     1     104.211 129.072 142.508  0.00  0.00    +0.000 A 
ATOM     10  C   UNL     1     104.707 128.884 143.140  0.00  0.00    +0.000 A 
ATOM     11  C   UNL     1     103.715 128.801 141.157  0.00  0.00    +0.000 A 
ATOM     12  C   UNL     1     103.162 129.947 141.923  0.00  0.00    +0.000 A 
ATOM     13  C   UNL     1     103.179 129.471 141.208  0.00  0.00    +0.000 A 
ENDROOT
BRANCH   5  18
ATOM     14  O   UNL     1     105.490 126.386 142.559  0.00  0.00    +0.000 OA
ATOM     15  O   UNL     1     107.802 126.710 141.739  0.00  0.00    +0.000 OA
ATOM     16  O   UNL     1     107.284 125.206 142.175  0.00  0.00    +0.000 OA
ATOM     17  C   UNL     1     107.031 126.602 142.012  0.00  0.00    +0.000 C 
ATOM     18  C   UNL     1     105.747 127.138 142.342  0.00  0.00    +0.000 C 
ATOM     19  C   UNL     1     106.772 125.850 142.230  0.00  0.00    +0.000 C 
ATOM     20  C   UNL     1     106.518 127.246 142.068  0.00  0.00    +0.000 C 
ATOM     21  C   UNL     1     106.001 125.742 142.504  0.00  0.00    +0.000 C 
ATOM     22  C   UNL     1     105.743 124.989 142.722  0.00  0.00    +0.000 C 
ENDBRANCH   5  18
BRANCH  12  24
ATOM     23  C   UNL     1     101.629 131.882 142.098  0.00  0.00    +0.000 A 
ATOM     24  C   UNL     1     102.651 130.592 141.982  0.00  0.00    +0.000 A 
ATOM     25  C   UNL     1     101.632 131.418 141.415  0.00  0.00    +0.000 A 
ATOM     26  C   UNL     1     102.137 131.700 142.722  0.00  0.00    +0.000 A 
ATOM     27  C   UNL     1     102.144 130.773 141.357  0.00  0.00    +0.000 A 
ATOM     28  C   UNL     1     102.649 131.055 142.664  0.00  0.00    +0.000 A 
BRANCH  23  29
ATOM     29  O   UNL     1     101.118 132.527 142.157  0.00  0.00    +0.000 OA
BRANCH  29  38
ATOM     30  O   UNL     1     101.905 133.474 141.431  0.00  0.00    +0.000 OA
ATOM     31  O   UNL     1     102.283 135.592 141.794  0.00  0.00    +0.000 OA
ATOM     32  O   UNL     1     101.293 135.232 143.062  0.00  0.00    +0.000 OA
ATOM     33  O   UNL     1     100.710 133.699 143.244  0.00  0.00    +0.000 OA
ATOM     34  C   UNL     1     101.992 134.826 141.884  0.00  0.00    +0.000 C 
ATOM     35  C   UNL     1     101.497 134.646 142.519  0.00  0.00    +0.000 C 
ATOM     36  C   UNL     1     102.196 134.240 141.340  0.00  0.00    +0.000 C 
ATOM     37  C   UNL     1     101.205 133.879 142.609  0.00  0.00    +0.000 C 
ATOM     38  C   UNL     1     101.409 133.293 142.066  0.00  0.00    +0.000 C 
BRANCH  36  40
ATOM     39  O   UNL     1     103.453 134.105 140.674  0.00  0.00    +0.000 OA
ATOM     40  C   UNL     1     102.691 134.420 140.706  0.00  0.00    +0.000 C 
ENDBRANCH  36  40
ENDBRANCH  29  38
ENDBRANCH  23  29
ENDBRANCH  12  24
TORSDOF 5
ENDMDL
MODEL 4
REMARK VINA RESULT:     -10.0      7.780     10.548
REMARK  Name = 44257779
REMARK  5 active torsions:
REMARK  status: ('A' for Active; 'I' for Inactive)
REMARK    1  A    between atoms: O_5  and  C_23
REMARK    2  A    between atoms: O_5  and  C_32
REMARK    3  A    between atoms: C_15  and  C_24
REMARK    4  A    between atoms: C_21  and  C_26
REMARK    5  A    between atoms: C_34  and  C_35
REMARK                            x       y       z     vdW  Elec       q    Type
REMARK                         _______ _______ _______ _____ _____    ______ ____
ROOT
ATOM      1  O   UNL     1     104.228 131.108 141.696  0.00  0.00    +0.000 OA
ATOM      2  O   UNL     1     102.009 132.945 141.424  0.00  0.00    +0.000 OA
ATOM      3  O   UNL     1     104.689 133.902 141.166  0.00  0.00    +0.000 OA
ATOM      4  O   UNL     1     101.736 131.554 141.690  0.00  0.00    +0.000 OA
ATOM      5  C   UNL     1     103.349 133.423 141.295  0.00  0.00    +0.000 A 
ATOM      6  C   UNL     1     102.821 132.803 141.426  0.00  0.00    +0.000 A 
ATOM      7  C   UNL     1     104.162 133.281 141.297  0.00  0.00    +0.000 A 
ATOM      8  C   UNL     1     103.107 132.040 141.558  0.00  0.00    +0.000 A 
ATOM      9  C   UNL     1     103.919 131.897 141.559  0.00  0.00    +0.000 A 
ATOM     10  C   UNL     1     104.447 132.518 141.429  0.00  0.00    +0.000 A 
ATOM     11  C   UNL     1     102.547 131.402 141.693  0.00  0.00    +0.000 A 
ATOM     12  C   UNL     1     103.684 130.456 141.832  0.00  0.00    +0.000 A 
ATOM     13  C   UNL     1     102.837 130.605 141.831  0.00  0.00    +0.000 A 
ENDROOT
BRANCH   5  18
ATOM     14  O   UNL     1     102.893 134.679 141.801  0.00  0.00    +0.000 OA
ATOM     15  O   UNL     1     102.551 135.489 139.488  0.00  0.00    +0.000 OA
ATOM     16  O   UNL     1     102.209 136.474 140.766  0.00  0.00    +0.000 OA
ATOM     17  C   UNL     1     102.665 135.219 140.259  0.00  0.00    +0.000 C 
ATOM     18  C   UNL     1     103.064 134.186 141.163  0.00  0.00    +0.000 C 
ATOM     19  C   UNL     1     102.494 135.712 140.898  0.00  0.00    +0.000 C 
ATOM     20  C   UNL     1     102.950 134.456 140.392  0.00  0.00    +0.000 C 
ATOM     21  C   UNL     1     102.608 135.441 141.669  0.00  0.00    +0.000 C 
ATOM     22  C   UNL     1     102.437 135.935 142.308  0.00  0.00    +0.000 C 
ENDBRANCH   5  18
BRANCH  12  24
ATOM     23  C   UNL     1     104.547 128.171 142.228  0.00  0.00    +0.000 A 
ATOM     24  C   UNL     1     103.971 129.695 141.964  0.00  0.00    +0.000 A 
ATOM     25  C   UNL     1     104.310 128.398 141.470  0.00  0.00    +0.000 A 
ATOM     26  C   UNL     1     104.496 128.707 142.853  0.00  0.00    +0.000 A 
ATOM     27  C   UNL     1     104.023 129.160 141.338  0.00  0.00    +0.000 A 
ATOM     28  C   UNL     1     104.208 129.469 142.721  0.00  0.00    +0.000 A 
BRANCH  23  29
ATOM     29  O   UNL     1     104.835 127.409 142.359  0.00  0.00    +0.000 OA
BRANCH  29  38
ATOM     30  O   UNL     1     106.204 127.705 142.078  0.00  0.00    +0.000 OA
ATOM     31  O   UNL     1     108.043 126.940 142.969  0.00  0.00    +0.000 OA
ATOM     32  O   UNL     1     106.910 126.114 143.837  0.00  0.00    +0.000 OA
ATOM     33  O   UNL     1     105.306 126.348 143.532  0.00  0.00    +0.000 OA
ATOM     34  C   UNL     1     107.241 127.058 142.816  0.00  0.00    +0.000 C 
ATOM     35  C   UNL     1     106.675 126.644 143.251  0.00  0.00    +0.000 C 
ATOM     36  C   UNL     1     107.006 127.589 142.230  0.00  0.00    +0.000 C 
ATOM     37  C   UNL     1     105.872 126.762 143.098  0.00  0.00    +0.000 C 
ATOM     38  C   UNL     1     105.637 127.292 142.512  0.00  0.00    +0.000 C 
BRANCH  36  40
ATOM     39  O   UNL     1     107.655 127.864 140.987  0.00  0.00    +0.000 OA
ATOM     40  C   UNL     1     107.573 128.001 141.797  0.00  0.00    +0.000 C 
ENDBRANCH  36  40
ENDBRANCH  29  38
ENDBRANCH  23  29
ENDBRANCH  12  24
TORSDOF 5
ENDMDL
MODEL 5
REMARK VINA RESULT:      -9.9      8.143      9.631
REMARK  Name = 44257779
REMARK  5 active torsions:
REMARK  status: ('A' for Active; 'I' for Inactive)
REMARK    1  A    between atoms: O_5  and  C_23
REMARK    2  A    between atoms: O_5  and  C_32
REMARK    3  A    between atoms: C_15  and  C_24
REMARK    4  A    between atoms: C_21  and  C_26
REMARK    5  A    between atoms: C_34  and  C_35
REMARK                            x       y       z     vdW  Elec       q    Type
REMARK                         _______ _______ _______ _____ _____    ______ ____
ROOT
ATOM      1  O   UNL     1     105.425 127.652 143.635  0.00  0.00    +0.000 OA
ATOM      2  O   UNL     1     104.005 130.173 143.559  0.00  0.00    +0.000 OA
ATOM      3  O   UNL     1     104.464 128.724 141.139  0.00  0.00    +0.000 OA
ATOM      4  O   UNL     1     104.470 129.671 144.829  0.00  0.00    +0.000 OA
ATOM      5  C   UNL     1     104.235 129.448 142.350  0.00  0.00    +0.000 A 
ATOM      6  C   UNL     1     104.315 129.517 143.167  0.00  0.00    +0.000 A 
ATOM      7  C   UNL     1     104.545 128.792 141.958  0.00  0.00    +0.000 A 
ATOM      8  C   UNL     1     104.706 128.928 143.594  0.00  0.00    +0.000 A 
ATOM      9  C   UNL     1     105.016 128.271 143.202  0.00  0.00    +0.000 A 
ATOM     10  C   UNL     1     104.936 128.203 142.384  0.00  0.00    +0.000 A 
ATOM     11  C   UNL     1     104.784 129.010 144.446  0.00  0.00    +0.000 A 
ATOM     12  C   UNL     1     105.512 127.717 144.488  0.00  0.00    +0.000 A 
ATOM     13  C   UNL     1     105.189 128.401 144.895  0.00  0.00    +0.000 A 
ENDROOT
BRANCH   5  18
ATOM     14  O   UNL     1     103.028 129.998 141.819  0.00  0.00    +0.000 OA
ATOM     15  O   UNL     1     104.309 131.882 140.852  0.00  0.00    +0.000 OA
ATOM     16  O   UNL     1     102.674 131.803 140.644  0.00  0.00    +0.000 OA
ATOM     17  C   UNL     1     103.882 131.254 141.174  0.00  0.00    +0.000 C 
ATOM     18  C   UNL     1     103.845 130.037 141.923  0.00  0.00    +0.000 C 
ATOM     19  C   UNL     1     103.064 131.214 141.070  0.00  0.00    +0.000 C 
ATOM     20  C   UNL     1     104.271 130.665 141.601  0.00  0.00    +0.000 C 
ATOM     21  C   UNL     1     102.637 130.586 141.393  0.00  0.00    +0.000 C 
ATOM     22  C   UNL     1     101.820 130.547 141.288  0.00  0.00    +0.000 C 
ENDBRANCH   5  18
BRANCH  12  24
ATOM     23  C   UNL     1     106.685 125.947 145.760  0.00  0.00    +0.000 A 
ATOM     24  C   UNL     1     105.903 127.127 144.912  0.00  0.00    +0.000 A 
ATOM     25  C   UNL     1     106.836 126.742 145.924  0.00  0.00    +0.000 A 
ATOM     26  C   UNL     1     106.144 125.743 145.171  0.00  0.00    +0.000 A 
ATOM     27  C   UNL     1     106.445 127.332 145.500  0.00  0.00    +0.000 A 
ATOM     28  C   UNL     1     105.753 126.333 144.748  0.00  0.00    +0.000 A 
BRANCH  23  29
ATOM     29  O   UNL     1     107.076 125.357 146.183  0.00  0.00    +0.000 OA
BRANCH  29  38
ATOM     30  O   UNL     1     106.033 125.054 147.111  0.00  0.00    +0.000 OA
ATOM     31  O   UNL     1     106.104 124.606 149.245  0.00  0.00    +0.000 OA
ATOM     32  O   UNL     1     107.705 124.835 148.922  0.00  0.00    +0.000 OA
ATOM     33  O   UNL     1     108.192 125.211 147.391  0.00  0.00    +0.000 OA
ATOM     34  C   UNL     1     106.347 124.794 148.480  0.00  0.00    +0.000 C 
ATOM     35  C   UNL     1     107.148 124.908 148.318  0.00  0.00    +0.000 C 
ATOM     36  C   UNL     1     105.789 124.866 147.876  0.00  0.00    +0.000 C 
ATOM     37  C   UNL     1     107.391 125.096 147.552  0.00  0.00    +0.000 C 
ATOM     38  C   UNL     1     106.833 125.169 146.948  0.00  0.00    +0.000 C 
BRANCH  36  40
ATOM     39  O   UNL     1     104.538 124.255 147.558  0.00  0.00    +0.000 OA
ATOM     40  C   UNL     1     104.989 124.752 148.038  0.00  0.00    +0.000 C 
ENDBRANCH  36  40
ENDBRANCH  29  38
ENDBRANCH  23  29
ENDBRANCH  12  24
TORSDOF 5
ENDMDL
MODEL 6
REMARK VINA RESULT:      -9.8      1.234      7.225
REMARK  Name = 44257779
REMARK  5 active torsions:
REMARK  status: ('A' for Active; 'I' for Inactive)
REMARK    1  A    between atoms: O_5  and  C_23
REMARK    2  A    between atoms: O_5  and  C_32
REMARK    3  A    between atoms: C_15  and  C_24
REMARK    4  A    between atoms: C_21  and  C_26
REMARK    5  A    between atoms: C_34  and  C_35
REMARK                            x       y       z     vdW  Elec       q    Type
REMARK                         _______ _______ _______ _____ _____    ______ ____
ROOT
ATOM      1  O   UNL     1     112.180 127.637 140.545  0.00  0.00    +0.000 OA
ATOM      2  O   UNL     1     112.738 129.769 142.421  0.00  0.00    +0.000 OA
ATOM      3  O   UNL     1     110.501 128.043 142.851  0.00  0.00    +0.000 OA
ATOM      4  O   UNL     1     113.602 129.599 141.279  0.00  0.00    +0.000 OA
ATOM      5  C   UNL     1     111.620 128.906 142.635  0.00  0.00    +0.000 A 
ATOM      6  C   UNL     1     112.273 129.131 142.184  0.00  0.00    +0.000 A 
ATOM      7  C   UNL     1     111.154 128.267 142.399  0.00  0.00    +0.000 A 
ATOM      8  C   UNL     1     112.460 128.715 141.496  0.00  0.00    +0.000 A 
ATOM      9  C   UNL     1     111.995 128.076 141.259  0.00  0.00    +0.000 A 
ATOM     10  C   UNL     1     111.342 127.852 141.711  0.00  0.00    +0.000 A 
ATOM     11  C   UNL     1     113.143 128.958 141.034  0.00  0.00    +0.000 A 
ATOM     12  C   UNL     1     112.859 127.865 140.070  0.00  0.00    +0.000 A 
ATOM     13  C   UNL     1     113.343 128.530 140.317  0.00  0.00    +0.000 A 
ENDROOT
BRANCH   5  18
ATOM     14  O   UNL     1     111.748 129.085 144.048  0.00  0.00    +0.000 OA
ATOM     15  O   UNL     1     110.236 131.040 143.939  0.00  0.00    +0.000 OA
ATOM     16  O   UNL     1     110.869 130.566 145.387  0.00  0.00    +0.000 OA
ATOM     17  C   UNL     1     110.740 130.388 143.975  0.00  0.00    +0.000 C 
ATOM     18  C   UNL     1     111.432 129.321 143.324  0.00  0.00    +0.000 C 
ATOM     19  C   UNL     1     111.057 130.151 144.699  0.00  0.00    +0.000 C 
ATOM     20  C   UNL     1     110.928 129.973 143.288  0.00  0.00    +0.000 C 
ATOM     21  C   UNL     1     111.561 129.499 144.735  0.00  0.00    +0.000 C 
ATOM     22  C   UNL     1     111.878 129.262 145.460  0.00  0.00    +0.000 C 
ENDBRANCH   5  18
BRANCH  12  24
ATOM     23  C   UNL     1     113.415 126.615 138.007  0.00  0.00    +0.000 A 
ATOM     24  C   UNL     1     113.044 127.448 139.382  0.00  0.00    +0.000 A 
ATOM     25  C   UNL     1     113.089 127.372 137.956  0.00  0.00    +0.000 A 
ATOM     26  C   UNL     1     113.555 126.276 138.746  0.00  0.00    +0.000 A 
ATOM     27  C   UNL     1     112.904 127.789 138.644  0.00  0.00    +0.000 A 
ATOM     28  C   UNL     1     113.370 126.693 139.433  0.00  0.00    +0.000 A 
BRANCH  23  29
ATOM     29  O   UNL     1     113.600 126.199 137.320  0.00  0.00    +0.000 OA
BRANCH  29  38
ATOM     30  O   UNL     1     112.291 125.778 136.930  0.00  0.00    +0.000 OA
ATOM     31  O   UNL     1     111.565 123.847 136.217  0.00  0.00    +0.000 OA
ATOM     32  O   UNL     1     113.164 123.513 136.445  0.00  0.00    +0.000 OA
ATOM     33  O   UNL     1     114.182 124.689 136.997  0.00  0.00    +0.000 OA
ATOM     34  C   UNL     1     112.073 124.435 136.493  0.00  0.00    +0.000 C 
ATOM     35  C   UNL     1     112.873 124.268 136.607  0.00  0.00    +0.000 C 
ATOM     36  C   UNL     1     111.782 125.190 136.654  0.00  0.00    +0.000 C 
ATOM     37  C   UNL     1     113.382 124.856 136.883  0.00  0.00    +0.000 C 
ATOM     38  C   UNL     1     113.091 125.611 137.044  0.00  0.00    +0.000 C 
BRANCH  36  40
ATOM     39  O   UNL     1     110.757 125.978 136.046  0.00  0.00    +0.000 OA
ATOM     40  C   UNL     1     110.983 125.357 136.540  0.00  0.00    +0.000 C 
ENDBRANCH  36  40
ENDBRANCH  29  38
ENDBRANCH  23  29
ENDBRANCH  12  24
TORSDOF 5
ENDMDL
MODEL 7
REMARK VINA RESULT:      -9.8      1.377      2.362
REMARK  Name = 44257779
REMARK  5 active torsions:
REMARK  status: ('A' for Active; 'I' for Inactive)
REMARK    1  A    between atoms: O_5  and  C_23
REMARK    2  A    between atoms: O_5  and  C_32
REMARK    3  A    between atoms: C_15  and  C_24
REMARK    4  A    between atoms: C_21  and  C_26
REMARK    5  A    between atoms: C_34  and  C_35
REMARK                            x       y       z     vdW  Elec       q    Type
REMARK                         _______ _______ _______ _____ _____    ______ ____
ROOT
ATOM      1  O   UNL     1     112.077 128.365 140.823  0.00  0.00    +0.000 OA
ATOM      2  O   UNL     1     112.024 125.807 139.468  0.00  0.00    +0.000 OA
ATOM      3  O   UNL     1     113.406 128.014 138.291  0.00  0.00    +0.000 OA
ATOM      4  O   UNL     1     111.346 125.942 140.735  0.00  0.00    +0.000 OA
ATOM      5  C   UNL     1     112.715 126.911 138.880  0.00  0.00    +0.000 A 
ATOM      6  C   UNL     1     112.263 126.596 139.494  0.00  0.00    +0.000 A 
ATOM      7  C   UNL     1     112.954 127.700 138.906  0.00  0.00    +0.000 A 
ATOM      8  C   UNL     1     112.052 127.072 140.136  0.00  0.00    +0.000 A 
ATOM      9  C   UNL     1     112.291 127.861 140.161  0.00  0.00    +0.000 A 
ATOM     10  C   UNL     1     112.743 128.175 139.546  0.00  0.00    +0.000 A 
ATOM     11  C   UNL     1     111.581 126.732 140.769  0.00  0.00    +0.000 A 
ATOM     12  C   UNL     1     111.607 128.043 141.467  0.00  0.00    +0.000 A 
ATOM     13  C   UNL     1     111.358 127.221 141.439  0.00  0.00    +0.000 A 
ENDROOT
BRANCH   5  18
ATOM     14  O   UNL     1     113.625 125.999 138.261  0.00  0.00    +0.000 OA
ATOM     15  O   UNL     1     112.161 125.886 136.269  0.00  0.00    +0.000 OA
ATOM     16  O   UNL     1     113.560 125.013 136.316  0.00  0.00    +0.000 OA
ATOM     17  C   UNL     1     112.649 125.924 136.934  0.00  0.00    +0.000 C 
ATOM     18  C   UNL     1     112.926 126.437 138.239  0.00  0.00    +0.000 C 
ATOM     19  C   UNL     1     113.348 125.487 136.957  0.00  0.00    +0.000 C 
ATOM     20  C   UNL     1     112.438 126.399 137.575  0.00  0.00    +0.000 C 
ATOM     21  C   UNL     1     113.836 125.525 137.621  0.00  0.00    +0.000 C 
ATOM     22  C   UNL     1     114.536 125.088 137.644  0.00  0.00    +0.000 C 
ENDBRANCH   5  18
BRANCH  12  24
ATOM     23  C   UNL     1     110.977 129.474 143.386  0.00  0.00    +0.000 A 
ATOM     24  C   UNL     1     111.397 128.520 142.107  0.00  0.00    +0.000 A 
ATOM     25  C   UNL     1     111.636 128.979 143.439  0.00  0.00    +0.000 A 
ATOM     26  C   UNL     1     110.529 129.491 142.693  0.00  0.00    +0.000 A 
ATOM     27  C   UNL     1     111.846 128.502 142.799  0.00  0.00    +0.000 A 
ATOM     28  C   UNL     1     110.739 129.014 142.054  0.00  0.00    +0.000 A 
BRANCH  23  29
ATOM     29  O   UNL     1     110.767 129.951 144.025  0.00  0.00    +0.000 OA
BRANCH  29  38
ATOM     30  O   UNL     1     111.458 131.133 143.616  0.00  0.00    +0.000 OA
ATOM     31  O   UNL     1     112.582 132.603 144.772  0.00  0.00    +0.000 OA
ATOM     32  O   UNL     1     112.108 131.567 145.964  0.00  0.00    +0.000 OA
ATOM     33  O   UNL     1     111.200 130.240 145.591  0.00  0.00    +0.000 OA
ATOM     34  C   UNL     1     112.128 131.940 144.585  0.00  0.00    +0.000 C 
ATOM     35  C   UNL     1     111.891 131.422 145.181  0.00  0.00    +0.000 C 
ATOM     36  C   UNL     1     111.911 131.795 143.802  0.00  0.00    +0.000 C 
ATOM     37  C   UNL     1     111.437 130.758 144.994  0.00  0.00    +0.000 C 
ATOM     38  C   UNL     1     111.220 130.614 144.211  0.00  0.00    +0.000 C 
BRANCH  36  40
ATOM     39  O   UNL     1     111.590 132.632 142.689  0.00  0.00    +0.000 OA
ATOM     40  C   UNL     1     112.149 132.314 143.206  0.00  0.00    +0.000 C 
ENDBRANCH  36  40
ENDBRANCH  29  38
ENDBRANCH  23  29
ENDBRANCH  12  24
TORSDOF 5
ENDMDL
MODEL 8
REMARK VINA RESULT:      -9.8      1.348      7.365
REMARK  Name = 44257779
REMARK  5 active torsions:
REMARK  status: ('A' for Active; 'I' for Inactive)
REMARK    1  A    between atoms: O_5  and  C_23
REMARK    2  A    between atoms: O_5  and  C_32
REMARK    3  A    between atoms: C_15  and  C_24
REMARK    4  A    between atoms: C_21  and  C_26
REMARK    5  A    between atoms: C_34  and  C_35
REMARK                            x       y       z     vdW  Elec       q    Type
REMARK                         _______ _______ _______ _____ _____    ______ ____
ROOT
ATOM      1  O   UNL     1     112.593 129.150 141.510  0.00  0.00    +0.000 OA
ATOM      2  O   UNL     1     113.596 131.738 142.333  0.00  0.00    +0.000 OA
ATOM      3  O   UNL     1     111.256 130.657 143.570  0.00  0.00    +0.000 OA
ATOM      4  O   UNL     1     114.293 131.015 141.299  0.00  0.00    +0.000 OA
ATOM      5  C   UNL     1     112.426 131.197 142.951  0.00  0.00    +0.000 A 
ATOM      6  C   UNL     1     113.040 131.132 142.405  0.00  0.00    +0.000 A 
ATOM      7  C   UNL     1     111.870 130.592 143.023  0.00  0.00    +0.000 A 
ATOM      8  C   UNL     1     113.099 130.460 141.928  0.00  0.00    +0.000 A 
ATOM      9  C   UNL     1     112.543 129.854 142.000  0.00  0.00    +0.000 A 
ATOM     10  C   UNL     1     111.929 129.920 142.547  0.00  0.00    +0.000 A 
ATOM     11  C   UNL     1     113.742 130.403 141.363  0.00  0.00    +0.000 A 
ATOM     12  C   UNL     1     113.231 129.076 140.938  0.00  0.00    +0.000 A 
ATOM     13  C   UNL     1     113.809 129.707 140.864  0.00  0.00    +0.000 A 
ENDROOT
BRANCH   5  18
ATOM     14  O   UNL     1     112.671 131.860 144.194  0.00  0.00    +0.000 OA
ATOM     15  O   UNL     1     111.585 133.904 143.319  0.00  0.00    +0.000 OA
ATOM     16  O   UNL     1     112.192 133.884 144.853  0.00  0.00    +0.000 OA
ATOM     17  C   UNL     1     111.947 133.223 143.611  0.00  0.00    +0.000 C 
ATOM     18  C   UNL     1     112.368 131.869 143.427  0.00  0.00    +0.000 C 
ATOM     19  C   UNL     1     112.250 133.212 144.378  0.00  0.00    +0.000 C 
ATOM     20  C   UNL     1     112.006 132.551 143.136  0.00  0.00    +0.000 C 
ATOM     21  C   UNL     1     112.612 132.530 144.669  0.00  0.00    +0.000 C 
ATOM     22  C   UNL     1     112.916 132.521 145.437  0.00  0.00    +0.000 C 
ENDBRANCH   5  18
BRANCH  12  24
ATOM     23  C   UNL     1     113.399 127.058 139.515  0.00  0.00    +0.000 A 
ATOM     24  C   UNL     1     113.287 128.403 140.464  0.00  0.00    +0.000 A 
ATOM     25  C   UNL     1     113.439 126.988 140.336  0.00  0.00    +0.000 A 
ATOM     26  C   UNL     1     113.303 127.800 139.169  0.00  0.00    +0.000 A 
ATOM     27  C   UNL     1     113.383 127.661 140.811  0.00  0.00    +0.000 A 
ATOM     28  C   UNL     1     113.247 128.473 139.643  0.00  0.00    +0.000 A 
BRANCH  23  29
ATOM     29  O   UNL     1     113.455 126.385 139.040  0.00  0.00    +0.000 OA
BRANCH  29  38
ATOM     30  O   UNL     1     112.057 126.095 138.969  0.00  0.00    +0.000 OA
ATOM     31  O   UNL     1     110.835 125.359 137.318  0.00  0.00    +0.000 OA
ATOM     32  O   UNL     1     112.318 125.426 136.600  0.00  0.00    +0.000 OA
ATOM     33  O   UNL     1     113.628 125.939 137.461  0.00  0.00    +0.000 OA
ATOM     34  C   UNL     1     111.490 125.615 137.749  0.00  0.00    +0.000 C 
ATOM     35  C   UNL     1     112.231 125.649 137.389  0.00  0.00    +0.000 C 
ATOM     36  C   UNL     1     111.403 125.838 138.539  0.00  0.00    +0.000 C 
ATOM     37  C   UNL     1     112.887 125.906 137.821  0.00  0.00    +0.000 C 
ATOM     38  C   UNL     1     112.800 126.129 138.610  0.00  0.00    +0.000 C 
BRANCH  36  40
ATOM     39  O   UNL     1     110.555 125.364 139.587  0.00  0.00    +0.000 OA
ATOM     40  C   UNL     1     110.661 125.804 138.897  0.00  0.00    +0.000 C 
ENDBRANCH  36  40
ENDBRANCH  29  38
ENDBRANCH  23  29
ENDBRANCH  12  24
TORSDOF 5
ENDMDL
MODEL 9
REMARK VINA RESULT:      -9.8      8.025      9.903
REMARK  Name = 44257779
REMARK  5 active torsions:
REMARK  status: ('A' for Active; 'I' for Inactive)
REMARK    1  A    between atoms: O_5  and  C_23
REMARK    2  A    between atoms: O_5  and  C_32
REMARK    3  A    between atoms: C_15  and  C_24
REMARK    4  A    between atoms: C_21  and  C_26
REMARK    5  A    between atoms: C_34  and  C_35
REMARK                            x       y       z     vdW  Elec       q    Type
REMARK                         _______ _______ _______ _____ _____    ______ ____
ROOT
ATOM      1  O   UNL     1     104.789 128.684 143.889  0.00  0.00    +0.000 OA
ATOM      2  O   UNL     1     104.067 129.912 141.369  0.00  0.00    +0.000 OA
ATOM      3  O   UNL     1     103.232 131.107 143.827  0.00  0.00    +0.000 OA
ATOM      4  O   UNL     1     104.847 128.699 141.358  0.00  0.00    +0.000 OA
ATOM      5  C   UNL     1     103.650 130.509 142.599  0.00  0.00    +0.000 A 
ATOM      6  C   UNL     1     104.046 129.910 142.194  0.00  0.00    +0.000 A 
ATOM      7  C   UNL     1     103.629 130.507 143.423  0.00  0.00    +0.000 A 
ATOM      8  C   UNL     1     104.422 129.307 142.615  0.00  0.00    +0.000 A 
ATOM      9  C   UNL     1     104.401 129.305 143.440  0.00  0.00    +0.000 A 
ATOM     10  C   UNL     1     104.005 129.905 143.844  0.00  0.00    +0.000 A 
ATOM     11  C   UNL     1     104.832 128.688 142.183  0.00  0.00    +0.000 A 
ATOM     12  C   UNL     1     105.204 128.056 143.474  0.00  0.00    +0.000 A 
ATOM     13  C   UNL     1     105.225 128.059 142.615  0.00  0.00    +0.000 A 
ENDROOT
BRANCH   5  18
ATOM     14  O   UNL     1     103.705 131.762 141.912  0.00  0.00    +0.000 OA
ATOM     15  O   UNL     1     101.279 131.616 141.446  0.00  0.00    +0.000 OA
ATOM     16  O   UNL     1     102.145 132.916 140.916  0.00  0.00    +0.000 OA
ATOM     17  C   UNL     1     102.088 131.664 141.602  0.00  0.00    +0.000 C 
ATOM     18  C   UNL     1     103.274 131.111 142.178  0.00  0.00    +0.000 C 
ATOM     19  C   UNL     1     102.521 132.314 141.336  0.00  0.00    +0.000 C 
ATOM     20  C   UNL     1     102.465 131.063 142.022  0.00  0.00    +0.000 C 
ATOM     21  C   UNL     1     103.330 132.363 141.492  0.00  0.00    +0.000 C 
ATOM     22  C   UNL     1     103.762 133.014 141.226  0.00  0.00    +0.000 C 
ENDBRANCH   5  18
BRANCH  12  24
ATOM     23  C   UNL     1     106.329 126.254 144.744  0.00  0.00    +0.000 A 
ATOM     24  C   UNL     1     105.579 127.455 143.897  0.00  0.00    +0.000 A 
ATOM     25  C   UNL     1     106.313 127.023 145.045  0.00  0.00    +0.000 A 
ATOM     26  C   UNL     1     105.971 126.087 144.020  0.00  0.00    +0.000 A 
ATOM     27  C   UNL     1     105.938 127.623 144.622  0.00  0.00    +0.000 A 
ATOM     28  C   UNL     1     105.596 126.688 143.597  0.00  0.00    +0.000 A 
BRANCH  23  29
ATOM     29  O   UNL     1     106.704 125.653 145.167  0.00  0.00    +0.000 OA
BRANCH  29  38
ATOM     30  O   UNL     1     105.545 125.122 145.812  0.00  0.00    +0.000 OA
ATOM     31  O   UNL     1     105.258 124.368 147.840  0.00  0.00    +0.000 OA
ATOM     32  O   UNL     1     106.853 124.788 147.887  0.00  0.00    +0.000 OA
ATOM     33  O   UNL     1     107.576 125.430 146.551  0.00  0.00    +0.000 OA
ATOM     34  C   UNL     1     105.619 124.690 147.172  0.00  0.00    +0.000 C 
ATOM     35  C   UNL     1     106.417 124.899 147.196  0.00  0.00    +0.000 C 
ATOM     36  C   UNL     1     105.183 124.801 146.480  0.00  0.00    +0.000 C 
ATOM     37  C   UNL     1     106.778 125.221 146.527  0.00  0.00    +0.000 C 
ATOM     38  C   UNL     1     106.343 125.332 145.835  0.00  0.00    +0.000 C 
BRANCH  36  40
ATOM     39  O   UNL     1     104.081 124.199 145.798  0.00  0.00    +0.000 OA
ATOM     40  C   UNL     1     104.387 124.591 146.457  0.00  0.00    +0.000 C 
ENDBRANCH  36  40
ENDBRANCH  29  38
ENDBRANCH  23  29
ENDBRANCH  12  24
TORSDOF 5
ENDMDL
MODEL 10
REMARK VINA RESULT:      -9.7      1.962      8.120
REMARK  Name = 44257779
REMARK  5 active torsions:
REMARK  status: ('A' for Active; 'I' for Inactive)
REMARK    1  A    between atoms: O_5  and  C_23
REMARK    2  A    between atoms: O_5  and  C_32
REMARK    3  A    between atoms: C_15  and  C_24
REMARK    4  A    between atoms: C_21  and  C_26
REMARK    5  A    between atoms: C_34  and  C_35
REMARK                            x       y       z     vdW  Elec       q    Type
REMARK                         _______ _______ _______ _____ _____    ______ ____
ROOT
ATOM      1  O   UNL     1     112.439 131.543 142.634  0.00  0.00    +0.000 OA
ATOM      2  O   UNL     1     111.192 131.109 145.210  0.00  0.00    +0.000 OA
ATOM      3  O   UNL     1     112.105 133.720 144.492  0.00  0.00    +0.000 OA
ATOM      4  O   UNL     1     111.341 129.993 144.308  0.00  0.00    +0.000 OA
ATOM      5  C   UNL     1     111.649 132.414 144.851  0.00  0.00    +0.000 A 
ATOM      6  C   UNL     1     111.550 131.616 144.667  0.00  0.00    +0.000 A 
ATOM      7  C   UNL     1     112.006 132.922 144.308  0.00  0.00    +0.000 A 
ATOM      8  C   UNL     1     111.809 131.326 143.939  0.00  0.00    +0.000 A 
ATOM      9  C   UNL     1     112.166 131.834 143.395  0.00  0.00    +0.000 A 
ATOM     10  C   UNL     1     112.265 132.632 143.580  0.00  0.00    +0.000 A 
ATOM     11  C   UNL     1     111.700 130.493 143.758  0.00  0.00    +0.000 A 
ATOM     12  C   UNL     1     112.339 130.712 142.436  0.00  0.00    +0.000 A 
ATOM     13  C   UNL     1     111.967 130.184 143.003  0.00  0.00    +0.000 A 
ENDROOT
BRANCH   5  18
ATOM     14  O   UNL     1     111.890 132.682 146.234  0.00  0.00    +0.000 OA
ATOM     15  O   UNL     1     109.611 133.622 146.451  0.00  0.00    +0.000 OA
ATOM     16  O   UNL     1     110.614 133.576 147.761  0.00  0.00    +0.000 OA
ATOM     17  C   UNL     1     110.371 133.308 146.378  0.00  0.00    +0.000 C 
ATOM     18  C   UNL     1     111.390 132.704 145.578  0.00  0.00    +0.000 C 
ATOM     19  C   UNL     1     110.872 133.285 147.033  0.00  0.00    +0.000 C 
ATOM     20  C   UNL     1     110.631 133.018 145.651  0.00  0.00    +0.000 C 
ATOM     21  C   UNL     1     111.632 132.972 146.961  0.00  0.00    +0.000 C 
ATOM     22  C   UNL     1     112.133 132.949 147.616  0.00  0.00    +0.000 C 
ENDBRANCH   5  18
BRANCH  12  24
ATOM     23  C   UNL     1     113.118 129.850 140.251  0.00  0.00    +0.000 A 
ATOM     24  C   UNL     1     112.599 130.425 141.708  0.00  0.00    +0.000 A 
ATOM     25  C   UNL     1     113.666 130.069 140.828  0.00  0.00    +0.000 A 
ATOM     26  C   UNL     1     112.310 129.919 140.404  0.00  0.00    +0.000 A 
ATOM     27  C   UNL     1     113.407 130.356 141.556  0.00  0.00    +0.000 A 
ATOM     28  C   UNL     1     112.050 130.206 141.132  0.00  0.00    +0.000 A 
BRANCH  23  29
ATOM     29  O   UNL     1     113.377 129.562 139.523  0.00  0.00    +0.000 OA
BRANCH  29  38
ATOM     30  O   UNL     1     113.634 128.220 139.942  0.00  0.00    +0.000 OA
ATOM     31  O   UNL     1     113.324 126.320 138.915  0.00  0.00    +0.000 OA
ATOM     32  O   UNL     1     112.784 127.381 137.774  0.00  0.00    +0.000 OA
ATOM     33  O   UNL     1     112.811 129.003 138.077  0.00  0.00    +0.000 OA
ATOM     34  C   UNL     1     113.337 127.130 139.068  0.00  0.00    +0.000 C 
ATOM     35  C   UNL     1     113.067 127.661 138.496  0.00  0.00    +0.000 C 
ATOM     36  C   UNL     1     113.621 127.410 139.790  0.00  0.00    +0.000 C 
ATOM     37  C   UNL     1     113.081 128.472 138.649  0.00  0.00    +0.000 C 
ATOM     38  C   UNL     1     113.364 128.752 139.371  0.00  0.00    +0.000 C 
BRANCH  36  40
ATOM     39  O   UNL     1     114.650 126.959 140.673  0.00  0.00    +0.000 OA
ATOM     40  C   UNL     1     113.890 126.879 140.360  0.00  0.00    +0.000 C 
ENDBRANCH  36  40
ENDBRANCH  29  38
ENDBRANCH  23  29
ENDBRANCH  12  24
TORSDOF 5
ENDMDL
