MODEL 1
REMARK VINA RESULT:      -9.0      0.000      0.000
REMARK  Name = 14825857
REMARK  7 active torsions:
REMARK  status: ('A' for Active; 'I' for Inactive)
REMARK    1  A    between atoms: O_2  and  C_14
REMARK    2  A    between atoms: O_2  and  C_20
REMARK    3  A    between atoms: O_3  and  C_15
REMARK    4  A    between atoms: O_3  and  C_21
REMARK    5  A    between atoms: O_4  and  C_17
REMARK    6  A    between atoms: O_4  and  C_19
REMARK    7  A    between atoms: C_22  and  C_28
REMARK                            x       y       z     vdW  Elec       q    Type
REMARK                         _______ _______ _______ _____ _____    ______ ____
ROOT
ATOM      1  O   UNL     1     114.168 127.431 136.134  0.00  0.00    +0.000 OA
ATOM      2  O   UNL     1     112.073 128.429 136.994  0.00  0.00    +0.000 OA
ATOM      3  O   UNL     1     112.342 129.664 136.298  0.00  0.00    +0.000 OA
ATOM      4  O   UNL     1     114.776 129.893 134.702  0.00  0.00    +0.000 OA
ATOM      5  C   UNL     1     112.975 127.324 136.913  0.00  0.00    +0.000 A 
ATOM      6  C   UNL     1     113.673 126.991 136.627  0.00  0.00    +0.000 A 
ATOM      7  C   UNL     1     112.771 128.096 136.708  0.00  0.00    +0.000 A 
ATOM      8  C   UNL     1     113.265 128.536 136.215  0.00  0.00    +0.000 A 
ATOM      9  C   UNL     1     113.964 128.203 135.928  0.00  0.00    +0.000 A 
ATOM     10  C   UNL     1     113.042 129.339 136.007  0.00  0.00    +0.000 A 
ATOM     11  C   UNL     1     114.487 128.651 135.414  0.00  0.00    +0.000 A 
ATOM     12  C   UNL     1     113.552 129.802 135.494  0.00  0.00    +0.000 A 
ATOM     13  C   UNL     1     114.279 129.456 135.196  0.00  0.00    +0.000 A 
ENDROOT
BRANCH   6  15
ATOM     14  O   UNL     1     114.493 123.903 137.452  0.00  0.00    +0.000 OA
ATOM     15  C   UNL     1     113.878 126.219 136.833  0.00  0.00    +0.000 A 
ATOM     16  C   UNL     1     114.210 126.064 137.572  0.00  0.00    +0.000 A 
ATOM     17  C   UNL     1     113.751 125.602 136.300  0.00  0.00    +0.000 A 
ATOM     18  C   UNL     1     114.415 125.292 137.779  0.00  0.00    +0.000 A 
ATOM     19  C   UNL     1     113.956 124.830 136.506  0.00  0.00    +0.000 A 
ATOM     20  C   UNL     1     114.288 124.675 137.245  0.00  0.00    +0.000 A 
ENDBRANCH   6  15
BRANCH   5  21
ATOM     21  O   UNL     1     112.481 126.884 137.406  0.00  0.00    +0.000 OA
BRANCH  21  28
ATOM     22  O   UNL     1     111.498 126.642 136.397  0.00  0.00    +0.000 OA
ATOM     23  O   UNL     1     109.735 126.572 138.132  0.00  0.00    +0.000 OA
ATOM     24  C   UNL     1     110.323 126.595 137.554  0.00  0.00    +0.000 C 
ATOM     25  C   UNL     1     110.124 126.486 136.760  0.00  0.00    +0.000 C 
ATOM     26  C   UNL     1     111.107 126.728 137.769  0.00  0.00    +0.000 C 
ATOM     27  C   UNL     1     110.712 126.510 136.182  0.00  0.00    +0.000 C 
ATOM     28  C   UNL     1     111.695 126.751 137.191  0.00  0.00    +0.000 C 
ATOM     29  C   UNL     1     110.516 126.401 135.388  0.00  0.00    +0.000 C 
BRANCH  25  30
ATOM     30  O   UNL     1     109.340 126.354 136.545  0.00  0.00    +0.000 OA
BRANCH  30  32
ATOM     31  O   UNL     1     108.726 127.625 136.765  0.00  0.00    +0.000 OA
ATOM     32  C   UNL     1     108.874 126.979 136.274  0.00  0.00    +0.000 C 
ATOM     33  C   UNL     1     108.557 126.958 135.513  0.00  0.00    +0.000 C 
ENDBRANCH  30  32
ENDBRANCH  25  30
BRANCH  26  34
ATOM     34  O   UNL     1     111.305 126.837 138.563  0.00  0.00    +0.000 OA
BRANCH  34  36
ATOM     35  O   UNL     1     111.265 125.463 138.955  0.00  0.00    +0.000 OA
ATOM     36  C   UNL     1     111.114 126.258 139.118  0.00  0.00    +0.000 C 
ATOM     37  C   UNL     1     110.771 126.473 139.837  0.00  0.00    +0.000 C 
ENDBRANCH  34  36
ENDBRANCH  26  34
ENDBRANCH  21  28
ENDBRANCH   5  21
TORSDOF 7
ENDMDL
MODEL 2
REMARK VINA RESULT:      -9.0      1.566      2.864
REMARK  Name = 14825857
REMARK  7 active torsions:
REMARK  status: ('A' for Active; 'I' for Inactive)
REMARK    1  A    between atoms: O_2  and  C_14
REMARK    2  A    between atoms: O_2  and  C_20
REMARK    3  A    between atoms: O_3  and  C_15
REMARK    4  A    between atoms: O_3  and  C_21
REMARK    5  A    between atoms: O_4  and  C_17
REMARK    6  A    between atoms: O_4  and  C_19
REMARK    7  A    between atoms: C_22  and  C_28
REMARK                            x       y       z     vdW  Elec       q    Type
REMARK                         _______ _______ _______ _____ _____    ______ ____
ROOT
ATOM      1  O   UNL     1     113.641 127.125 136.309  0.00  0.00    +0.000 OA
ATOM      2  O   UNL     1     112.266 128.337 137.970  0.00  0.00    +0.000 OA
ATOM      3  O   UNL     1     112.737 129.608 137.475  0.00  0.00    +0.000 OA
ATOM      4  O   UNL     1     114.635 129.652 135.258  0.00  0.00    +0.000 OA
ATOM      5  C   UNL     1     112.712 127.108 137.394  0.00  0.00    +0.000 A 
ATOM      6  C   UNL     1     113.171 126.704 136.841  0.00  0.00    +0.000 A 
ATOM      7  C   UNL     1     112.724 127.933 137.417  0.00  0.00    +0.000 A 
ATOM      8  C   UNL     1     113.194 128.354 136.885  0.00  0.00    +0.000 A 
ATOM      9  C   UNL     1     113.654 127.949 136.331  0.00  0.00    +0.000 A 
ATOM     10  C   UNL     1     113.198 129.211 136.918  0.00  0.00    +0.000 A 
ATOM     11  C   UNL     1     114.147 128.375 135.772  0.00  0.00    +0.000 A 
ATOM     12  C   UNL     1     113.686 129.656 136.367  0.00  0.00    +0.000 A 
ATOM     13  C   UNL     1     114.164 129.234 135.791  0.00  0.00    +0.000 A 
ENDROOT
BRANCH   6  15
ATOM     14  O   UNL     1     113.123 123.406 136.749  0.00  0.00    +0.000 OA
ATOM     15  C   UNL     1     113.159 125.879 136.818  0.00  0.00    +0.000 A 
ATOM     16  C   UNL     1     112.529 125.486 136.460  0.00  0.00    +0.000 A 
ATOM     17  C   UNL     1     113.777 125.449 137.153  0.00  0.00    +0.000 A 
ATOM     18  C   UNL     1     112.516 124.661 136.437  0.00  0.00    +0.000 A 
ATOM     19  C   UNL     1     113.766 124.624 137.130  0.00  0.00    +0.000 A 
ATOM     20  C   UNL     1     113.136 124.230 136.772  0.00  0.00    +0.000 A 
ENDBRANCH   6  15
BRANCH   5  21
ATOM     21  O   UNL     1     112.242 126.688 137.926  0.00  0.00    +0.000 OA
BRANCH  21  28
ATOM     22  O   UNL     1     113.107 126.893 139.044  0.00  0.00    +0.000 OA
ATOM     23  O   UNL     1     111.152 126.867 140.562  0.00  0.00    +0.000 OA
ATOM     24  C   UNL     1     111.804 126.875 140.056  0.00  0.00    +0.000 C 
ATOM     25  C   UNL     1     112.562 126.982 140.363  0.00  0.00    +0.000 C 
ATOM     26  C   UNL     1     111.697 126.778 139.244  0.00  0.00    +0.000 C 
ATOM     27  C   UNL     1     113.214 126.991 139.857  0.00  0.00    +0.000 C 
ATOM     28  C   UNL     1     112.349 126.786 138.739  0.00  0.00    +0.000 C 
ATOM     29  C   UNL     1     113.973 127.097 140.163  0.00  0.00    +0.000 C 
BRANCH  25  30
ATOM     30  O   UNL     1     112.669 127.080 141.174  0.00  0.00    +0.000 OA
BRANCH  30  32
ATOM     31  O   UNL     1     112.964 128.476 141.249  0.00  0.00    +0.000 OA
ATOM     32  C   UNL     1     112.547 127.819 141.521  0.00  0.00    +0.000 C 
ATOM     33  C   UNL     1     112.008 127.900 142.140  0.00  0.00    +0.000 C 
ENDBRANCH  30  32
ENDBRANCH  25  30
BRANCH  26  34
ATOM     34  O   UNL     1     110.938 126.671 138.937  0.00  0.00    +0.000 OA
BRANCH  34  36
ATOM     35  O   UNL     1     110.804 125.287 139.268  0.00  0.00    +0.000 OA
ATOM     36  C   UNL     1     110.474 126.040 139.196  0.00  0.00    +0.000 C 
ATOM     37  C   UNL     1     109.680 126.162 139.384  0.00  0.00    +0.000 C 
ENDBRANCH  34  36
ENDBRANCH  26  34
ENDBRANCH  21  28
ENDBRANCH   5  21
TORSDOF 7
ENDMDL
MODEL 3
REMARK VINA RESULT:      -8.9      8.833     11.839
REMARK  Name = 14825857
REMARK  7 active torsions:
REMARK  status: ('A' for Active; 'I' for Inactive)
REMARK    1  A    between atoms: O_2  and  C_14
REMARK    2  A    between atoms: O_2  and  C_20
REMARK    3  A    between atoms: O_3  and  C_15
REMARK    4  A    between atoms: O_3  and  C_21
REMARK    5  A    between atoms: O_4  and  C_17
REMARK    6  A    between atoms: O_4  and  C_19
REMARK    7  A    between atoms: C_22  and  C_28
REMARK                            x       y       z     vdW  Elec       q    Type
REMARK                         _______ _______ _______ _____ _____    ______ ____
ROOT
ATOM      1  O   UNL     1     105.517 124.369 147.467  0.00  0.00    +0.000 OA
ATOM      2  O   UNL     1     107.099 125.408 145.874  0.00  0.00    +0.000 OA
ATOM      3  O   UNL     1     108.091 125.557 146.912  0.00  0.00    +0.000 OA
ATOM      4  O   UNL     1     107.468 124.637 149.612  0.00  0.00    +0.000 OA
ATOM      5  C   UNL     1     105.826 124.820 146.148  0.00  0.00    +0.000 A 
ATOM      6  C   UNL     1     105.298 124.474 146.679  0.00  0.00    +0.000 A 
ATOM      7  C   UNL     1     106.572 125.061 146.405  0.00  0.00    +0.000 A 
ATOM      8  C   UNL     1     106.790 124.956 147.193  0.00  0.00    +0.000 A 
ATOM      9  C   UNL     1     106.262 124.609 147.725  0.00  0.00    +0.000 A 
ATOM     10  C   UNL     1     107.569 125.211 147.449  0.00  0.00    +0.000 A 
ATOM     11  C   UNL     1     106.478 124.495 148.549  0.00  0.00    +0.000 A 
ATOM     12  C   UNL     1     107.803 125.105 148.270  0.00  0.00    +0.000 A 
ATOM     13  C   UNL     1     107.253 124.744 148.823  0.00  0.00    +0.000 A 
ENDROOT
BRANCH   6  15
ATOM     14  O   UNL     1     102.314 123.510 145.653  0.00  0.00    +0.000 OA
ATOM     15  C   UNL     1     104.552 124.232 146.422  0.00  0.00    +0.000 A 
ATOM     16  C   UNL     1     103.887 124.683 146.607  0.00  0.00    +0.000 A 
ATOM     17  C   UNL     1     104.472 123.541 145.980  0.00  0.00    +0.000 A 
ATOM     18  C   UNL     1     103.141 124.443 146.351  0.00  0.00    +0.000 A 
ATOM     19  C   UNL     1     103.725 123.300 145.723  0.00  0.00    +0.000 A 
ATOM     20  C   UNL     1     103.060 123.750 145.909  0.00  0.00    +0.000 A 
ENDBRANCH   6  15
BRANCH   5  21
ATOM     21  O   UNL     1     105.608 124.925 145.359  0.00  0.00    +0.000 OA
BRANCH  21  28
ATOM     22  O   UNL     1     105.398 126.337 145.433  0.00  0.00    +0.000 OA
ATOM     23  O   UNL     1     106.303 126.592 143.144  0.00  0.00    +0.000 OA
ATOM     24  C   UNL     1     106.002 126.507 143.907  0.00  0.00    +0.000 C 
ATOM     25  C   UNL     1     105.746 127.170 144.325  0.00  0.00    +0.000 C 
ATOM     26  C   UNL     1     105.956 125.759 144.251  0.00  0.00    +0.000 C 
ATOM     27  C   UNL     1     105.444 127.085 145.088  0.00  0.00    +0.000 C 
ATOM     28  C   UNL     1     105.654 125.674 145.014  0.00  0.00    +0.000 C 
ATOM     29  C   UNL     1     105.188 127.748 145.508  0.00  0.00    +0.000 C 
BRANCH  25  30
ATOM     30  O   UNL     1     105.792 127.918 143.981  0.00  0.00    +0.000 OA
BRANCH  30  32
ATOM     31  O   UNL     1     107.200 128.145 144.066  0.00  0.00    +0.000 OA
ATOM     32  C   UNL     1     106.426 128.416 144.157  0.00  0.00    +0.000 C 
ATOM     33  C   UNL     1     106.287 129.183 144.425  0.00  0.00    +0.000 C 
ENDBRANCH  30  32
ENDBRANCH  25  30
BRANCH  26  34
ATOM     34  O   UNL     1     106.211 125.095 143.833  0.00  0.00    +0.000 OA
BRANCH  34  36
ATOM     35  O   UNL     1     105.088 124.740 143.023  0.00  0.00    +0.000 OA
ATOM     36  C   UNL     1     105.890 124.925 143.093  0.00  0.00    +0.000 C 
ATOM     37  C   UNL     1     106.368 124.941 142.421  0.00  0.00    +0.000 C 
ENDBRANCH  34  36
ENDBRANCH  26  34
ENDBRANCH  21  28
ENDBRANCH   5  21
TORSDOF 7
ENDMDL
MODEL 4
REMARK VINA RESULT:      -8.9      1.573      3.457
REMARK  Name = 14825857
REMARK  7 active torsions:
REMARK  status: ('A' for Active; 'I' for Inactive)
REMARK    1  A    between atoms: O_2  and  C_14
REMARK    2  A    between atoms: O_2  and  C_20
REMARK    3  A    between atoms: O_3  and  C_15
REMARK    4  A    between atoms: O_3  and  C_21
REMARK    5  A    between atoms: O_4  and  C_17
REMARK    6  A    between atoms: O_4  and  C_19
REMARK    7  A    between atoms: C_22  and  C_28
REMARK                            x       y       z     vdW  Elec       q    Type
REMARK                         _______ _______ _______ _____ _____    ______ ____
ROOT
ATOM      1  O   UNL     1     111.823 125.579 136.128  0.00  0.00    +0.000 OA
ATOM      2  O   UNL     1     110.894 127.117 137.830  0.00  0.00    +0.000 OA
ATOM      3  O   UNL     1     109.650 127.213 137.105  0.00  0.00    +0.000 OA
ATOM      4  O   UNL     1     109.341 125.725 134.612  0.00  0.00    +0.000 OA
ATOM      5  C   UNL     1     111.969 126.309 137.347  0.00  0.00    +0.000 A 
ATOM      6  C   UNL     1     112.279 125.797 136.781  0.00  0.00    +0.000 A 
ATOM      7  C   UNL     1     111.203 126.605 137.263  0.00  0.00    +0.000 A 
ATOM      8  C   UNL     1     110.748 126.387 136.611  0.00  0.00    +0.000 A 
ATOM      9  C   UNL     1     111.058 125.874 136.043  0.00  0.00    +0.000 A 
ATOM     10  C   UNL     1     109.952 126.701 136.533  0.00  0.00    +0.000 A 
ATOM     11  C   UNL     1     110.593 125.640 135.359  0.00  0.00    +0.000 A 
ATOM     12  C   UNL     1     109.472 126.478 135.856  0.00  0.00    +0.000 A 
ATOM     13  C   UNL     1     109.795 125.944 135.265  0.00  0.00    +0.000 A 
ENDROOT
BRANCH   6  15
ATOM     14  O   UNL     1     115.341 124.614 137.120  0.00  0.00    +0.000 OA
ATOM     15  C   UNL     1     113.045 125.502 136.865  0.00  0.00    +0.000 A 
ATOM     16  C   UNL     1     113.186 124.859 137.363  0.00  0.00    +0.000 A 
ATOM     17  C   UNL     1     113.669 125.848 136.453  0.00  0.00    +0.000 A 
ATOM     18  C   UNL     1     113.951 124.563 137.448  0.00  0.00    +0.000 A 
ATOM     19  C   UNL     1     114.435 125.553 136.537  0.00  0.00    +0.000 A 
ATOM     20  C   UNL     1     114.576 124.910 137.035  0.00  0.00    +0.000 A 
ENDBRANCH   6  15
BRANCH   5  21
ATOM     21  O   UNL     1     112.425 126.527 138.000  0.00  0.00    +0.000 OA
BRANCH  21  28
ATOM     22  O   UNL     1     112.711 127.838 137.507  0.00  0.00    +0.000 OA
ATOM     23  O   UNL     1     112.843 128.681 139.830  0.00  0.00    +0.000 OA
ATOM     24  C   UNL     1     112.799 128.400 139.056  0.00  0.00    +0.000 C 
ATOM     25  C   UNL     1     112.920 128.915 138.423  0.00  0.00    +0.000 C 
ATOM     26  C   UNL     1     112.634 127.605 138.915  0.00  0.00    +0.000 C 
ATOM     27  C   UNL     1     112.876 128.634 137.649  0.00  0.00    +0.000 C 
ATOM     28  C   UNL     1     112.590 127.323 138.141  0.00  0.00    +0.000 C 
ATOM     29  C   UNL     1     112.997 129.148 137.015  0.00  0.00    +0.000 C 
BRANCH  25  30
ATOM     30  O   UNL     1     113.085 129.711 138.564  0.00  0.00    +0.000 OA
BRANCH  30  32
ATOM     31  O   UNL     1     111.814 130.196 139.001  0.00  0.00    +0.000 OA
ATOM     32  C   UNL     1     112.481 130.272 138.521  0.00  0.00    +0.000 C 
ATOM     33  C   UNL     1     112.544 130.907 138.000  0.00  0.00    +0.000 C 
ENDBRANCH  30  32
ENDBRANCH  25  30
BRANCH  26  34
ATOM     34  O   UNL     1     112.513 127.089 139.548  0.00  0.00    +0.000 OA
BRANCH  34  36
ATOM     35  O   UNL     1     113.880 126.862 139.899  0.00  0.00    +0.000 OA
ATOM     36  C   UNL     1     113.098 126.999 140.123  0.00  0.00    +0.000 C 
ATOM     37  C   UNL     1     112.901 127.046 140.923  0.00  0.00    +0.000 C 
ENDBRANCH  34  36
ENDBRANCH  26  34
ENDBRANCH  21  28
ENDBRANCH   5  21
TORSDOF 7
ENDMDL
MODEL 5
REMARK VINA RESULT:      -8.8      1.412      3.703
REMARK  Name = 14825857
REMARK  7 active torsions:
REMARK  status: ('A' for Active; 'I' for Inactive)
REMARK    1  A    between atoms: O_2  and  C_14
REMARK    2  A    between atoms: O_2  and  C_20
REMARK    3  A    between atoms: O_3  and  C_15
REMARK    4  A    between atoms: O_3  and  C_21
REMARK    5  A    between atoms: O_4  and  C_17
REMARK    6  A    between atoms: O_4  and  C_19
REMARK    7  A    between atoms: C_22  and  C_28
REMARK                            x       y       z     vdW  Elec       q    Type
REMARK                         _______ _______ _______ _____ _____    ______ ____
ROOT
ATOM      1  O   UNL     1     112.465 129.810 136.973  0.00  0.00    +0.000 OA
ATOM      2  O   UNL     1     113.202 127.870 135.626  0.00  0.00    +0.000 OA
ATOM      3  O   UNL     1     114.380 128.581 135.194  0.00  0.00    +0.000 OA
ATOM      4  O   UNL     1     114.821 131.307 136.143  0.00  0.00    +0.000 OA
ATOM      5  C   UNL     1     112.254 128.477 136.506  0.00  0.00    +0.000 A 
ATOM      6  C   UNL     1     112.008 129.123 136.955  0.00  0.00    +0.000 A 
ATOM      7  C   UNL     1     112.956 128.516 136.075  0.00  0.00    +0.000 A 
ATOM      8  C   UNL     1     113.413 129.203 136.093  0.00  0.00    +0.000 A 
ATOM      9  C   UNL     1     113.167 129.851 136.543  0.00  0.00    +0.000 A 
ATOM     10  C   UNL     1     114.142 129.233 135.640  0.00  0.00    +0.000 A 
ATOM     11  C   UNL     1     113.634 130.572 136.570  0.00  0.00    +0.000 A 
ATOM     12  C   UNL     1     114.622 129.946 135.655  0.00  0.00    +0.000 A 
ATOM     13  C   UNL     1     114.366 130.619 136.123  0.00  0.00    +0.000 A 
ENDROOT
BRANCH   6  15
ATOM     14  O   UNL     1     109.198 128.967 138.678  0.00  0.00    +0.000 OA
ATOM     15  C   UNL     1     111.306 129.084 137.387  0.00  0.00    +0.000 A 
ATOM     16  C   UNL     1     110.582 129.201 137.008  0.00  0.00    +0.000 A 
ATOM     17  C   UNL     1     111.326 128.928 138.196  0.00  0.00    +0.000 A 
ATOM     18  C   UNL     1     109.880 129.162 137.438  0.00  0.00    +0.000 A 
ATOM     19  C   UNL     1     110.624 128.889 138.627  0.00  0.00    +0.000 A 
ATOM     20  C   UNL     1     109.900 129.006 138.248  0.00  0.00    +0.000 A 
ENDBRANCH   6  15
BRANCH   5  21
ATOM     21  O   UNL     1     111.797 127.790 136.488  0.00  0.00    +0.000 OA
BRANCH  21  28
ATOM     22  O   UNL     1     112.686 127.034 137.312  0.00  0.00    +0.000 OA
ATOM     23  O   UNL     1     112.023 124.964 136.128  0.00  0.00    +0.000 OA
ATOM     24  C   UNL     1     112.244 125.654 136.523  0.00  0.00    +0.000 C 
ATOM     25  C   UNL     1     112.799 125.620 137.132  0.00  0.00    +0.000 C 
ATOM     26  C   UNL     1     111.910 126.376 136.308  0.00  0.00    +0.000 C 
ATOM     27  C   UNL     1     113.021 126.310 137.527  0.00  0.00    +0.000 C 
ATOM     28  C   UNL     1     112.131 127.066 136.703  0.00  0.00    +0.000 C 
ATOM     29  C   UNL     1     113.576 126.277 138.136  0.00  0.00    +0.000 C 
BRANCH  25  30
ATOM     30  O   UNL     1     113.133 124.897 137.347  0.00  0.00    +0.000 OA
BRANCH  30  32
ATOM     31  O   UNL     1     113.852 124.383 136.224  0.00  0.00    +0.000 OA
ATOM     32  C   UNL     1     113.843 124.652 137.004  0.00  0.00    +0.000 C 
ATOM     33  C   UNL     1     114.542 124.675 137.440  0.00  0.00    +0.000 C 
ENDBRANCH  30  32
ENDBRANCH  25  30
BRANCH  26  34
ATOM     34  O   UNL     1     111.354 126.410 135.699  0.00  0.00    +0.000 OA
BRANCH  34  36
ATOM     35  O   UNL     1     110.237 125.937 136.454  0.00  0.00    +0.000 OA
ATOM     36  C   UNL     1     110.663 125.964 135.747  0.00  0.00    +0.000 C 
ATOM     37  C   UNL     1     110.396 125.544 135.089  0.00  0.00    +0.000 C 
ENDBRANCH  34  36
ENDBRANCH  26  34
ENDBRANCH  21  28
ENDBRANCH   5  21
TORSDOF 7
ENDMDL
MODEL 6
REMARK VINA RESULT:      -8.7      1.476      4.745
REMARK  Name = 14825857
REMARK  7 active torsions:
REMARK  status: ('A' for Active; 'I' for Inactive)
REMARK    1  A    between atoms: O_2  and  C_14
REMARK    2  A    between atoms: O_2  and  C_20
REMARK    3  A    between atoms: O_3  and  C_15
REMARK    4  A    between atoms: O_3  and  C_21
REMARK    5  A    between atoms: O_4  and  C_17
REMARK    6  A    between atoms: O_4  and  C_19
REMARK    7  A    between atoms: C_22  and  C_28
REMARK                            x       y       z     vdW  Elec       q    Type
REMARK                         _______ _______ _______ _____ _____    ______ ____
ROOT
ATOM      1  O   UNL     1     111.057 125.378 136.361  0.00  0.00    +0.000 OA
ATOM      2  O   UNL     1     113.347 126.315 136.358  0.00  0.00    +0.000 OA
ATOM      3  O   UNL     1     113.901 125.038 136.738  0.00  0.00    +0.000 OA
ATOM      4  O   UNL     1     112.104 122.770 137.128  0.00  0.00    +0.000 OA
ATOM      5  C   UNL     1     111.940 126.484 136.172  0.00  0.00    +0.000 A 
ATOM      6  C   UNL     1     111.177 126.172 136.173  0.00  0.00    +0.000 A 
ATOM      7  C   UNL     1     112.584 126.003 136.359  0.00  0.00    +0.000 A 
ATOM      8  C   UNL     1     112.464 125.209 136.548  0.00  0.00    +0.000 A 
ATOM      9  C   UNL     1     111.700 124.896 136.549  0.00  0.00    +0.000 A 
ATOM     10  C   UNL     1     113.141 124.718 136.741  0.00  0.00    +0.000 A 
ATOM     11  C   UNL     1     111.562 124.070 136.744  0.00  0.00    +0.000 A 
ATOM     12  C   UNL     1     113.022 123.889 136.939  0.00  0.00    +0.000 A 
ATOM     13  C   UNL     1     112.228 123.564 136.940  0.00  0.00    +0.000 A 
ENDROOT
BRANCH   6  15
ATOM     14  O   UNL     1     108.602 128.096 135.426  0.00  0.00    +0.000 OA
ATOM     15  C   UNL     1     110.533 126.653 135.985  0.00  0.00    +0.000 A 
ATOM     16  C   UNL     1     110.057 126.956 136.587  0.00  0.00    +0.000 A 
ATOM     17  C   UNL     1     110.366 126.830 135.198  0.00  0.00    +0.000 A 
ATOM     18  C   UNL     1     109.413 127.437 136.401  0.00  0.00    +0.000 A 
ATOM     19  C   UNL     1     109.722 127.311 135.011  0.00  0.00    +0.000 A 
ATOM     20  C   UNL     1     109.246 127.615 135.612  0.00  0.00    +0.000 A 
ENDBRANCH   6  15
BRANCH   5  21
ATOM     21  O   UNL     1     112.060 127.278 135.983  0.00  0.00    +0.000 OA
BRANCH  21  28
ATOM     22  O   UNL     1     112.287 127.703 137.329  0.00  0.00    +0.000 OA
ATOM     23  O   UNL     1     113.870 129.424 136.519  0.00  0.00    +0.000 OA
ATOM     24  C   UNL     1     113.343 128.850 136.789  0.00  0.00    +0.000 C 
ATOM     25  C   UNL     1     113.193 128.776 137.597  0.00  0.00    +0.000 C 
ATOM     26  C   UNL     1     112.966 128.352 136.252  0.00  0.00    +0.000 C 
ATOM     27  C   UNL     1     112.665 128.202 137.867  0.00  0.00    +0.000 C 
ATOM     28  C   UNL     1     112.438 127.778 136.522  0.00  0.00    +0.000 C 
ATOM     29  C   UNL     1     112.514 128.127 138.675  0.00  0.00    +0.000 C 
BRANCH  25  30
ATOM     30  O   UNL     1     113.569 129.275 138.135  0.00  0.00    +0.000 OA
BRANCH  30  32
ATOM     31  O   UNL     1     112.460 130.129 138.418  0.00  0.00    +0.000 OA
ATOM     32  C   UNL     1     113.267 130.028 138.282  0.00  0.00    +0.000 C 
ATOM     33  C   UNL     1     113.771 130.680 138.293  0.00  0.00    +0.000 C 
ENDBRANCH  30  32
ENDBRANCH  25  30
BRANCH  26  34
ATOM     34  O   UNL     1     113.116 128.426 135.444  0.00  0.00    +0.000 OA
BRANCH  34  36
ATOM     35  O   UNL     1     112.239 129.511 135.132  0.00  0.00    +0.000 OA
ATOM     36  C   UNL     1     112.975 129.144 135.063  0.00  0.00    +0.000 C 
ATOM     37  C   UNL     1     113.570 129.496 134.612  0.00  0.00    +0.000 C 
ENDBRANCH  34  36
ENDBRANCH  26  34
ENDBRANCH  21  28
ENDBRANCH   5  21
TORSDOF 7
ENDMDL
MODEL 7
REMARK VINA RESULT:      -8.7      1.866      3.747
REMARK  Name = 14825857
REMARK  7 active torsions:
REMARK  status: ('A' for Active; 'I' for Inactive)
REMARK    1  A    between atoms: O_2  and  C_14
REMARK    2  A    between atoms: O_2  and  C_20
REMARK    3  A    between atoms: O_3  and  C_15
REMARK    4  A    between atoms: O_3  and  C_21
REMARK    5  A    between atoms: O_4  and  C_17
REMARK    6  A    between atoms: O_4  and  C_19
REMARK    7  A    between atoms: C_22  and  C_28
REMARK                            x       y       z     vdW  Elec       q    Type
REMARK                         _______ _______ _______ _____ _____    ______ ____
ROOT
ATOM      1  O   UNL     1     113.244 126.061 138.937  0.00  0.00    +0.000 OA
ATOM      2  O   UNL     1     112.614 128.354 138.254  0.00  0.00    +0.000 OA
ATOM      3  O   UNL     1     113.255 128.909 139.421  0.00  0.00    +0.000 OA
ATOM      4  O   UNL     1     114.556 127.109 141.316  0.00  0.00    +0.000 OA
ATOM      5  C   UNL     1     112.608 126.946 138.013  0.00  0.00    +0.000 A 
ATOM      6  C   UNL     1     112.818 126.182 138.241  0.00  0.00    +0.000 A 
ATOM      7  C   UNL     1     112.824 127.590 138.481  0.00  0.00    +0.000 A 
ATOM      8  C   UNL     1     113.250 127.470 139.178  0.00  0.00    +0.000 A 
ATOM      9  C   UNL     1     113.460 126.705 139.406  0.00  0.00    +0.000 A 
ATOM     10  C   UNL     1     113.468 128.148 139.656  0.00  0.00    +0.000 A 
ATOM     11  C   UNL     1     113.903 126.566 140.129  0.00  0.00    +0.000 A 
ATOM     12  C   UNL     1     113.912 128.029 140.383  0.00  0.00    +0.000 A 
ATOM     13  C   UNL     1     114.131 127.233 140.620  0.00  0.00    +0.000 A 
ENDROOT
BRANCH   6  15
ATOM     14  O   UNL     1     111.953 123.604 136.371  0.00  0.00    +0.000 OA
ATOM     15  C   UNL     1     112.602 125.537 137.773  0.00  0.00    +0.000 A 
ATOM     16  C   UNL     1     111.833 125.241 137.809  0.00  0.00    +0.000 A 
ATOM     17  C   UNL     1     113.154 125.189 137.269  0.00  0.00    +0.000 A 
ATOM     18  C   UNL     1     111.616 124.596 137.342  0.00  0.00    +0.000 A 
ATOM     19  C   UNL     1     112.939 124.545 136.801  0.00  0.00    +0.000 A 
ATOM     20  C   UNL     1     112.170 124.248 136.838  0.00  0.00    +0.000 A 
ENDBRANCH   6  15
BRANCH   5  21
ATOM     21  O   UNL     1     112.182 127.066 137.317  0.00  0.00    +0.000 OA
BRANCH  21  28
ATOM     22  O   UNL     1     113.300 127.561 136.577  0.00  0.00    +0.000 OA
ATOM     23  O   UNL     1     111.784 128.996 135.246  0.00  0.00    +0.000 OA
ATOM     24  C   UNL     1     112.290 128.517 135.690  0.00  0.00    +0.000 C 
ATOM     25  C   UNL     1     113.101 128.526 135.541  0.00  0.00    +0.000 C 
ATOM     26  C   UNL     1     111.983 128.031 136.281  0.00  0.00    +0.000 C 
ATOM     27  C   UNL     1     113.606 128.048 135.984  0.00  0.00    +0.000 C 
ATOM     28  C   UNL     1     112.489 127.553 136.725  0.00  0.00    +0.000 C 
ATOM     29  C   UNL     1     114.418 128.056 135.837  0.00  0.00    +0.000 C 
BRANCH  25  30
ATOM     30  O   UNL     1     113.407 129.012 134.950  0.00  0.00    +0.000 OA
BRANCH  30  32
ATOM     31  O   UNL     1     113.449 130.234 135.689  0.00  0.00    +0.000 OA
ATOM     32  C   UNL     1     113.794 129.713 135.150  0.00  0.00    +0.000 C 
ATOM     33  C   UNL     1     114.524 129.893 134.812  0.00  0.00    +0.000 C 
ENDBRANCH  30  32
ENDBRANCH  25  30
BRANCH  26  34
ATOM     34  O   UNL     1     111.172 128.023 136.430  0.00  0.00    +0.000 OA
BRANCH  34  36
ATOM     35  O   UNL     1     110.780 127.184 135.340  0.00  0.00    +0.000 OA
ATOM     36  C   UNL     1     110.644 127.840 135.823  0.00  0.00    +0.000 C 
ATOM     37  C   UNL     1     109.979 128.312 135.698  0.00  0.00    +0.000 C 
ENDBRANCH  34  36
ENDBRANCH  26  34
ENDBRANCH  21  28
ENDBRANCH   5  21
TORSDOF 7
ENDMDL
MODEL 8
REMARK VINA RESULT:      -8.7      1.740      3.486
REMARK  Name = 14825857
REMARK  7 active torsions:
REMARK  status: ('A' for Active; 'I' for Inactive)
REMARK    1  A    between atoms: O_2  and  C_14
REMARK    2  A    between atoms: O_2  and  C_20
REMARK    3  A    between atoms: O_3  and  C_15
REMARK    4  A    between atoms: O_3  and  C_21
REMARK    5  A    between atoms: O_4  and  C_17
REMARK    6  A    between atoms: O_4  and  C_19
REMARK    7  A    between atoms: C_22  and  C_28
REMARK                            x       y       z     vdW  Elec       q    Type
REMARK                         _______ _______ _______ _____ _____    ______ ____
ROOT
ATOM      1  O   UNL     1     111.128 129.703 135.595  0.00  0.00    +0.000 OA
ATOM      2  O   UNL     1     110.174 128.104 137.225  0.00  0.00    +0.000 OA
ATOM      3  O   UNL     1     108.841 128.592 136.967  0.00  0.00    +0.000 OA
ATOM      4  O   UNL     1     108.467 130.739 135.024  0.00  0.00    +0.000 OA
ATOM      5  C   UNL     1     111.306 128.653 136.547  0.00  0.00    +0.000 A 
ATOM      6  C   UNL     1     111.624 129.185 136.004  0.00  0.00    +0.000 A 
ATOM      7  C   UNL     1     110.492 128.637 136.682  0.00  0.00    +0.000 A 
ATOM      8  C   UNL     1     109.996 129.154 136.273  0.00  0.00    +0.000 A 
ATOM      9  C   UNL     1     110.314 129.688 135.729  0.00  0.00    +0.000 A 
ATOM     10  C   UNL     1     109.151 129.128 136.422  0.00  0.00    +0.000 A 
ATOM     11  C   UNL     1     109.808 130.232 135.298  0.00  0.00    +0.000 A 
ATOM     12  C   UNL     1     108.628 129.665 135.999  0.00  0.00    +0.000 A 
ATOM     13  C   UNL     1     108.960 130.220 135.434  0.00  0.00    +0.000 A 
ENDROOT
BRANCH   6  15
ATOM     14  O   UNL     1     114.879 129.251 135.465  0.00  0.00    +0.000 OA
ATOM     15  C   UNL     1     112.437 129.201 135.869  0.00  0.00    +0.000 A 
ATOM     16  C   UNL     1     112.935 129.592 136.398  0.00  0.00    +0.000 A 
ATOM     17  C   UNL     1     112.753 128.827 135.206  0.00  0.00    +0.000 A 
ATOM     18  C   UNL     1     113.749 129.609 136.264  0.00  0.00    +0.000 A 
ATOM     19  C   UNL     1     113.567 128.843 135.070  0.00  0.00    +0.000 A 
ATOM     20  C   UNL     1     114.065 129.234 135.599  0.00  0.00    +0.000 A 
ENDBRANCH   6  15
BRANCH   5  21
ATOM     21  O   UNL     1     111.801 128.135 136.955  0.00  0.00    +0.000 OA
BRANCH  21  28
ATOM     22  O   UNL     1     111.421 126.982 136.202  0.00  0.00    +0.000 OA
ATOM     23  O   UNL     1     111.806 125.557 138.189  0.00  0.00    +0.000 OA
ATOM     24  C   UNL     1     111.677 126.032 137.526  0.00  0.00    +0.000 C 
ATOM     25  C   UNL     1     111.423 125.692 136.818  0.00  0.00    +0.000 C 
ATOM     26  C   UNL     1     111.803 126.845 137.572  0.00  0.00    +0.000 C 
ATOM     27  C   UNL     1     111.295 126.167 136.156  0.00  0.00    +0.000 C 
ATOM     28  C   UNL     1     111.675 127.320 136.910  0.00  0.00    +0.000 C 
ATOM     29  C   UNL     1     111.041 125.829 135.448  0.00  0.00    +0.000 C 
BRANCH  25  30
ATOM     30  O   UNL     1     111.297 124.879 136.773  0.00  0.00    +0.000 OA
BRANCH  30  32
ATOM     31  O   UNL     1     112.498 124.576 136.059  0.00  0.00    +0.000 OA
ATOM     32  C   UNL     1     111.929 124.370 136.621  0.00  0.00    +0.000 C 
ATOM     33  C   UNL     1     111.994 123.658 137.030  0.00  0.00    +0.000 C 
ENDBRANCH  30  32
ENDBRANCH  25  30
BRANCH  26  34
ATOM     34  O   UNL     1     112.057 127.185 138.280  0.00  0.00    +0.000 OA
BRANCH  34  36
ATOM     35  O   UNL     1     113.455 126.899 138.184  0.00  0.00    +0.000 OA
ATOM     36  C   UNL     1     112.760 126.931 138.629  0.00  0.00    +0.000 C 
ATOM     37  C   UNL     1     112.770 126.709 139.424  0.00  0.00    +0.000 C 
ENDBRANCH  34  36
ENDBRANCH  26  34
ENDBRANCH  21  28
ENDBRANCH   5  21
TORSDOF 7
ENDMDL
MODEL 9
REMARK VINA RESULT:      -8.7      1.710      4.018
REMARK  Name = 14825857
REMARK  7 active torsions:
REMARK  status: ('A' for Active; 'I' for Inactive)
REMARK    1  A    between atoms: O_2  and  C_14
REMARK    2  A    between atoms: O_2  and  C_20
REMARK    3  A    between atoms: O_3  and  C_15
REMARK    4  A    between atoms: O_3  and  C_21
REMARK    5  A    between atoms: O_4  and  C_17
REMARK    6  A    between atoms: O_4  and  C_19
REMARK    7  A    between atoms: C_22  and  C_28
REMARK                            x       y       z     vdW  Elec       q    Type
REMARK                         _______ _______ _______ _____ _____    ______ ____
ROOT
ATOM      1  O   UNL     1     112.455 125.316 138.202  0.00  0.00    +0.000 OA
ATOM      2  O   UNL     1     111.424 126.877 136.582  0.00  0.00    +0.000 OA
ATOM      3  O   UNL     1     111.122 125.789 135.683  0.00  0.00    +0.000 OA
ATOM      4  O   UNL     1     111.876 123.072 136.438  0.00  0.00    +0.000 OA
ATOM      5  C   UNL     1     112.084 126.643 137.828  0.00  0.00    +0.000 A 
ATOM      6  C   UNL     1     112.427 126.124 138.368  0.00  0.00    +0.000 A 
ATOM      7  C   UNL     1     111.768 126.357 137.122  0.00  0.00    +0.000 A 
ATOM      8  C   UNL     1     111.795 125.549 136.956  0.00  0.00    +0.000 A 
ATOM      9  C   UNL     1     112.139 125.028 137.497  0.00  0.00    +0.000 A 
ATOM     10  C   UNL     1     111.463 125.262 136.218  0.00  0.00    +0.000 A 
ATOM     11  C   UNL     1     112.174 124.185 137.335  0.00  0.00    +0.000 A 
ATOM     12  C   UNL     1     111.489 124.421 136.039  0.00  0.00    +0.000 A 
ATOM     13  C   UNL     1     111.847 123.880 136.602  0.00  0.00    +0.000 A 
ENDROOT
BRANCH   6  15
ATOM     14  O   UNL     1     113.689 127.270 141.194  0.00  0.00    +0.000 OA
ATOM     15  C   UNL     1     112.743 126.410 139.074  0.00  0.00    +0.000 A 
ATOM     16  C   UNL     1     112.245 126.579 139.710  0.00  0.00    +0.000 A 
ATOM     17  C   UNL     1     113.556 126.528 139.145  0.00  0.00    +0.000 A 
ATOM     18  C   UNL     1     112.560 126.866 140.417  0.00  0.00    +0.000 A 
ATOM     19  C   UNL     1     113.872 126.815 139.852  0.00  0.00    +0.000 A 
ATOM     20  C   UNL     1     113.374 126.984 140.487  0.00  0.00    +0.000 A 
ENDBRANCH   6  15
BRANCH   5  21
ATOM     21  O   UNL     1     112.056 127.451 137.994  0.00  0.00    +0.000 OA
BRANCH  21  28
ATOM     22  O   UNL     1     113.088 127.791 137.066  0.00  0.00    +0.000 OA
ATOM     23  O   UNL     1     112.050 130.012 136.725  0.00  0.00    +0.000 OA
ATOM     24  C   UNL     1     112.396 129.272 136.839  0.00  0.00    +0.000 C 
ATOM     25  C   UNL     1     113.085 129.072 136.431  0.00  0.00    +0.000 C 
ATOM     26  C   UNL     1     112.053 128.732 137.359  0.00  0.00    +0.000 C 
ATOM     27  C   UNL     1     113.431 128.332 136.545  0.00  0.00    +0.000 C 
ATOM     28  C   UNL     1     112.399 127.992 137.473  0.00  0.00    +0.000 C 
ATOM     29  C   UNL     1     114.120 128.131 136.138  0.00  0.00    +0.000 C 
BRANCH  25  30
ATOM     30  O   UNL     1     113.428 129.612 135.911  0.00  0.00    +0.000 OA
BRANCH  30  32
ATOM     31  O   UNL     1     112.598 129.410 134.765  0.00  0.00    +0.000 OA
ATOM     32  C   UNL     1     113.347 129.508 135.096  0.00  0.00    +0.000 C 
ATOM     33  C   UNL     1     114.015 129.504 134.612  0.00  0.00    +0.000 C 
ENDBRANCH  30  32
ENDBRANCH  25  30
BRANCH  26  34
ATOM     34  O   UNL     1     111.364 128.932 137.767  0.00  0.00    +0.000 OA
BRANCH  34  36
ATOM     35  O   UNL     1     111.953 129.752 138.778  0.00  0.00    +0.000 OA
ATOM     36  C   UNL     1     111.346 129.609 138.238  0.00  0.00    +0.000 C 
ATOM     37  C   UNL     1     110.720 130.142 138.170  0.00  0.00    +0.000 C 
ENDBRANCH  34  36
ENDBRANCH  26  34
ENDBRANCH  21  28
ENDBRANCH   5  21
TORSDOF 7
ENDMDL
MODEL 10
REMARK VINA RESULT:      -8.6      1.460      3.828
REMARK  Name = 14825857
REMARK  7 active torsions:
REMARK  status: ('A' for Active; 'I' for Inactive)
REMARK    1  A    between atoms: O_2  and  C_14
REMARK    2  A    between atoms: O_2  and  C_20
REMARK    3  A    between atoms: O_3  and  C_15
REMARK    4  A    between atoms: O_3  and  C_21
REMARK    5  A    between atoms: O_4  and  C_17
REMARK    6  A    between atoms: O_4  and  C_19
REMARK    7  A    between atoms: C_22  and  C_28
REMARK                            x       y       z     vdW  Elec       q    Type
REMARK                         _______ _______ _______ _____ _____    ______ ____
ROOT
ATOM      1  O   UNL     1     112.530 125.445 136.479  0.00  0.00    +0.000 OA
ATOM      2  O   UNL     1     112.745 127.100 138.307  0.00  0.00    +0.000 OA
ATOM      3  O   UNL     1     114.009 126.533 138.710  0.00  0.00    +0.000 OA
ATOM      4  O   UNL     1     115.075 124.248 137.236  0.00  0.00    +0.000 OA
ATOM      5  C   UNL     1     112.013 126.562 137.203  0.00  0.00    +0.000 A 
ATOM      6  C   UNL     1     111.941 126.011 136.595  0.00  0.00    +0.000 A 
ATOM      7  C   UNL     1     112.673 126.548 137.698  0.00  0.00    +0.000 A 
ATOM      8  C   UNL     1     113.262 125.982 137.583  0.00  0.00    +0.000 A 
ATOM      9  C   UNL     1     113.191 125.430 136.973  0.00  0.00    +0.000 A 
ATOM     10  C   UNL     1     113.945 125.977 138.103  0.00  0.00    +0.000 A 
ATOM     11  C   UNL     1     113.797 124.836 136.843  0.00  0.00    +0.000 A 
ATOM     12  C   UNL     1     114.563 125.390 137.988  0.00  0.00    +0.000 A 
ATOM     13  C   UNL     1     114.487 124.816 137.354  0.00  0.00    +0.000 A 
ENDROOT
BRANCH   6  15
ATOM     14  O   UNL     1     109.301 126.068 134.616  0.00  0.00    +0.000 OA
ATOM     15  C   UNL     1     111.280 126.025 136.100  0.00  0.00    +0.000 A 
ATOM     16  C   UNL     1     111.334 126.365 135.350  0.00  0.00    +0.000 A 
ATOM     17  C   UNL     1     110.567 125.700 136.355  0.00  0.00    +0.000 A 
ATOM     18  C   UNL     1     110.675 126.379 134.855  0.00  0.00    +0.000 A 
ATOM     19  C   UNL     1     109.906 125.714 135.861  0.00  0.00    +0.000 A 
ATOM     20  C   UNL     1     109.960 126.053 135.111  0.00  0.00    +0.000 A 
ENDBRANCH   6  15
BRANCH   5  21
ATOM     21  O   UNL     1     111.424 127.128 137.319  0.00  0.00    +0.000 OA
BRANCH  21  28
ATOM     22  O   UNL     1     112.176 128.206 136.757  0.00  0.00    +0.000 OA
ATOM     23  O   UNL     1     111.052 129.791 138.289  0.00  0.00    +0.000 OA
ATOM     24  C   UNL     1     111.427 129.262 137.779  0.00  0.00    +0.000 C 
ATOM     25  C   UNL     1     111.990 129.537 137.242  0.00  0.00    +0.000 C 
ATOM     26  C   UNL     1     111.238 128.460 137.804  0.00  0.00    +0.000 C 
ATOM     27  C   UNL     1     112.365 129.009 136.731  0.00  0.00    +0.000 C 
ATOM     28  C   UNL     1     111.613 127.932 137.293  0.00  0.00    +0.000 C 
ATOM     29  C   UNL     1     112.929 129.283 136.195  0.00  0.00    +0.000 C 
BRANCH  25  30
ATOM     30  O   UNL     1     112.179 130.339 137.217  0.00  0.00    +0.000 OA
BRANCH  30  32
ATOM     31  O   UNL     1     112.956 130.453 138.410  0.00  0.00    +0.000 OA
ATOM     32  C   UNL     1     112.849 130.619 137.609  0.00  0.00    +0.000 C 
ATOM     33  C   UNL     1     113.410 131.064 137.202  0.00  0.00    +0.000 C 
ENDBRANCH  30  32
ENDBRANCH  25  30
BRANCH  26  34
ATOM     34  O   UNL     1     110.674 128.185 138.340  0.00  0.00    +0.000 OA
BRANCH  34  36
ATOM     35  O   UNL     1     109.460 128.532 137.670  0.00  0.00    +0.000 OA
ATOM     36  C   UNL     1     109.921 128.521 138.355  0.00  0.00    +0.000 C 
ATOM     37  C   UNL     1     109.627 128.846 139.054  0.00  0.00    +0.000 C 
ENDBRANCH  34  36
ENDBRANCH  26  34
ENDBRANCH  21  28
ENDBRANCH   5  21
TORSDOF 7
ENDMDL
