MODEL 1
REMARK VINA RESULT:     -10.2      0.000      0.000
REMARK  Name = 44258217
REMARK  6 active torsions:
REMARK  status: ('A' for Active; 'I' for Inactive)
REMARK    1  A    between atoms: O_16  and  C_43
REMARK    2  A    between atoms: C_17  and  C_28
REMARK    3  A    between atoms: C_18  and  C_27
REMARK    4  A    between atoms: C_25  and  C_33
REMARK    5  A    between atoms: C_26  and  C_34
REMARK    6  A    between atoms: C_32  and  C_38
REMARK                            x       y       z     vdW  Elec       q    Type
REMARK                         _______ _______ _______ _____ _____    ______ ____
ROOT
ATOM      1  O   UNL     1     110.755 127.492 137.309  0.00  0.00    +0.000 OA
ATOM      2  O   UNL     1     111.742 125.378 138.136  0.00  0.00    +0.000 OA
ATOM      3  O   UNL     1     109.781 126.127 134.928  0.00  0.00    +0.000 OA
ATOM      4  O   UNL     1     111.275 124.670 136.970  0.00  0.00    +0.000 OA
ATOM      5  C   UNL     1     110.262 126.827 136.116  0.00  0.00    +0.000 A 
ATOM      6  C   UNL     1     111.486 126.773 138.306  0.00  0.00    +0.000 A 
ATOM      7  C   UNL     1     110.683 126.800 136.865  0.00  0.00    +0.000 A 
ATOM      8  C   UNL     1     111.012 126.096 137.141  0.00  0.00    +0.000 A 
ATOM      9  C   UNL     1     111.413 126.082 137.861  0.00  0.00    +0.000 A 
ATOM     10  C   UNL     1     111.157 127.478 138.031  0.00  0.00    +0.000 A 
ATOM     11  C   UNL     1     110.183 126.111 135.648  0.00  0.00    +0.000 A 
ATOM     12  C   UNL     1     110.943 125.369 136.686  0.00  0.00    +0.000 A 
ATOM     13  C   UNL     1     110.526 125.377 135.935  0.00  0.00    +0.000 A 
ENDROOT
BRANCH   6  18
ATOM     14  O   UNL     1     111.465 126.703 139.733  0.00  0.00    +0.000 OA
ATOM     15  O   UNL     1     113.133 126.861 138.334  0.00  0.00    +0.000 OA
ATOM     16  O   UNL     1     113.936 126.835 139.775  0.00  0.00    +0.000 OA
ATOM     17  O   UNL     1     113.092 126.720 141.188  0.00  0.00    +0.000 OA
ATOM     18  C   UNL     1     111.887 126.760 139.026  0.00  0.00    +0.000 C 
ATOM     19  C   UNL     1     112.710 126.804 139.040  0.00  0.00    +0.000 C 
ATOM     20  C   UNL     1     113.113 126.791 139.761  0.00  0.00    +0.000 C 
ATOM     21  C   UNL     1     112.690 126.733 140.467  0.00  0.00    +0.000 C 
ATOM     22  C   UNL     1     111.866 126.689 140.453  0.00  0.00    +0.000 C 
BRANCH  22  24
ATOM     23  O   UNL     1     110.962 125.979 141.301  0.00  0.00    +0.000 OA
ATOM     24  C   UNL     1     111.445 126.632 141.160  0.00  0.00    +0.000 C 
ENDBRANCH  22  24
ENDBRANCH   6  18
BRANCH   5  29
ATOM     25  O   UNL     1     110.407 128.081 135.446  0.00  0.00    +0.000 OA
ATOM     26  O   UNL     1     108.668 127.156 136.385  0.00  0.00    +0.000 OA
ATOM     27  O   UNL     1     108.016 128.573 135.851  0.00  0.00    +0.000 OA
ATOM     28  O   UNL     1     108.957 129.664 135.046  0.00  0.00    +0.000 OA
ATOM     29  C   UNL     1     109.936 127.536 135.848  0.00  0.00    +0.000 C 
ATOM     30  C   UNL     1     109.139 127.701 135.983  0.00  0.00    +0.000 C 
ATOM     31  C   UNL     1     108.813 128.410 135.715  0.00  0.00    +0.000 C 
ATOM     32  C   UNL     1     109.284 128.955 135.314  0.00  0.00    +0.000 C 
ATOM     33  C   UNL     1     110.081 128.790 135.179  0.00  0.00    +0.000 C 
BRANCH  33  35
ATOM     34  O   UNL     1     111.365 129.208 134.710  0.00  0.00    +0.000 OA
ATOM     35  C   UNL     1     110.552 129.335 134.777  0.00  0.00    +0.000 C 
ENDBRANCH  33  35
ENDBRANCH   5  29
BRANCH  10  37
ATOM     36  O   UNL     1     112.537 129.910 138.620  0.00  0.00    +0.000 OA
ATOM     37  C   UNL     1     111.229 128.169 138.475  0.00  0.00    +0.000 A 
ATOM     38  C   UNL     1     111.847 128.693 138.325  0.00  0.00    +0.000 A 
ATOM     39  C   UNL     1     110.681 128.335 139.070  0.00  0.00    +0.000 A 
ATOM     40  C   UNL     1     111.918 129.385 138.770  0.00  0.00    +0.000 A 
ATOM     41  C   UNL     1     110.753 129.026 139.514  0.00  0.00    +0.000 A 
ATOM     42  C   UNL     1     111.371 129.551 139.365  0.00  0.00    +0.000 A 
BRANCH  42  43
ATOM     43  O   UNL     1     111.443 130.242 139.810  0.00  0.00    +0.000 OA
ATOM     44  C   UNL     1     110.998 130.337 140.498  0.00  0.00    +0.000 C 
ENDBRANCH  42  43
ENDBRANCH  10  37
TORSDOF 6
ENDMDL
MODEL 2
REMARK VINA RESULT:     -10.2      1.930      4.386
REMARK  Name = 44258217
REMARK  6 active torsions:
REMARK  status: ('A' for Active; 'I' for Inactive)
REMARK    1  A    between atoms: O_16  and  C_43
REMARK    2  A    between atoms: C_17  and  C_28
REMARK    3  A    between atoms: C_18  and  C_27
REMARK    4  A    between atoms: C_25  and  C_33
REMARK    5  A    between atoms: C_26  and  C_34
REMARK    6  A    between atoms: C_32  and  C_38
REMARK                            x       y       z     vdW  Elec       q    Type
REMARK                         _______ _______ _______ _____ _____    ______ ____
ROOT
ATOM      1  O   UNL     1     112.133 127.283 137.490  0.00  0.00    +0.000 OA
ATOM      2  O   UNL     1     111.279 128.935 139.123  0.00  0.00    +0.000 OA
ATOM      3  O   UNL     1     111.049 125.108 139.094  0.00  0.00    +0.000 OA
ATOM      4  O   UNL     1     110.729 127.883 139.943  0.00  0.00    +0.000 OA
ATOM      5  C   UNL     1     111.599 126.186 138.277  0.00  0.00    +0.000 A 
ATOM      6  C   UNL     1     111.973 128.640 137.910  0.00  0.00    +0.000 A 
ATOM      7  C   UNL     1     111.723 127.028 138.159  0.00  0.00    +0.000 A 
ATOM      8  C   UNL     1     111.438 127.579 138.703  0.00  0.00    +0.000 A 
ATOM      9  C   UNL     1     111.563 128.384 138.579  0.00  0.00    +0.000 A 
ATOM     10  C   UNL     1     112.258 128.090 137.365  0.00  0.00    +0.000 A 
ATOM     11  C   UNL     1     111.173 125.914 138.972  0.00  0.00    +0.000 A 
ATOM     12  C   UNL     1     111.010 127.325 139.404  0.00  0.00    +0.000 A 
ATOM     13  C   UNL     1     110.876 126.487 139.539  0.00  0.00    +0.000 A 
ENDROOT
BRANCH   6  18
ATOM     14  O   UNL     1     112.819 129.789 137.994  0.00  0.00    +0.000 OA
ATOM     15  O   UNL     1     110.782 129.566 137.242  0.00  0.00    +0.000 OA
ATOM     16  O   UNL     1     111.032 131.178 136.993  0.00  0.00    +0.000 OA
ATOM     17  O   UNL     1     112.474 131.864 137.411  0.00  0.00    +0.000 OA
ATOM     18  C   UNL     1     112.099 129.445 137.785  0.00  0.00    +0.000 C 
ATOM     19  C   UNL     1     111.503 129.908 137.452  0.00  0.00    +0.000 C 
ATOM     20  C   UNL     1     111.628 130.715 137.327  0.00  0.00    +0.000 C 
ATOM     21  C   UNL     1     112.349 131.057 137.536  0.00  0.00    +0.000 C 
ATOM     22  C   UNL     1     112.944 130.594 137.870  0.00  0.00    +0.000 C 
BRANCH  22  24
ATOM     23  O   UNL     1     113.921 130.915 138.862  0.00  0.00    +0.000 OA
ATOM     24  C   UNL     1     113.665 130.938 138.079  0.00  0.00    +0.000 C 
ENDBRANCH  22  24
ENDBRANCH   6  18
BRANCH   5  29
ATOM     25  O   UNL     1     112.674 125.397 137.763  0.00  0.00    +0.000 OA
ATOM     26  O   UNL     1     110.602 125.591 137.104  0.00  0.00    +0.000 OA
ATOM     27  O   UNL     1     111.178 124.506 136.004  0.00  0.00    +0.000 OA
ATOM     28  O   UNL     1     112.752 124.013 136.076  0.00  0.00    +0.000 OA
ATOM     29  C   UNL     1     111.888 125.643 137.727  0.00  0.00    +0.000 C 
ATOM     30  C   UNL     1     111.389 125.346 137.140  0.00  0.00    +0.000 C 
ATOM     31  C   UNL     1     111.677 124.802 136.590  0.00  0.00    +0.000 C 
ATOM     32  C   UNL     1     112.464 124.557 136.627  0.00  0.00    +0.000 C 
ATOM     33  C   UNL     1     112.963 124.854 137.213  0.00  0.00    +0.000 C 
BRANCH  33  35
ATOM     34  O   UNL     1     114.282 125.004 137.739  0.00  0.00    +0.000 OA
ATOM     35  C   UNL     1     113.749 124.608 137.250  0.00  0.00    +0.000 C 
ENDBRANCH  33  35
ENDBRANCH   5  29
BRANCH  10  37
ATOM     36  O   UNL     1     112.272 128.857 134.612  0.00  0.00    +0.000 OA
ATOM     37  C   UNL     1     112.668 128.344 136.696  0.00  0.00    +0.000 A 
ATOM     38  C   UNL     1     112.265 128.473 135.989  0.00  0.00    +0.000 A 
ATOM     39  C   UNL     1     113.483 128.471 136.736  0.00  0.00    +0.000 A 
ATOM     40  C   UNL     1     112.676 128.728 135.320  0.00  0.00    +0.000 A 
ATOM     41  C   UNL     1     113.893 128.725 136.067  0.00  0.00    +0.000 A 
ATOM     42  C   UNL     1     113.490 128.854 135.360  0.00  0.00    +0.000 A 
BRANCH  42  43
ATOM     43  O   UNL     1     113.901 129.109 134.691  0.00  0.00    +0.000 OA
ATOM     44  C   UNL     1     114.654 129.437 134.770  0.00  0.00    +0.000 C 
ENDBRANCH  42  43
ENDBRANCH  10  37
TORSDOF 6
ENDMDL
MODEL 3
REMARK VINA RESULT:     -10.2      2.190      5.096
REMARK  Name = 44258217
REMARK  6 active torsions:
REMARK  status: ('A' for Active; 'I' for Inactive)
REMARK    1  A    between atoms: O_16  and  C_43
REMARK    2  A    between atoms: C_17  and  C_28
REMARK    3  A    between atoms: C_18  and  C_27
REMARK    4  A    between atoms: C_25  and  C_33
REMARK    5  A    between atoms: C_26  and  C_34
REMARK    6  A    between atoms: C_32  and  C_38
REMARK                            x       y       z     vdW  Elec       q    Type
REMARK                         _______ _______ _______ _____ _____    ______ ____
ROOT
ATOM      1  O   UNL     1     112.615 126.683 139.150  0.00  0.00    +0.000 OA
ATOM      2  O   UNL     1     110.527 125.374 138.924  0.00  0.00    +0.000 OA
ATOM      3  O   UNL     1     111.764 127.623 141.772  0.00  0.00    +0.000 OA
ATOM      4  O   UNL     1     110.073 125.819 140.218  0.00  0.00    +0.000 OA
ATOM      5  C   UNL     1     112.206 127.162 140.459  0.00  0.00    +0.000 A 
ATOM      6  C   UNL     1     111.783 125.800 138.393  0.00  0.00    +0.000 A 
ATOM      7  C   UNL     1     112.054 126.693 139.755  0.00  0.00    +0.000 A 
ATOM      8  C   UNL     1     111.358 126.256 139.679  0.00  0.00    +0.000 A 
ATOM      9  C   UNL     1     111.223 125.810 138.999  0.00  0.00    +0.000 A 
ATOM     10  C   UNL     1     112.479 126.237 138.469  0.00  0.00    +0.000 A 
ATOM     11  C   UNL     1     111.626 127.176 141.092  0.00  0.00    +0.000 A 
ATOM     12  C   UNL     1     110.766 126.258 140.303  0.00  0.00    +0.000 A 
ATOM     13  C   UNL     1     110.901 126.721 141.014  0.00  0.00    +0.000 A 
ENDROOT
BRANCH   6  18
ATOM     14  O   UNL     1     111.980 124.602 137.639  0.00  0.00    +0.000 OA
ATOM     15  O   UNL     1     110.848 126.411 137.179  0.00  0.00    +0.000 OA
ATOM     16  O   UNL     1     110.578 125.519 135.817  0.00  0.00    +0.000 OA
ATOM     17  O   UNL     1     111.242 124.016 135.671  0.00  0.00    +0.000 OA
ATOM     18  C   UNL     1     111.648 125.354 137.713  0.00  0.00    +0.000 C 
ATOM     19  C   UNL     1     111.181 125.660 137.106  0.00  0.00    +0.000 C 
ATOM     20  C   UNL     1     111.045 125.214 136.425  0.00  0.00    +0.000 C 
ATOM     21  C   UNL     1     111.377 124.462 136.352  0.00  0.00    +0.000 C 
ATOM     22  C   UNL     1     111.845 124.157 136.959  0.00  0.00    +0.000 C 
BRANCH  22  24
ATOM     23  O   UNL     1     111.952 122.802 137.401  0.00  0.00    +0.000 OA
ATOM     24  C   UNL     1     112.176 123.405 136.885  0.00  0.00    +0.000 C 
ENDBRANCH  22  24
ENDBRANCH   6  18
BRANCH   5  29
ATOM     25  O   UNL     1     112.948 128.358 140.217  0.00  0.00    +0.000 OA
ATOM     26  O   UNL     1     113.518 126.500 141.209  0.00  0.00    +0.000 OA
ATOM     27  O   UNL     1     114.916 127.366 141.343  0.00  0.00    +0.000 OA
ATOM     28  O   UNL     1     115.003 128.893 140.725  0.00  0.00    +0.000 OA
ATOM     29  C   UNL     1     112.905 127.595 140.525  0.00  0.00    +0.000 C 
ATOM     30  C   UNL     1     113.561 127.264 140.901  0.00  0.00    +0.000 C 
ATOM     31  C   UNL     1     114.260 127.697 140.967  0.00  0.00    +0.000 C 
ATOM     32  C   UNL     1     114.303 128.461 140.659  0.00  0.00    +0.000 C 
ATOM     33  C   UNL     1     113.647 128.792 140.283  0.00  0.00    +0.000 C 
BRANCH  33  35
ATOM     34  O   UNL     1     113.012 130.024 139.938  0.00  0.00    +0.000 OA
ATOM     35  C   UNL     1     113.690 129.555 139.974  0.00  0.00    +0.000 C 
ENDBRANCH  33  35
ENDBRANCH   5  29
BRANCH  10  37
ATOM     36  O   UNL     1     113.605 127.408 136.118  0.00  0.00    +0.000 OA
ATOM     37  C   UNL     1     113.040 126.227 137.864  0.00  0.00    +0.000 A 
ATOM     38  C   UNL     1     113.042 126.822 137.294  0.00  0.00    +0.000 A 
ATOM     39  C   UNL     1     113.600 125.621 137.831  0.00  0.00    +0.000 A 
ATOM     40  C   UNL     1     113.603 126.812 136.689  0.00  0.00    +0.000 A 
ATOM     41  C   UNL     1     114.161 125.612 137.226  0.00  0.00    +0.000 A 
ATOM     42  C   UNL     1     114.163 126.207 136.656  0.00  0.00    +0.000 A 
BRANCH  42  43
ATOM     43  O   UNL     1     114.724 126.197 136.051  0.00  0.00    +0.000 OA
ATOM     44  C   UNL     1     115.189 125.526 135.931  0.00  0.00    +0.000 C 
ENDBRANCH  42  43
ENDBRANCH  10  37
TORSDOF 6
ENDMDL
MODEL 4
REMARK VINA RESULT:     -10.2      1.346      3.767
REMARK  Name = 44258217
REMARK  6 active torsions:
REMARK  status: ('A' for Active; 'I' for Inactive)
REMARK    1  A    between atoms: O_16  and  C_43
REMARK    2  A    between atoms: C_17  and  C_28
REMARK    3  A    between atoms: C_18  and  C_27
REMARK    4  A    between atoms: C_25  and  C_33
REMARK    5  A    between atoms: C_26  and  C_34
REMARK    6  A    between atoms: C_32  and  C_38
REMARK                            x       y       z     vdW  Elec       q    Type
REMARK                         _______ _______ _______ _____ _____    ______ ____
ROOT
ATOM      1  O   UNL     1     112.113 126.816 137.657  0.00  0.00    +0.000 OA
ATOM      2  O   UNL     1     110.966 128.973 137.258  0.00  0.00    +0.000 OA
ATOM      3  O   UNL     1     111.193 125.828 135.077  0.00  0.00    +0.000 OA
ATOM      4  O   UNL     1     110.492 128.517 135.974  0.00  0.00    +0.000 OA
ATOM      5  C   UNL     1     111.663 126.307 136.373  0.00  0.00    +0.000 A 
ATOM      6  C   UNL     1     111.767 128.133 138.092  0.00  0.00    +0.000 A 
ATOM      7  C   UNL     1     111.694 126.938 136.957  0.00  0.00    +0.000 A 
ATOM      8  C   UNL     1     111.311 127.656 136.824  0.00  0.00    +0.000 A 
ATOM      9  C   UNL     1     111.348 128.254 137.391  0.00  0.00    +0.000 A 
ATOM     10  C   UNL     1     112.150 127.414 138.225  0.00  0.00    +0.000 A 
ATOM     11  C   UNL     1     111.228 126.427 135.642  0.00  0.00    +0.000 A 
ATOM     12  C   UNL     1     110.872 127.794 136.098  0.00  0.00    +0.000 A 
ATOM     13  C   UNL     1     110.830 127.176 135.504  0.00  0.00    +0.000 A 
ENDROOT
BRANCH   6  18
ATOM     14  O   UNL     1     112.461 129.229 138.692  0.00  0.00    +0.000 OA
ATOM     15  O   UNL     1     110.526 128.333 139.160  0.00  0.00    +0.000 OA
ATOM     16  O   UNL     1     110.600 129.529 140.295  0.00  0.00    +0.000 OA
ATOM     17  O   UNL     1     111.914 130.524 140.362  0.00  0.00    +0.000 OA
ATOM     18  C   UNL     1     111.804 128.731 138.659  0.00  0.00    +0.000 C 
ATOM     19  C   UNL     1     111.184 128.831 139.193  0.00  0.00    +0.000 C 
ATOM     20  C   UNL     1     111.220 129.429 139.761  0.00  0.00    +0.000 C 
ATOM     21  C   UNL     1     111.878 129.926 139.794  0.00  0.00    +0.000 C 
ATOM     22  C   UNL     1     112.498 129.826 139.259  0.00  0.00    +0.000 C 
BRANCH  22  24
ATOM     23  O   UNL     1     113.318 130.836 138.667  0.00  0.00    +0.000 OA
ATOM     24  C   UNL     1     113.155 130.324 139.293  0.00  0.00    +0.000 C 
ENDBRANCH  22  24
ENDBRANCH   6  18
BRANCH   5  29
ATOM     25  O   UNL     1     112.853 125.517 136.352  0.00  0.00    +0.000 OA
ATOM     26  O   UNL     1     110.823 125.024 136.983  0.00  0.00    +0.000 OA
ATOM     27  O   UNL     1     111.593 123.594 137.267  0.00  0.00    +0.000 OA
ATOM     28  O   UNL     1     113.203 123.444 136.941  0.00  0.00    +0.000 OA
ATOM     29  C   UNL     1     112.048 125.591 136.515  0.00  0.00    +0.000 C 
ATOM     30  C   UNL     1     111.628 124.950 136.820  0.00  0.00    +0.000 C 
ATOM     31  C   UNL     1     112.014 124.234 136.962  0.00  0.00    +0.000 C 
ATOM     32  C   UNL     1     112.819 124.160 136.799  0.00  0.00    +0.000 C 
ATOM     33  C   UNL     1     113.239 124.802 136.494  0.00  0.00    +0.000 C 
BRANCH  33  35
ATOM     34  O   UNL     1     114.537 125.387 136.382  0.00  0.00    +0.000 OA
ATOM     35  C   UNL     1     114.044 124.727 136.331  0.00  0.00    +0.000 C 
ENDBRANCH  33  35
ENDBRANCH   5  29
BRANCH  10  37
ATOM     36  O   UNL     1     112.269 126.406 140.896  0.00  0.00    +0.000 OA
ATOM     37  C   UNL     1     112.569 127.293 138.924  0.00  0.00    +0.000 A 
ATOM     38  C   UNL     1     112.209 126.911 139.560  0.00  0.00    +0.000 A 
ATOM     39  C   UNL     1     113.349 127.555 138.988  0.00  0.00    +0.000 A 
ATOM     40  C   UNL     1     112.629 126.789 140.260  0.00  0.00    +0.000 A 
ATOM     41  C   UNL     1     113.769 127.433 139.688  0.00  0.00    +0.000 A 
ATOM     42  C   UNL     1     113.409 127.051 140.323  0.00  0.00    +0.000 A 
BRANCH  42  43
ATOM     43  O   UNL     1     113.829 126.929 141.024  0.00  0.00    +0.000 OA
ATOM     44  C   UNL     1     114.616 127.171 141.079  0.00  0.00    +0.000 C 
ENDBRANCH  42  43
ENDBRANCH  10  37
TORSDOF 6
ENDMDL
MODEL 5
REMARK VINA RESULT:     -10.1      2.202      4.789
REMARK  Name = 44258217
REMARK  6 active torsions:
REMARK  status: ('A' for Active; 'I' for Inactive)
REMARK    1  A    between atoms: O_16  and  C_43
REMARK    2  A    between atoms: C_17  and  C_28
REMARK    3  A    between atoms: C_18  and  C_27
REMARK    4  A    between atoms: C_25  and  C_33
REMARK    5  A    between atoms: C_26  and  C_34
REMARK    6  A    between atoms: C_32  and  C_38
REMARK                            x       y       z     vdW  Elec       q    Type
REMARK                         _______ _______ _______ _____ _____    ______ ____
ROOT
ATOM      1  O   UNL     1     111.438 126.310 139.267  0.00  0.00    +0.000 OA
ATOM      2  O   UNL     1     113.863 126.759 139.472  0.00  0.00    +0.000 OA
ATOM      3  O   UNL     1     111.041 127.087 142.045  0.00  0.00    +0.000 OA
ATOM      4  O   UNL     1     113.704 127.150 140.851  0.00  0.00    +0.000 OA
ATOM      5  C   UNL     1     111.222 126.694 140.651  0.00  0.00    +0.000 A 
ATOM      6  C   UNL     1     112.744 126.343 138.687  0.00  0.00    +0.000 A 
ATOM      7  C   UNL     1     111.750 126.577 139.983  0.00  0.00    +0.000 A 
ATOM      8  C   UNL     1     112.558 126.726 140.051  0.00  0.00    +0.000 A 
ATOM      9  C   UNL     1     113.055 126.609 139.404  0.00  0.00    +0.000 A 
ATOM     10  C   UNL     1     111.936 126.194 138.619  0.00  0.00    +0.000 A 
ATOM     11  C   UNL     1     111.540 126.971 141.399  0.00  0.00    +0.000 A 
ATOM     12  C   UNL     1     112.895 127.004 140.792  0.00  0.00    +0.000 A 
ATOM     13  C   UNL     1     112.382 127.127 141.470  0.00  0.00    +0.000 A 
ENDROOT
BRANCH   6  18
ATOM     14  O   UNL     1     113.562 125.480 137.894  0.00  0.00    +0.000 OA
ATOM     15  O   UNL     1     113.096 127.602 137.680  0.00  0.00    +0.000 OA
ATOM     16  O   UNL     1     114.090 127.369 136.384  0.00  0.00    +0.000 OA
ATOM     17  O   UNL     1     114.732 125.876 136.094  0.00  0.00    +0.000 OA
ATOM     18  C   UNL     1     113.241 126.226 138.039  0.00  0.00    +0.000 C 
ATOM     19  C   UNL     1     113.417 126.856 137.536  0.00  0.00    +0.000 C 
ATOM     20  C   UNL     1     113.914 126.739 136.887  0.00  0.00    +0.000 C 
ATOM     21  C   UNL     1     114.235 125.993 136.743  0.00  0.00    +0.000 C 
ATOM     22  C   UNL     1     114.059 125.363 137.247  0.00  0.00    +0.000 C 
BRANCH  22  24
ATOM     23  O   UNL     1     114.858 124.256 137.667  0.00  0.00    +0.000 OA
ATOM     24  C   UNL     1     114.380 124.617 137.101  0.00  0.00    +0.000 C 
ENDBRANCH  22  24
ENDBRANCH   6  18
BRANCH   5  29
ATOM     25  O   UNL     1     110.131 125.771 140.643  0.00  0.00    +0.000 OA
ATOM     26  O   UNL     1     110.174 127.934 140.355  0.00  0.00    +0.000 OA
ATOM     27  O   UNL     1     108.560 127.631 140.200  0.00  0.00    +0.000 OA
ATOM     28  O   UNL     1     107.993 126.088 140.340  0.00  0.00    +0.000 OA
ATOM     29  C   UNL     1     110.415 126.542 140.573  0.00  0.00    +0.000 C 
ATOM     30  C   UNL     1     109.890 127.163 140.425  0.00  0.00    +0.000 C 
ATOM     31  C   UNL     1     109.083 127.010 140.348  0.00  0.00    +0.000 C 
ATOM     32  C   UNL     1     108.800 126.239 140.418  0.00  0.00    +0.000 C 
ATOM     33  C   UNL     1     109.324 125.619 140.565  0.00  0.00    +0.000 C 
BRANCH  33  35
ATOM     34  O   UNL     1     109.345 124.348 141.218  0.00  0.00    +0.000 OA
ATOM     35  C   UNL     1     109.041 124.847 140.635  0.00  0.00    +0.000 C 
ENDBRANCH  33  35
ENDBRANCH   5  29
BRANCH  10  37
ATOM     36  O   UNL     1     111.212 124.044 136.879  0.00  0.00    +0.000 OA
ATOM     37  C   UNL     1     111.624 125.927 137.903  0.00  0.00    +0.000 A 
ATOM     38  C   UNL     1     111.574 125.119 137.750  0.00  0.00    +0.000 A 
ATOM     39  C   UNL     1     111.361 126.471 137.340  0.00  0.00    +0.000 A 
ATOM     40  C   UNL     1     111.262 124.853 137.033  0.00  0.00    +0.000 A 
ATOM     41  C   UNL     1     111.049 126.205 136.624  0.00  0.00    +0.000 A 
ATOM     42  C   UNL     1     111.000 125.397 136.471  0.00  0.00    +0.000 A 
BRANCH  42  43
ATOM     43  O   UNL     1     110.687 125.131 135.754  0.00  0.00    +0.000 OA
ATOM     44  C   UNL     1     110.473 125.675 135.172  0.00  0.00    +0.000 C 
ENDBRANCH  42  43
ENDBRANCH  10  37
TORSDOF 6
ENDMDL
MODEL 6
REMARK VINA RESULT:     -10.1      2.065      4.117
REMARK  Name = 44258217
REMARK  6 active torsions:
REMARK  status: ('A' for Active; 'I' for Inactive)
REMARK    1  A    between atoms: O_16  and  C_43
REMARK    2  A    between atoms: C_17  and  C_28
REMARK    3  A    between atoms: C_18  and  C_27
REMARK    4  A    between atoms: C_25  and  C_33
REMARK    5  A    between atoms: C_26  and  C_34
REMARK    6  A    between atoms: C_32  and  C_38
REMARK                            x       y       z     vdW  Elec       q    Type
REMARK                         _______ _______ _______ _____ _____    ______ ____
ROOT
ATOM      1  O   UNL     1     112.539 128.249 137.707  0.00  0.00    +0.000 OA
ATOM      2  O   UNL     1     113.731 127.046 135.903  0.00  0.00    +0.000 OA
ATOM      3  O   UNL     1     113.633 130.779 136.768  0.00  0.00    +0.000 OA
ATOM      4  O   UNL     1     114.291 128.280 135.410  0.00  0.00    +0.000 OA
ATOM      5  C   UNL     1     113.076 129.520 137.252  0.00  0.00    +0.000 A 
ATOM      6  C   UNL     1     112.865 127.028 137.039  0.00  0.00    +0.000 A 
ATOM      7  C   UNL     1     113.009 128.667 137.173  0.00  0.00    +0.000 A 
ATOM      8  C   UNL     1     113.406 128.265 136.571  0.00  0.00    +0.000 A 
ATOM      9  C   UNL     1     113.334 127.447 136.504  0.00  0.00    +0.000 A 
ATOM     10  C   UNL     1     112.468 127.430 137.640  0.00  0.00    +0.000 A 
ATOM     11  C   UNL     1     113.563 129.960 136.699  0.00  0.00    +0.000 A 
ATOM     12  C   UNL     1     113.898 128.690 136.008  0.00  0.00    +0.000 A 
ATOM     13  C   UNL     1     113.976 129.543 136.072  0.00  0.00    +0.000 A 
ENDROOT
BRANCH   6  18
ATOM     14  O   UNL     1     112.133 125.882 136.602  0.00  0.00    +0.000 OA
ATOM     15  O   UNL     1     114.041 126.045 137.648  0.00  0.00    +0.000 OA
ATOM     16  O   UNL     1     113.898 124.406 137.515  0.00  0.00    +0.000 OA
ATOM     17  O   UNL     1     112.577 123.751 136.773  0.00  0.00    +0.000 OA
ATOM     18  C   UNL     1     112.793 126.210 136.972  0.00  0.00    +0.000 C 
ATOM     19  C   UNL     1     113.381 125.718 137.277  0.00  0.00    +0.000 C 
ATOM     20  C   UNL     1     113.309 124.898 137.210  0.00  0.00    +0.000 C 
ATOM     21  C   UNL     1     112.649 124.571 136.839  0.00  0.00    +0.000 C 
ATOM     22  C   UNL     1     112.061 125.063 136.535  0.00  0.00    +0.000 C 
BRANCH  22  24
ATOM     23  O   UNL     1     111.172 125.000 135.418  0.00  0.00    +0.000 OA
ATOM     24  C   UNL     1     111.401 124.735 136.164  0.00  0.00    +0.000 C 
ENDBRANCH  22  24
ENDBRANCH   6  18
BRANCH   5  29
ATOM     25  O   UNL     1     111.881 130.115 137.762  0.00  0.00    +0.000 OA
ATOM     26  O   UNL     1     113.862 129.901 138.652  0.00  0.00    +0.000 OA
ATOM     27  O   UNL     1     113.062 130.686 139.861  0.00  0.00    +0.000 OA
ATOM     28  O   UNL     1     111.473 131.090 139.673  0.00  0.00    +0.000 OA
ATOM     29  C   UNL     1     112.675 129.913 137.857  0.00  0.00    +0.000 C 
ATOM     30  C   UNL     1     113.068 130.103 138.557  0.00  0.00    +0.000 C 
ATOM     31  C   UNL     1     112.667 130.496 139.162  0.00  0.00    +0.000 C 
ATOM     32  C   UNL     1     111.873 130.698 139.067  0.00  0.00    +0.000 C 
ATOM     33  C   UNL     1     111.480 130.507 138.367  0.00  0.00    +0.000 C 
BRANCH  33  35
ATOM     34  O   UNL     1     110.360 130.755 137.516  0.00  0.00    +0.000 OA
ATOM     35  C   UNL     1     110.686 130.709 138.273  0.00  0.00    +0.000 C 
ENDBRANCH  33  35
ENDBRANCH   5  29
BRANCH  10  37
ATOM     36  O   UNL     1     112.159 126.102 140.152  0.00  0.00    +0.000 OA
ATOM     37  C   UNL     1     111.998 127.012 138.175  0.00  0.00    +0.000 A 
ATOM     38  C   UNL     1     112.313 126.766 138.896  0.00  0.00    +0.000 A 
ATOM     39  C   UNL     1     111.212 126.842 137.988  0.00  0.00    +0.000 A 
ATOM     40  C   UNL     1     111.843 126.348 139.431  0.00  0.00    +0.000 A 
ATOM     41  C   UNL     1     110.743 126.424 138.523  0.00  0.00    +0.000 A 
ATOM     42  C   UNL     1     111.058 126.178 139.244  0.00  0.00    +0.000 A 
BRANCH  42  43
ATOM     43  O   UNL     1     110.588 125.760 139.779  0.00  0.00    +0.000 OA
ATOM     44  C   UNL     1     109.767 125.767 139.698  0.00  0.00    +0.000 C 
ENDBRANCH  42  43
ENDBRANCH  10  37
TORSDOF 6
ENDMDL
MODEL 7
REMARK VINA RESULT:      -9.9      1.577      3.227
REMARK  Name = 44258217
REMARK  6 active torsions:
REMARK  status: ('A' for Active; 'I' for Inactive)
REMARK    1  A    between atoms: O_16  and  C_43
REMARK    2  A    between atoms: C_17  and  C_28
REMARK    3  A    between atoms: C_18  and  C_27
REMARK    4  A    between atoms: C_25  and  C_33
REMARK    5  A    between atoms: C_26  and  C_34
REMARK    6  A    between atoms: C_32  and  C_38
REMARK                            x       y       z     vdW  Elec       q    Type
REMARK                         _______ _______ _______ _____ _____    ______ ____
ROOT
ATOM      1  O   UNL     1     111.253 127.805 137.313  0.00  0.00    +0.000 OA
ATOM      2  O   UNL     1     111.511 126.179 135.465  0.00  0.00    +0.000 OA
ATOM      3  O   UNL     1     109.519 129.450 135.649  0.00  0.00    +0.000 OA
ATOM      4  O   UNL     1     110.656 126.968 134.612  0.00  0.00    +0.000 OA
ATOM      5  C   UNL     1     110.386 128.637 136.497  0.00  0.00    +0.000 A 
ATOM      6  C   UNL     1     111.808 126.591 136.800  0.00  0.00    +0.000 A 
ATOM      7  C   UNL     1     110.872 127.934 136.593  0.00  0.00    +0.000 A 
ATOM      8  C   UNL     1     110.958 127.392 135.977  0.00  0.00    +0.000 A 
ATOM      9  C   UNL     1     111.425 126.721 136.081  0.00  0.00    +0.000 A 
ATOM     10  C   UNL     1     111.722 127.133 137.416  0.00  0.00    +0.000 A 
ATOM     11  C   UNL     1     109.986 128.778 135.750  0.00  0.00    +0.000 A 
ATOM     12  C   UNL     1     110.564 127.516 135.223  0.00  0.00    +0.000 A 
ATOM     13  C   UNL     1     110.076 128.213 135.109  0.00  0.00    +0.000 A 
ENDROOT
BRANCH   6  18
ATOM     14  O   UNL     1     113.095 125.972 136.826  0.00  0.00    +0.000 OA
ATOM     15  O   UNL     1     111.104 125.144 137.163  0.00  0.00    +0.000 OA
ATOM     16  O   UNL     1     112.040 123.801 137.371  0.00  0.00    +0.000 OA
ATOM     17  O   UNL     1     113.680 123.905 137.216  0.00  0.00    +0.000 OA
ATOM     18  C   UNL     1     112.276 125.921 136.904  0.00  0.00    +0.000 C 
ATOM     19  C   UNL     1     111.924 125.197 137.085  0.00  0.00    +0.000 C 
ATOM     20  C   UNL     1     112.392 124.525 137.189  0.00  0.00    +0.000 C 
ATOM     21  C   UNL     1     113.212 124.578 137.112  0.00  0.00    +0.000 C 
ATOM     22  C   UNL     1     113.563 125.301 136.930  0.00  0.00    +0.000 C 
BRANCH  22  24
ATOM     23  O   UNL     1     114.717 125.576 136.132  0.00  0.00    +0.000 OA
ATOM     24  C   UNL     1     114.383 125.353 136.853  0.00  0.00    +0.000 C 
ENDBRANCH  22  24
ENDBRANCH   6  18
BRANCH   5  29
ATOM     25  O   UNL     1     110.890 129.741 137.252  0.00  0.00    +0.000 OA
ATOM     26  O   UNL     1     109.059 128.575 137.475  0.00  0.00    +0.000 OA
ATOM     27  O   UNL     1     108.898 129.646 138.718  0.00  0.00    +0.000 OA
ATOM     28  O   UNL     1     110.065 130.782 138.985  0.00  0.00    +0.000 OA
ATOM     29  C   UNL     1     110.306 129.174 137.119  0.00  0.00    +0.000 C 
ATOM     30  C   UNL     1     109.642 129.142 137.608  0.00  0.00    +0.000 C 
ATOM     31  C   UNL     1     109.562 129.679 138.230  0.00  0.00    +0.000 C 
ATOM     32  C   UNL     1     110.145 130.246 138.363  0.00  0.00    +0.000 C 
ATOM     33  C   UNL     1     110.810 130.278 137.874  0.00  0.00    +0.000 C 
BRANCH  33  35
ATOM     34  O   UNL     1     111.862 131.109 137.381  0.00  0.00    +0.000 OA
ATOM     35  C   UNL     1     111.393 130.845 138.007  0.00  0.00    +0.000 C 
ENDBRANCH  33  35
ENDBRANCH   5  29
BRANCH  10  37
ATOM     36  O   UNL     1     111.698 126.106 140.083  0.00  0.00    +0.000 OA
ATOM     37  C   UNL     1     112.104 127.004 138.136  0.00  0.00    +0.000 A 
ATOM     38  C   UNL     1     111.709 126.620 138.749  0.00  0.00    +0.000 A 
ATOM     39  C   UNL     1     112.881 127.261 138.242  0.00  0.00    +0.000 A 
ATOM     40  C   UNL     1     112.092 126.491 139.469  0.00  0.00    +0.000 A 
ATOM     41  C   UNL     1     113.263 127.132 138.961  0.00  0.00    +0.000 A 
ATOM     42  C   UNL     1     112.869 126.748 139.575  0.00  0.00    +0.000 A 
BRANCH  42  43
ATOM     43  O   UNL     1     113.252 126.619 140.295  0.00  0.00    +0.000 OA
ATOM     44  C   UNL     1     114.007 126.926 140.420  0.00  0.00    +0.000 C 
ENDBRANCH  42  43
ENDBRANCH  10  37
TORSDOF 6
ENDMDL
MODEL 8
REMARK VINA RESULT:      -9.9      2.081      5.083
REMARK  Name = 44258217
REMARK  6 active torsions:
REMARK  status: ('A' for Active; 'I' for Inactive)
REMARK    1  A    between atoms: O_16  and  C_43
REMARK    2  A    between atoms: C_17  and  C_28
REMARK    3  A    between atoms: C_18  and  C_27
REMARK    4  A    between atoms: C_25  and  C_33
REMARK    5  A    between atoms: C_26  and  C_34
REMARK    6  A    between atoms: C_32  and  C_38
REMARK                            x       y       z     vdW  Elec       q    Type
REMARK                         _______ _______ _______ _____ _____    ______ ____
ROOT
ATOM      1  O   UNL     1     112.910 129.271 138.956  0.00  0.00    +0.000 OA
ATOM      2  O   UNL     1     112.644 127.222 137.594  0.00  0.00    +0.000 OA
ATOM      3  O   UNL     1     114.096 127.709 141.109  0.00  0.00    +0.000 OA
ATOM      4  O   UNL     1     113.227 126.417 138.638  0.00  0.00    +0.000 OA
ATOM      5  C   UNL     1     113.503 128.508 140.040  0.00  0.00    +0.000 A 
ATOM      6  C   UNL     1     112.487 128.634 137.748  0.00  0.00    +0.000 A 
ATOM      7  C   UNL     1     113.156 128.543 139.254  0.00  0.00    +0.000 A 
ATOM      8  C   UNL     1     113.067 127.860 138.800  0.00  0.00    +0.000 A 
ATOM      9  C   UNL     1     112.733 127.905 138.048  0.00  0.00    +0.000 A 
ATOM     10  C   UNL     1     112.575 129.317 138.203  0.00  0.00    +0.000 A 
ATOM     11  C   UNL     1     113.761 127.752 140.356  0.00  0.00    +0.000 A 
ATOM     12  C   UNL     1     113.320 127.095 139.100  0.00  0.00    +0.000 A 
ATOM     13  C   UNL     1     113.669 127.041 139.883  0.00  0.00    +0.000 A 
ENDROOT
BRANCH   6  18
ATOM     14  O   UNL     1     111.332 128.691 136.909  0.00  0.00    +0.000 OA
ATOM     15  O   UNL     1     113.458 128.704 136.417  0.00  0.00    +0.000 OA
ATOM     16  O   UNL     1     112.789 128.796 134.911  0.00  0.00    +0.000 OA
ATOM     17  O   UNL     1     111.149 128.817 134.737  0.00  0.00    +0.000 OA
ATOM     18  C   UNL     1     112.152 128.680 136.996  0.00  0.00    +0.000 C 
ATOM     19  C   UNL     1     112.638 128.715 136.331  0.00  0.00    +0.000 C 
ATOM     20  C   UNL     1     112.303 128.761 135.577  0.00  0.00    +0.000 C 
ATOM     21  C   UNL     1     111.483 128.771 135.491  0.00  0.00    +0.000 C 
ATOM     22  C   UNL     1     110.997 128.736 136.157  0.00  0.00    +0.000 C 
BRANCH  22  24
ATOM     23  O   UNL     1     109.722 128.123 136.358  0.00  0.00    +0.000 OA
ATOM     24  C   UNL     1     110.177 128.747 136.069  0.00  0.00    +0.000 C 
ENDBRANCH  22  24
ENDBRANCH   6  18
BRANCH   5  29
ATOM     25  O   UNL     1     114.232 129.695 140.358  0.00  0.00    +0.000 OA
ATOM     26  O   UNL     1     112.383 128.887 141.190  0.00  0.00    +0.000 OA
ATOM     27  O   UNL     1     112.551 130.263 142.083  0.00  0.00    +0.000 OA
ATOM     28  O   UNL     1     113.840 131.261 141.828  0.00  0.00    +0.000 OA
ATOM     29  C   UNL     1     113.588 129.196 140.486  0.00  0.00    +0.000 C 
ATOM     30  C   UNL     1     113.027 129.386 141.062  0.00  0.00    +0.000 C 
ATOM     31  C   UNL     1     113.112 130.074 141.508  0.00  0.00    +0.000 C 
ATOM     32  C   UNL     1     113.756 130.573 141.380  0.00  0.00    +0.000 C 
ATOM     33  C   UNL     1     114.317 130.383 140.805  0.00  0.00    +0.000 C 
BRANCH  33  35
ATOM     34  O   UNL     1     115.710 130.561 140.543  0.00  0.00    +0.000 OA
ATOM     35  C   UNL     1     114.961 130.882 140.677  0.00  0.00    +0.000 C 
ENDBRANCH  33  35
ENDBRANCH   5  29
BRANCH  10  37
ATOM     36  O   UNL     1     113.157 131.753 136.826  0.00  0.00    +0.000 OA
ATOM     37  C   UNL     1     112.330 130.046 137.905  0.00  0.00    +0.000 A 
ATOM     38  C   UNL     1     112.866 130.534 137.515  0.00  0.00    +0.000 A 
ATOM     39  C   UNL     1     111.545 130.286 137.998  0.00  0.00    +0.000 A 
ATOM     40  C   UNL     1     112.620 131.264 137.217  0.00  0.00    +0.000 A 
ATOM     41  C   UNL     1     111.299 131.014 137.700  0.00  0.00    +0.000 A 
ATOM     42  C   UNL     1     111.836 131.503 137.310  0.00  0.00    +0.000 A 
BRANCH  42  43
ATOM     43  O   UNL     1     111.589 132.232 137.012  0.00  0.00    +0.000 OA
ATOM     44  C   UNL     1     110.791 132.437 137.032  0.00  0.00    +0.000 C 
ENDBRANCH  42  43
ENDBRANCH  10  37
TORSDOF 6
ENDMDL
MODEL 9
REMARK VINA RESULT:      -9.7      2.351      3.698
REMARK  Name = 44258217
REMARK  6 active torsions:
REMARK  status: ('A' for Active; 'I' for Inactive)
REMARK    1  A    between atoms: O_16  and  C_43
REMARK    2  A    between atoms: C_17  and  C_28
REMARK    3  A    between atoms: C_18  and  C_27
REMARK    4  A    between atoms: C_25  and  C_33
REMARK    5  A    between atoms: C_26  and  C_34
REMARK    6  A    between atoms: C_32  and  C_38
REMARK                            x       y       z     vdW  Elec       q    Type
REMARK                         _______ _______ _______ _____ _____    ______ ____
ROOT
ATOM      1  O   UNL     1     111.026 130.173 136.908  0.00  0.00    +0.000 OA
ATOM      2  O   UNL     1     111.198 128.290 135.311  0.00  0.00    +0.000 OA
ATOM      3  O   UNL     1     108.638 131.135 135.547  0.00  0.00    +0.000 OA
ATOM      4  O   UNL     1     110.018 128.737 134.612  0.00  0.00    +0.000 OA
ATOM      5  C   UNL     1     109.834 130.667 136.241  0.00  0.00    +0.000 A 
ATOM      6  C   UNL     1     111.698 128.998 136.447  0.00  0.00    +0.000 A 
ATOM      7  C   UNL     1     110.469 130.091 136.305  0.00  0.00    +0.000 A 
ATOM      8  C   UNL     1     110.527 129.463 135.773  0.00  0.00    +0.000 A 
ATOM      9  C   UNL     1     111.140 128.918 135.844  0.00  0.00    +0.000 A 
ATOM     10  C   UNL     1     111.640 129.626 136.979  0.00  0.00    +0.000 A 
ATOM     11  C   UNL     1     109.251 130.587 135.615  0.00  0.00    +0.000 A 
ATOM     12  C   UNL     1     109.953 129.368 135.140  0.00  0.00    +0.000 A 
ATOM     13  C   UNL     1     109.311 129.934 135.061  0.00  0.00    +0.000 A 
ENDROOT
BRANCH   6  18
ATOM     14  O   UNL     1     112.247 127.824 137.049  0.00  0.00    +0.000 OA
ATOM     15  O   UNL     1     113.057 129.161 135.526  0.00  0.00    +0.000 OA
ATOM     16  O   UNL     1     114.286 128.069 135.668  0.00  0.00    +0.000 OA
ATOM     17  O   UNL     1     114.155 126.814 136.731  0.00  0.00    +0.000 OA
ATOM     18  C   UNL     1     112.311 128.452 136.518  0.00  0.00    +0.000 C 
ATOM     19  C   UNL     1     112.991 128.534 136.057  0.00  0.00    +0.000 C 
ATOM     20  C   UNL     1     113.606 127.988 136.128  0.00  0.00    +0.000 C 
ATOM     21  C   UNL     1     113.540 127.360 136.660  0.00  0.00    +0.000 C 
ATOM     22  C   UNL     1     112.860 127.279 137.120  0.00  0.00    +0.000 C 
BRANCH  22  24
ATOM     23  O   UNL     1     112.183 126.105 137.573  0.00  0.00    +0.000 OA
ATOM     24  C   UNL     1     112.795 126.650 137.651  0.00  0.00    +0.000 C 
ENDBRANCH  22  24
ENDBRANCH   6  18
BRANCH   5  29
ATOM     25  O   UNL     1     110.237 131.971 136.663  0.00  0.00    +0.000 OA
ATOM     26  O   UNL     1     108.831 130.555 137.547  0.00  0.00    +0.000 OA
ATOM     27  O   UNL     1     108.732 131.802 138.621  0.00  0.00    +0.000 OA
ATOM     28  O   UNL     1     109.636 133.163 138.391  0.00  0.00    +0.000 OA
ATOM     29  C   UNL     1     109.785 131.291 136.779  0.00  0.00    +0.000 C 
ATOM     30  C   UNL     1     109.283 131.235 137.431  0.00  0.00    +0.000 C 
ATOM     31  C   UNL     1     109.234 131.859 137.969  0.00  0.00    +0.000 C 
ATOM     32  C   UNL     1     109.686 132.539 137.853  0.00  0.00    +0.000 C 
ATOM     33  C   UNL     1     110.188 132.595 137.201  0.00  0.00    +0.000 C 
BRANCH  33  35
ATOM     34  O   UNL     1     110.688 133.616 136.336  0.00  0.00    +0.000 OA
ATOM     35  C   UNL     1     110.640 133.275 137.085  0.00  0.00    +0.000 C 
ENDBRANCH  33  35
ENDBRANCH   5  29
BRANCH  10  37
ATOM     36  O   UNL     1     114.058 130.776 137.979  0.00  0.00    +0.000 OA
ATOM     37  C   UNL     1     112.197 129.708 137.583  0.00  0.00    +0.000 A 
ATOM     38  C   UNL     1     112.849 130.201 137.479  0.00  0.00    +0.000 A 
ATOM     39  C   UNL     1     112.100 129.295 138.291  0.00  0.00    +0.000 A 
ATOM     40  C   UNL     1     113.405 130.282 138.083  0.00  0.00    +0.000 A 
ATOM     41  C   UNL     1     112.656 129.376 138.895  0.00  0.00    +0.000 A 
ATOM     42  C   UNL     1     113.308 129.870 138.791  0.00  0.00    +0.000 A 
BRANCH  42  43
ATOM     43  O   UNL     1     113.865 129.951 139.395  0.00  0.00    +0.000 OA
ATOM     44  C   UNL     1     113.824 129.465 140.060  0.00  0.00    +0.000 C 
ENDBRANCH  42  43
ENDBRANCH  10  37
TORSDOF 6
ENDMDL
MODEL 10
REMARK VINA RESULT:      -9.7      1.512      2.624
REMARK  Name = 44258217
REMARK  6 active torsions:
REMARK  status: ('A' for Active; 'I' for Inactive)
REMARK    1  A    between atoms: O_16  and  C_43
REMARK    2  A    between atoms: C_17  and  C_28
REMARK    3  A    between atoms: C_18  and  C_27
REMARK    4  A    between atoms: C_25  and  C_33
REMARK    5  A    between atoms: C_26  and  C_34
REMARK    6  A    between atoms: C_32  and  C_38
REMARK                            x       y       z     vdW  Elec       q    Type
REMARK                         _______ _______ _______ _____ _____    ______ ____
ROOT
ATOM      1  O   UNL     1     111.917 126.868 137.906  0.00  0.00    +0.000 OA
ATOM      2  O   UNL     1     113.683 126.481 139.596  0.00  0.00    +0.000 OA
ATOM      3  O   UNL     1     113.400 125.284 135.964  0.00  0.00    +0.000 OA
ATOM      4  O   UNL     1     114.445 125.691 138.660  0.00  0.00    +0.000 OA
ATOM      5  C   UNL     1     112.643 126.081 136.925  0.00  0.00    +0.000 A 
ATOM      6  C   UNL     1     112.433 127.065 139.224  0.00  0.00    +0.000 A 
ATOM      7  C   UNL     1     112.579 126.415 137.715  0.00  0.00    +0.000 A 
ATOM      8  C   UNL     1     113.168 126.286 138.278  0.00  0.00    +0.000 A 
ATOM      9  C   UNL     1     113.095 126.610 139.032  0.00  0.00    +0.000 A 
ATOM     10  C   UNL     1     111.844 127.194 138.661  0.00  0.00    +0.000 A 
ATOM     11  C   UNL     1     113.330 125.608 136.720  0.00  0.00    +0.000 A 
ATOM     12  C   UNL     1     113.862 125.814 138.091  0.00  0.00    +0.000 A 
ATOM     13  C   UNL     1     113.943 125.473 137.306  0.00  0.00    +0.000 A 
ENDROOT
BRANCH   6  18
ATOM     14  O   UNL     1     112.589 128.170 140.116  0.00  0.00    +0.000 OA
ATOM     15  O   UNL     1     111.828 126.154 140.460  0.00  0.00    +0.000 OA
ATOM     16  O   UNL     1     111.682 126.804 141.970  0.00  0.00    +0.000 OA
ATOM     17  O   UNL     1     112.141 128.365 142.244  0.00  0.00    +0.000 OA
ATOM     18  C   UNL     1     112.360 127.390 139.979  0.00  0.00    +0.000 C 
ATOM     19  C   UNL     1     112.058 126.934 140.596  0.00  0.00    +0.000 C 
ATOM     20  C   UNL     1     111.984 127.259 141.352  0.00  0.00    +0.000 C 
ATOM     21  C   UNL     1     112.214 128.040 141.488  0.00  0.00    +0.000 C 
ATOM     22  C   UNL     1     112.516 128.495 140.870  0.00  0.00    +0.000 C 
BRANCH  22  24
ATOM     23  O   UNL     1     113.529 129.503 140.889  0.00  0.00    +0.000 OA
ATOM     24  C   UNL     1     112.746 129.276 141.008  0.00  0.00    +0.000 C 
ENDBRANCH  22  24
ENDBRANCH   6  18
BRANCH   5  29
ATOM     25  O   UNL     1     112.029 126.926 135.950  0.00  0.00    +0.000 OA
ATOM     26  O   UNL     1     111.495 124.929 136.649  0.00  0.00    +0.000 OA
ATOM     27  O   UNL     1     110.308 125.196 135.537  0.00  0.00    +0.000 OA
ATOM     28  O   UNL     1     110.267 126.617 134.699  0.00  0.00    +0.000 OA
ATOM     29  C   UNL     1     112.049 126.216 136.368  0.00  0.00    +0.000 C 
ATOM     30  C   UNL     1     111.475 125.639 136.231  0.00  0.00    +0.000 C 
ATOM     31  C   UNL     1     110.881 125.773 135.674  0.00  0.00    +0.000 C 
ATOM     32  C   UNL     1     110.861 126.484 135.255  0.00  0.00    +0.000 C 
ATOM     33  C   UNL     1     111.435 127.060 135.393  0.00  0.00    +0.000 C 
BRANCH  33  35
ATOM     34  O   UNL     1     111.989 128.347 135.113  0.00  0.00    +0.000 OA
ATOM     35  C   UNL     1     111.415 127.771 134.974  0.00  0.00    +0.000 C 
ENDBRANCH  33  35
ENDBRANCH   5  29
BRANCH  10  37
ATOM     36  O   UNL     1     109.134 127.368 139.552  0.00  0.00    +0.000 OA
ATOM     37  C   UNL     1     111.182 127.648 138.852  0.00  0.00    +0.000 A 
ATOM     38  C   UNL     1     110.490 127.281 139.106  0.00  0.00    +0.000 A 
ATOM     39  C   UNL     1     111.214 128.470 138.788  0.00  0.00    +0.000 A 
ATOM     40  C   UNL     1     109.828 127.735 139.297  0.00  0.00    +0.000 A 
ATOM     41  C   UNL     1     110.553 128.924 138.979  0.00  0.00    +0.000 A 
ATOM     42  C   UNL     1     109.860 128.557 139.233  0.00  0.00    +0.000 A 
BRANCH  42  43
ATOM     43  O   UNL     1     109.198 129.012 139.424  0.00  0.00    +0.000 OA
ATOM     44  C   UNL     1     109.272 129.828 139.517  0.00  0.00    +0.000 C 
ENDBRANCH  42  43
ENDBRANCH  10  37
TORSDOF 6
ENDMDL
