MODEL 1
REMARK VINA RESULT:      -8.4      0.000      0.000
REMARK  Name = 44258042
REMARK  4 active torsions:
REMARK  status: ('A' for Active; 'I' for Inactive)
REMARK    1  A    between atoms: O_2  and  C_14
REMARK    2  A    between atoms: O_4  and  C_22
REMARK    3  A    between atoms: O_5  and  C_23
REMARK    4  A    between atoms: C_10  and  C_13
REMARK                            x       y       z     vdW  Elec       q    Type
REMARK                         _______ _______ _______ _____ _____    ______ ____
ROOT
ATOM      1  O   UNL     1     105.338 124.506 147.942  0.00  0.00    +0.000 OA
ATOM      2  O   UNL     1     107.790 125.483 146.767  0.00  0.00    +0.000 OA
ATOM      3  O   UNL     1     106.538 125.570 146.057  0.00  0.00    +0.000 OA
ATOM      4  O   UNL     1     108.648 125.022 148.148  0.00  0.00    +0.000 OA
ATOM      5  O   UNL     1     107.829 124.296 149.436  0.00  0.00    +0.000 OA
ATOM      6  C   UNL     1     104.924 124.733 147.265  0.00  0.00    +0.000 A 
ATOM      7  C   UNL     1     106.551 124.989 147.362  0.00  0.00    +0.000 A 
ATOM      8  C   UNL     1     106.151 124.634 147.990  0.00  0.00    +0.000 A 
ATOM      9  C   UNL     1     105.324 125.088 146.637  0.00  0.00    +0.000 A 
ATOM     10  C   UNL     1     106.138 125.215 146.686  0.00  0.00    +0.000 A 
ATOM     11  C   UNL     1     107.399 125.127 147.400  0.00  0.00    +0.000 A 
ATOM     12  C   UNL     1     106.571 124.394 148.701  0.00  0.00    +0.000 A 
ATOM     13  C   UNL     1     107.835 124.893 148.103  0.00  0.00    +0.000 A 
ATOM     14  C   UNL     1     107.418 124.524 148.757  0.00  0.00    +0.000 A 
ENDROOT
BRANCH   6  16
ATOM     15  O   UNL     1     101.670 124.218 147.072  0.00  0.00    +0.000 OA
ATOM     16  C   UNL     1     104.111 124.605 147.217  0.00  0.00    +0.000 A 
ATOM     17  C   UNL     1     103.822 123.911 146.875  0.00  0.00    +0.000 A 
ATOM     18  C   UNL     1     103.585 125.170 147.510  0.00  0.00    +0.000 A 
ATOM     19  C   UNL     1     102.772 125.040 147.462  0.00  0.00    +0.000 A 
ATOM     20  C   UNL     1     103.009 123.783 146.828  0.00  0.00    +0.000 A 
ATOM     21  C   UNL     1     102.484 124.347 147.121  0.00  0.00    +0.000 A 
BRANCH  19  22
ATOM     22  O   UNL     1     102.247 125.605 147.755  0.00  0.00    +0.000 OA
ATOM     23  C   UNL     1     102.395 125.970 148.481  0.00  0.00    +0.000 C 
ENDBRANCH  19  22
BRANCH  20  24
ATOM     24  O   UNL     1     102.720 123.088 146.486  0.00  0.00    +0.000 OA
ATOM     25  C   UNL     1     103.124 122.739 145.857  0.00  0.00    +0.000 C 
ENDBRANCH  20  24
ENDBRANCH   6  16
BRANCH   9  26
ATOM     26  O   UNL     1     104.910 125.314 145.960  0.00  0.00    +0.000 OA
ATOM     27  C   UNL     1     105.243 125.858 145.437  0.00  0.00    +0.000 C 
ENDBRANCH   9  26
TORSDOF 4
ENDMDL
MODEL 2
REMARK VINA RESULT:      -8.2      0.992      4.335
REMARK  Name = 44258042
REMARK  4 active torsions:
REMARK  status: ('A' for Active; 'I' for Inactive)
REMARK    1  A    between atoms: O_2  and  C_14
REMARK    2  A    between atoms: O_4  and  C_22
REMARK    3  A    between atoms: O_5  and  C_23
REMARK    4  A    between atoms: C_10  and  C_13
REMARK                            x       y       z     vdW  Elec       q    Type
REMARK                         _______ _______ _______ _____ _____    ______ ____
ROOT
ATOM      1  O   UNL     1     104.436 125.242 147.529  0.00  0.00    +0.000 OA
ATOM      2  O   UNL     1     102.440 123.832 145.989  0.00  0.00    +0.000 OA
ATOM      3  O   UNL     1     103.828 123.821 145.597  0.00  0.00    +0.000 OA
ATOM      4  O   UNL     1     101.237 124.339 147.063  0.00  0.00    +0.000 OA
ATOM      5  O   UNL     1     101.653 125.309 148.383  0.00  0.00    +0.000 OA
ATOM      6  C   UNL     1     105.019 124.991 147.001  0.00  0.00    +0.000 A 
ATOM      7  C   UNL     1     103.448 124.545 146.768  0.00  0.00    +0.000 A 
ATOM      8  C   UNL     1     103.651 125.019 147.412  0.00  0.00    +0.000 A 
ATOM      9  C   UNL     1     104.816 124.518 146.357  0.00  0.00    +0.000 A 
ATOM     10  C   UNL     1     104.031 124.295 146.241  0.00  0.00    +0.000 A 
ATOM     11  C   UNL     1     102.633 124.306 146.636  0.00  0.00    +0.000 A 
ATOM     12  C   UNL     1     103.053 125.286 147.969  0.00  0.00    +0.000 A 
ATOM     13  C   UNL     1     102.022 124.564 147.182  0.00  0.00    +0.000 A 
ATOM     14  C   UNL     1     102.233 125.057 147.853  0.00  0.00    +0.000 A 
ENDROOT
BRANCH   6  16
ATOM     15  O   UNL     1     108.162 125.884 147.472  0.00  0.00    +0.000 OA
ATOM     16  C   UNL     1     105.805 125.215 147.118  0.00  0.00    +0.000 A 
ATOM     17  C   UNL     1     106.284 124.782 147.633  0.00  0.00    +0.000 A 
ATOM     18  C   UNL     1     106.111 125.871 146.722  0.00  0.00    +0.000 A 
ATOM     19  C   UNL     1     106.897 126.093 146.840  0.00  0.00    +0.000 A 
ATOM     20  C   UNL     1     107.069 125.006 147.750  0.00  0.00    +0.000 A 
ATOM     21  C   UNL     1     107.376 125.661 147.354  0.00  0.00    +0.000 A 
BRANCH  19  22
ATOM     22  O   UNL     1     107.203 126.749 146.444  0.00  0.00    +0.000 OA
ATOM     23  C   UNL     1     106.802 127.470 146.467  0.00  0.00    +0.000 C 
ENDBRANCH  19  22
BRANCH  20  24
ATOM     24  O   UNL     1     107.549 124.573 148.264  0.00  0.00    +0.000 OA
ATOM     25  C   UNL     1     107.278 124.384 149.020  0.00  0.00    +0.000 C 
ENDBRANCH  20  24
ENDBRANCH   6  16
BRANCH   9  26
ATOM     26  O   UNL     1     105.399 124.268 145.830  0.00  0.00    +0.000 OA
ATOM     27  C   UNL     1     105.204 124.113 145.043  0.00  0.00    +0.000 C 
ENDBRANCH   9  26
TORSDOF 4
ENDMDL
MODEL 3
REMARK VINA RESULT:      -8.0      0.919      4.494
REMARK  Name = 44258042
REMARK  4 active torsions:
REMARK  status: ('A' for Active; 'I' for Inactive)
REMARK    1  A    between atoms: O_2  and  C_14
REMARK    2  A    between atoms: O_4  and  C_22
REMARK    3  A    between atoms: O_5  and  C_23
REMARK    4  A    between atoms: C_10  and  C_13
REMARK                            x       y       z     vdW  Elec       q    Type
REMARK                         _______ _______ _______ _____ _____    ______ ____
ROOT
ATOM      1  O   UNL     1     104.736 124.315 146.800  0.00  0.00    +0.000 OA
ATOM      2  O   UNL     1     102.004 124.895 147.540  0.00  0.00    +0.000 OA
ATOM      3  O   UNL     1     103.101 125.654 148.088  0.00  0.00    +0.000 OA
ATOM      4  O   UNL     1     101.456 123.654 146.532  0.00  0.00    +0.000 OA
ATOM      5  O   UNL     1     102.572 122.740 145.653  0.00  0.00    +0.000 OA
ATOM      6  C   UNL     1     104.998 124.922 147.294  0.00  0.00    +0.000 A 
ATOM      7  C   UNL     1     103.384 124.601 147.165  0.00  0.00    +0.000 A 
ATOM      8  C   UNL     1     103.929 124.155 146.736  0.00  0.00    +0.000 A 
ATOM      9  C   UNL     1     104.453 125.369 147.723  0.00  0.00    +0.000 A 
ATOM     10  C   UNL     1     103.646 125.208 147.658  0.00  0.00    +0.000 A 
ATOM     11  C   UNL     1     102.541 124.443 147.107  0.00  0.00    +0.000 A 
ATOM     12  C   UNL     1     103.669 123.520 146.218  0.00  0.00    +0.000 A 
ATOM     13  C   UNL     1     102.263 123.813 146.595  0.00  0.00    +0.000 A 
ATOM     14  C   UNL     1     102.830 123.348 146.147  0.00  0.00    +0.000 A 
ENDROOT
BRANCH   6  16
ATOM     15  O   UNL     1     108.225 125.565 147.547  0.00  0.00    +0.000 OA
ATOM     16  C   UNL     1     105.804 125.083 147.357  0.00  0.00    +0.000 A 
ATOM     17  C   UNL     1     106.159 125.622 146.842  0.00  0.00    +0.000 A 
ATOM     18  C   UNL     1     106.256 124.705 147.935  0.00  0.00    +0.000 A 
ATOM     19  C   UNL     1     107.063 124.866 147.998  0.00  0.00    +0.000 A 
ATOM     20  C   UNL     1     106.966 125.782 146.906  0.00  0.00    +0.000 A 
ATOM     21  C   UNL     1     107.418 125.404 147.484  0.00  0.00    +0.000 A 
BRANCH  19  22
ATOM     22  O   UNL     1     107.515 124.488 148.575  0.00  0.00    +0.000 OA
ATOM     23  C   UNL     1     107.175 124.290 149.301  0.00  0.00    +0.000 C 
ENDBRANCH  19  22
BRANCH  20  24
ATOM     24  O   UNL     1     107.321 126.321 146.391  0.00  0.00    +0.000 OA
ATOM     25  C   UNL     1     106.854 126.832 145.942  0.00  0.00    +0.000 C 
ENDBRANCH  20  24
ENDBRANCH   6  16
BRANCH   9  26
ATOM     26  O   UNL     1     104.714 125.975 148.216  0.00  0.00    +0.000 OA
ATOM     27  C   UNL     1     104.170 126.491 148.560  0.00  0.00    +0.000 C 
ENDBRANCH   9  26
TORSDOF 4
ENDMDL
MODEL 4
REMARK VINA RESULT:      -8.0     13.243     14.311
REMARK  Name = 44258042
REMARK  4 active torsions:
REMARK  status: ('A' for Active; 'I' for Inactive)
REMARK    1  A    between atoms: O_2  and  C_14
REMARK    2  A    between atoms: O_4  and  C_22
REMARK    3  A    between atoms: O_5  and  C_23
REMARK    4  A    between atoms: C_10  and  C_13
REMARK                            x       y       z     vdW  Elec       q    Type
REMARK                         _______ _______ _______ _____ _____    ______ ____
ROOT
ATOM      1  O   UNL     1     113.818 126.969 136.745  0.00  0.00    +0.000 OA
ATOM      2  O   UNL     1     111.989 124.780 136.283  0.00  0.00    +0.000 OA
ATOM      3  O   UNL     1     111.621 126.138 135.964  0.00  0.00    +0.000 OA
ATOM      4  O   UNL     1     113.131 123.686 136.880  0.00  0.00    +0.000 OA
ATOM      5  O   UNL     1     114.631 124.254 137.413  0.00  0.00    +0.000 OA
ATOM      6  C   UNL     1     113.256 127.499 136.452  0.00  0.00    +0.000 A 
ATOM      7  C   UNL     1     112.914 125.886 136.517  0.00  0.00    +0.000 A 
ATOM      8  C   UNL     1     113.646 126.163 136.777  0.00  0.00    +0.000 A 
ATOM      9  C   UNL     1     112.524 127.221 136.192  0.00  0.00    +0.000 A 
ATOM     10  C   UNL     1     112.353 126.415 136.225  0.00  0.00    +0.000 A 
ATOM     11  C   UNL     1     112.724 125.048 136.545  0.00  0.00    +0.000 A 
ATOM     12  C   UNL     1     114.239 125.621 137.084  0.00  0.00    +0.000 A 
ATOM     13  C   UNL     1     113.304 124.492 136.849  0.00  0.00    +0.000 A 
ATOM     14  C   UNL     1     114.067 124.780 137.120  0.00  0.00    +0.000 A 
ENDROOT
BRANCH   6  16
ATOM     15  O   UNL     1     113.941 130.724 136.327  0.00  0.00    +0.000 OA
ATOM     16  C   UNL     1     113.427 128.305 136.420  0.00  0.00    +0.000 A 
ATOM     17  C   UNL     1     113.258 128.788 137.068  0.00  0.00    +0.000 A 
ATOM     18  C   UNL     1     113.767 128.628 135.742  0.00  0.00    +0.000 A 
ATOM     19  C   UNL     1     113.939 129.435 135.711  0.00  0.00    +0.000 A 
ATOM     20  C   UNL     1     113.430 129.594 137.036  0.00  0.00    +0.000 A 
ATOM     21  C   UNL     1     113.770 129.918 136.358  0.00  0.00    +0.000 A 
BRANCH  19  22
ATOM     22  O   UNL     1     114.279 129.758 135.033  0.00  0.00    +0.000 OA
ATOM     23  C   UNL     1     114.848 129.332 134.613  0.00  0.00    +0.000 C 
ENDBRANCH  19  22
BRANCH  20  24
ATOM     24  O   UNL     1     113.261 130.078 137.684  0.00  0.00    +0.000 OA
ATOM     25  C   UNL     1     113.382 129.798 138.451  0.00  0.00    +0.000 C 
ENDBRANCH  20  24
ENDBRANCH   6  16
BRANCH   9  26
ATOM     26  O   UNL     1     111.963 127.750 135.900  0.00  0.00    +0.000 OA
ATOM     27  C   UNL     1     111.177 127.514 135.817  0.00  0.00    +0.000 C 
ENDBRANCH   9  26
TORSDOF 4
ENDMDL
MODEL 5
REMARK VINA RESULT:      -8.0     13.266     14.290
REMARK  Name = 44258042
REMARK  4 active torsions:
REMARK  status: ('A' for Active; 'I' for Inactive)
REMARK    1  A    between atoms: O_2  and  C_14
REMARK    2  A    between atoms: O_4  and  C_22
REMARK    3  A    between atoms: O_5  and  C_23
REMARK    4  A    between atoms: C_10  and  C_13
REMARK                            x       y       z     vdW  Elec       q    Type
REMARK                         _______ _______ _______ _____ _____    ______ ____
ROOT
ATOM      1  O   UNL     1     113.814 126.977 136.715  0.00  0.00    +0.000 OA
ATOM      2  O   UNL     1     111.947 124.810 136.302  0.00  0.00    +0.000 OA
ATOM      3  O   UNL     1     111.589 126.172 135.989  0.00  0.00    +0.000 OA
ATOM      4  O   UNL     1     113.088 123.703 136.875  0.00  0.00    +0.000 OA
ATOM      5  O   UNL     1     114.608 124.252 137.371  0.00  0.00    +0.000 OA
ATOM      6  C   UNL     1     113.253 127.513 136.434  0.00  0.00    +0.000 A 
ATOM      7  C   UNL     1     112.892 125.905 136.511  0.00  0.00    +0.000 A 
ATOM      8  C   UNL     1     113.633 126.173 136.753  0.00  0.00    +0.000 A 
ATOM      9  C   UNL     1     112.511 127.245 136.192  0.00  0.00    +0.000 A 
ATOM     10  C   UNL     1     112.331 126.440 136.231  0.00  0.00    +0.000 A 
ATOM     11  C   UNL     1     112.692 125.069 136.547  0.00  0.00    +0.000 A 
ATOM     12  C   UNL     1     114.226 125.624 137.047  0.00  0.00    +0.000 A 
ATOM     13  C   UNL     1     113.272 124.507 136.838  0.00  0.00    +0.000 A 
ATOM     14  C   UNL     1     114.044 124.786 137.090  0.00  0.00    +0.000 A 
ENDROOT
BRANCH   6  16
ATOM     15  O   UNL     1     113.979 130.728 136.279  0.00  0.00    +0.000 OA
ATOM     16  C   UNL     1     113.434 128.317 136.396  0.00  0.00    +0.000 A 
ATOM     17  C   UNL     1     113.793 128.626 135.720  0.00  0.00    +0.000 A 
ATOM     18  C   UNL     1     113.256 128.811 137.032  0.00  0.00    +0.000 A 
ATOM     19  C   UNL     1     113.438 129.615 136.993  0.00  0.00    +0.000 A 
ATOM     20  C   UNL     1     113.974 129.430 135.682  0.00  0.00    +0.000 A 
ATOM     21  C   UNL     1     113.797 129.924 136.318  0.00  0.00    +0.000 A 
BRANCH  19  22
ATOM     22  O   UNL     1     113.261 130.109 137.629  0.00  0.00    +0.000 OA
ATOM     23  C   UNL     1     113.398 129.852 138.402  0.00  0.00    +0.000 C 
ENDBRANCH  19  22
BRANCH  20  24
ATOM     24  O   UNL     1     114.333 129.740 135.006  0.00  0.00    +0.000 OA
ATOM     25  C   UNL     1     114.914 129.307 134.612  0.00  0.00    +0.000 C 
ENDBRANCH  20  24
ENDBRANCH   6  16
BRANCH   9  26
ATOM     26  O   UNL     1     111.950 127.780 135.912  0.00  0.00    +0.000 OA
ATOM     27  C   UNL     1     111.306 127.511 135.474  0.00  0.00    +0.000 C 
ENDBRANCH   9  26
TORSDOF 4
ENDMDL
MODEL 6
REMARK VINA RESULT:      -7.9     11.986     13.884
REMARK  Name = 44258042
REMARK  4 active torsions:
REMARK  status: ('A' for Active; 'I' for Inactive)
REMARK    1  A    between atoms: O_2  and  C_14
REMARK    2  A    between atoms: O_4  and  C_22
REMARK    3  A    between atoms: O_5  and  C_23
REMARK    4  A    between atoms: C_10  and  C_13
REMARK                            x       y       z     vdW  Elec       q    Type
REMARK                         _______ _______ _______ _____ _____    ______ ____
ROOT
ATOM      1  O   UNL     1     113.461 127.441 136.141  0.00  0.00    +0.000 OA
ATOM      2  O   UNL     1     113.280 129.952 137.559  0.00  0.00    +0.000 OA
ATOM      3  O   UNL     1     112.735 128.740 138.119  0.00  0.00    +0.000 OA
ATOM      4  O   UNL     1     114.088 130.735 136.298  0.00  0.00    +0.000 OA
ATOM      5  O   UNL     1     114.584 129.848 134.947  0.00  0.00    +0.000 OA
ATOM      6  C   UNL     1     113.066 127.064 136.761  0.00  0.00    +0.000 A 
ATOM      7  C   UNL     1     113.372 128.684 136.842  0.00  0.00    +0.000 A 
ATOM      8  C   UNL     1     113.614 128.250 136.182  0.00  0.00    +0.000 A 
ATOM      9  C   UNL     1     112.824 127.497 137.420  0.00  0.00    +0.000 A 
ATOM     10  C   UNL     1     112.977 128.307 137.460  0.00  0.00    +0.000 A 
ATOM     11  C   UNL     1     113.526 129.528 136.896  0.00  0.00    +0.000 A 
ATOM     12  C   UNL     1     114.026 128.632 135.531  0.00  0.00    +0.000 A 
ATOM     13  C   UNL     1     113.936 129.925 136.255  0.00  0.00    +0.000 A 
ATOM     14  C   UNL     1     114.188 129.474 135.568  0.00  0.00    +0.000 A 
ENDROOT
BRANCH   6  16
ATOM     15  O   UNL     1     112.452 123.826 136.595  0.00  0.00    +0.000 OA
ATOM     16  C   UNL     1     112.913 126.255 136.720  0.00  0.00    +0.000 A 
ATOM     17  C   UNL     1     112.191 125.986 136.422  0.00  0.00    +0.000 A 
ATOM     18  C   UNL     1     113.481 125.714 136.975  0.00  0.00    +0.000 A 
ATOM     19  C   UNL     1     113.327 124.904 136.934  0.00  0.00    +0.000 A 
ATOM     20  C   UNL     1     112.038 125.177 136.381  0.00  0.00    +0.000 A 
ATOM     21  C   UNL     1     112.606 124.635 136.637  0.00  0.00    +0.000 A 
BRANCH  19  22
ATOM     22  O   UNL     1     113.894 124.363 137.189  0.00  0.00    +0.000 OA
ATOM     23  C   UNL     1     114.678 124.603 137.289  0.00  0.00    +0.000 C 
ENDBRANCH  19  22
BRANCH  20  24
ATOM     24  O   UNL     1     111.316 124.908 136.083  0.00  0.00    +0.000 OA
ATOM     25  C   UNL     1     110.913 125.351 135.517  0.00  0.00    +0.000 C 
ENDBRANCH  20  24
ENDBRANCH   6  16
BRANCH   9  26
ATOM     26  O   UNL     1     112.429 127.121 138.038  0.00  0.00    +0.000 OA
ATOM     27  C   UNL     1     112.416 127.463 138.788  0.00  0.00    +0.000 C 
ENDBRANCH   9  26
TORSDOF 4
ENDMDL
MODEL 7
REMARK VINA RESULT:      -7.9      1.524      4.514
REMARK  Name = 44258042
REMARK  4 active torsions:
REMARK  status: ('A' for Active; 'I' for Inactive)
REMARK    1  A    between atoms: O_2  and  C_14
REMARK    2  A    between atoms: O_4  and  C_22
REMARK    3  A    between atoms: O_5  and  C_23
REMARK    4  A    between atoms: C_10  and  C_13
REMARK                            x       y       z     vdW  Elec       q    Type
REMARK                         _______ _______ _______ _____ _____    ______ ____
ROOT
ATOM      1  O   UNL     1     104.686 124.829 148.382  0.00  0.00    +0.000 OA
ATOM      2  O   UNL     1     102.673 126.499 149.611  0.00  0.00    +0.000 OA
ATOM      3  O   UNL     1     103.997 127.004 149.341  0.00  0.00    +0.000 OA
ATOM      4  O   UNL     1     101.565 125.225 149.551  0.00  0.00    +0.000 OA
ATOM      5  O   UNL     1     102.035 123.740 148.896  0.00  0.00    +0.000 OA
ATOM      6  C   UNL     1     105.224 125.456 148.414  0.00  0.00    +0.000 A 
ATOM      7  C   UNL     1     103.690 125.654 148.990  0.00  0.00    +0.000 A 
ATOM      8  C   UNL     1     103.920 124.929 148.670  0.00  0.00    +0.000 A 
ATOM      9  C   UNL     1     104.994 126.180 148.734  0.00  0.00    +0.000 A 
ATOM     10  C   UNL     1     104.227 126.279 149.022  0.00  0.00    +0.000 A 
ATOM     11  C   UNL     1     102.894 125.770 149.293  0.00  0.00    +0.000 A 
ATOM     12  C   UNL     1     103.370 124.270 148.631  0.00  0.00    +0.000 A 
ATOM     13  C   UNL     1     102.331 125.122 149.262  0.00  0.00    +0.000 A 
ATOM     14  C   UNL     1     102.570 124.368 148.930  0.00  0.00    +0.000 A 
ENDROOT
BRANCH   6  16
ATOM     15  O   UNL     1     108.291 125.054 147.264  0.00  0.00    +0.000 OA
ATOM     16  C   UNL     1     105.990 125.355 148.126  0.00  0.00    +0.000 A 
ATOM     17  C   UNL     1     106.582 125.063 148.622  0.00  0.00    +0.000 A 
ATOM     18  C   UNL     1     106.166 125.548 147.343  0.00  0.00    +0.000 A 
ATOM     19  C   UNL     1     106.933 125.447 147.056  0.00  0.00    +0.000 A 
ATOM     20  C   UNL     1     107.348 124.963 148.334  0.00  0.00    +0.000 A 
ATOM     21  C   UNL     1     107.524 125.155 147.551  0.00  0.00    +0.000 A 
BRANCH  19  22
ATOM     22  O   UNL     1     107.108 125.639 146.273  0.00  0.00    +0.000 OA
ATOM     23  C   UNL     1     106.524 125.580 145.693  0.00  0.00    +0.000 C 
ENDBRANCH  19  22
BRANCH  20  24
ATOM     24  O   UNL     1     107.940 124.670 148.830  0.00  0.00    +0.000 OA
ATOM     25  C   UNL     1     107.738 124.297 149.538  0.00  0.00    +0.000 C 
ENDBRANCH  20  24
ENDBRANCH   6  16
BRANCH   9  26
ATOM     26  O   UNL     1     105.531 126.805 148.766  0.00  0.00    +0.000 OA
ATOM     27  C   UNL     1     105.272 127.561 148.972  0.00  0.00    +0.000 C 
ENDBRANCH   9  26
TORSDOF 4
ENDMDL
MODEL 8
REMARK VINA RESULT:      -7.7      8.673     10.344
REMARK  Name = 44258042
REMARK  4 active torsions:
REMARK  status: ('A' for Active; 'I' for Inactive)
REMARK    1  A    between atoms: O_2  and  C_14
REMARK    2  A    between atoms: O_4  and  C_22
REMARK    3  A    between atoms: O_5  and  C_23
REMARK    4  A    between atoms: C_10  and  C_13
REMARK                            x       y       z     vdW  Elec       q    Type
REMARK                         _______ _______ _______ _____ _____    ______ ____
ROOT
ATOM      1  O   UNL     1     111.423 131.188 145.551  0.00  0.00    +0.000 OA
ATOM      2  O   UNL     1     112.269 131.035 142.792  0.00  0.00    +0.000 OA
ATOM      3  O   UNL     1     112.280 132.288 143.506  0.00  0.00    +0.000 OA
ATOM      4  O   UNL     1     111.958 129.374 142.777  0.00  0.00    +0.000 OA
ATOM      5  O   UNL     1     111.372 128.623 144.174  0.00  0.00    +0.000 OA
ATOM      6  C   UNL     1     111.576 132.000 145.552  0.00  0.00    +0.000 A 
ATOM      7  C   UNL     1     111.841 131.112 144.186  0.00  0.00    +0.000 A 
ATOM      8  C   UNL     1     111.555 130.745 144.868  0.00  0.00    +0.000 A 
ATOM      9  C   UNL     1     111.862 132.366 144.870  0.00  0.00    +0.000 A 
ATOM     10  C   UNL     1     111.994 131.922 144.187  0.00  0.00    +0.000 A 
ATOM     11  C   UNL     1     111.983 130.660 143.469  0.00  0.00    +0.000 A 
ATOM     12  C   UNL     1     111.391 129.901 144.879  0.00  0.00    +0.000 A 
ATOM     13  C   UNL     1     111.824 129.816 143.461  0.00  0.00    +0.000 A 
ATOM     14  C   UNL     1     111.527 129.434 144.171  0.00  0.00    +0.000 A 
ENDROOT
BRANCH   6  16
ATOM     15  O   UNL     1     111.049 133.773 148.284  0.00  0.00    +0.000 OA
ATOM     16  C   UNL     1     111.444 132.443 146.234  0.00  0.00    +0.000 A 
ATOM     17  C   UNL     1     112.033 132.499 146.810  0.00  0.00    +0.000 A 
ATOM     18  C   UNL     1     110.723 132.830 146.342  0.00  0.00    +0.000 A 
ATOM     19  C   UNL     1     110.592 133.273 147.026  0.00  0.00    +0.000 A 
ATOM     20  C   UNL     1     111.901 132.943 147.493  0.00  0.00    +0.000 A 
ATOM     21  C   UNL     1     111.180 133.330 147.601  0.00  0.00    +0.000 A 
BRANCH  19  22
ATOM     22  O   UNL     1     109.872 133.660 147.134  0.00  0.00    +0.000 OA
ATOM     23  C   UNL     1     109.166 133.282 146.933  0.00  0.00    +0.000 C 
ENDBRANCH  19  22
BRANCH  20  24
ATOM     24  O   UNL     1     112.490 132.999 148.068  0.00  0.00    +0.000 OA
ATOM     25  C   UNL     1     112.983 132.355 148.218  0.00  0.00    +0.000 C 
ENDBRANCH  20  24
ENDBRANCH   6  16
BRANCH   9  26
ATOM     26  O   UNL     1     112.016 133.176 144.871  0.00  0.00    +0.000 OA
ATOM     27  C   UNL     1     112.193 133.564 144.165  0.00  0.00    +0.000 C 
ENDBRANCH   9  26
TORSDOF 4
ENDMDL
MODEL 9
REMARK VINA RESULT:      -7.6     10.302     12.468
REMARK  Name = 44258042
REMARK  4 active torsions:
REMARK  status: ('A' for Active; 'I' for Inactive)
REMARK    1  A    between atoms: O_2  and  C_14
REMARK    2  A    between atoms: O_4  and  C_22
REMARK    3  A    between atoms: O_5  and  C_23
REMARK    4  A    between atoms: C_10  and  C_13
REMARK                            x       y       z     vdW  Elec       q    Type
REMARK                         _______ _______ _______ _____ _____    ______ ____
ROOT
ATOM      1  O   UNL     1     113.373 126.268 138.154  0.00  0.00    +0.000 OA
ATOM      2  O   UNL     1     111.337 124.307 137.556  0.00  0.00    +0.000 OA
ATOM      3  O   UNL     1     111.138 125.296 138.587  0.00  0.00    +0.000 OA
ATOM      4  O   UNL     1     112.319 123.639 136.354  0.00  0.00    +0.000 OA
ATOM      5  O   UNL     1     113.844 124.303 136.058  0.00  0.00    +0.000 OA
ATOM      6  C   UNL     1     112.888 126.591 138.740  0.00  0.00    +0.000 A 
ATOM      7  C   UNL     1     112.366 125.298 137.858  0.00  0.00    +0.000 A 
ATOM      8  C   UNL     1     113.111 125.622 137.714  0.00  0.00    +0.000 A 
ATOM      9  C   UNL     1     112.143 126.266 138.885  0.00  0.00    +0.000 A 
ATOM     10  C   UNL     1     111.883 125.620 138.443  0.00  0.00    +0.000 A 
ATOM     11  C   UNL     1     112.083 124.625 137.404  0.00  0.00    +0.000 A 
ATOM     12  C   UNL     1     113.624 125.295 137.106  0.00  0.00    +0.000 A 
ATOM     13  C   UNL     1     112.582 124.285 136.794  0.00  0.00    +0.000 A 
ATOM     14  C   UNL     1     113.358 124.622 136.643  0.00  0.00    +0.000 A 
ENDROOT
BRANCH   6  16
ATOM     15  O   UNL     1     113.934 129.177 140.503  0.00  0.00    +0.000 OA
ATOM     16  C   UNL     1     113.150 127.237 139.181  0.00  0.00    +0.000 A 
ATOM     17  C   UNL     1     112.984 128.004 138.926  0.00  0.00    +0.000 A 
ATOM     18  C   UNL     1     113.576 127.116 139.877  0.00  0.00    +0.000 A 
ATOM     19  C   UNL     1     113.838 127.764 140.317  0.00  0.00    +0.000 A 
ATOM     20  C   UNL     1     113.246 128.650 139.367  0.00  0.00    +0.000 A 
ATOM     21  C   UNL     1     113.673 128.530 140.062  0.00  0.00    +0.000 A 
BRANCH  19  22
ATOM     22  O   UNL     1     114.264 127.644 141.013  0.00  0.00    +0.000 OA
ATOM     23  C   UNL     1     114.804 127.021 141.064  0.00  0.00    +0.000 C 
ENDBRANCH  19  22
BRANCH  20  24
ATOM     24  O   UNL     1     113.080 129.418 139.111  0.00  0.00    +0.000 OA
ATOM     25  C   UNL     1     113.116 129.602 138.308  0.00  0.00    +0.000 C 
ENDBRANCH  20  24
ENDBRANCH   6  16
BRANCH   9  26
ATOM     26  O   UNL     1     111.660 126.588 139.470  0.00  0.00    +0.000 OA
ATOM     27  C   UNL     1     110.882 126.326 139.553  0.00  0.00    +0.000 C 
ENDBRANCH   9  26
TORSDOF 4
ENDMDL
MODEL 10
REMARK VINA RESULT:      -7.5      9.650     11.466
REMARK  Name = 44258042
REMARK  4 active torsions:
REMARK  status: ('A' for Active; 'I' for Inactive)
REMARK    1  A    between atoms: O_2  and  C_14
REMARK    2  A    between atoms: O_4  and  C_22
REMARK    3  A    between atoms: O_5  and  C_23
REMARK    4  A    between atoms: C_10  and  C_13
REMARK                            x       y       z     vdW  Elec       q    Type
REMARK                         _______ _______ _______ _____ _____    ______ ____
ROOT
ATOM      1  O   UNL     1     112.526 126.233 138.610  0.00  0.00    +0.000 OA
ATOM      2  O   UNL     1     111.725 126.814 141.325  0.00  0.00    +0.000 OA
ATOM      3  O   UNL     1     110.785 126.282 140.368  0.00  0.00    +0.000 OA
ATOM      4  O   UNL     1     113.290 127.339 141.686  0.00  0.00    +0.000 OA
ATOM      5  O   UNL     1     114.479 127.306 140.485  0.00  0.00    +0.000 OA
ATOM      6  C   UNL     1     111.759 125.977 138.439  0.00  0.00    +0.000 A 
ATOM      7  C   UNL     1     112.131 126.521 139.953  0.00  0.00    +0.000 A 
ATOM      8  C   UNL     1     112.711 126.504 139.367  0.00  0.00    +0.000 A 
ATOM      9  C   UNL     1     111.179 125.994 139.026  0.00  0.00    +0.000 A 
ATOM     10  C   UNL     1     111.365 126.265 139.782  0.00  0.00    +0.000 A 
ATOM     11  C   UNL     1     112.312 126.801 140.745  0.00  0.00    +0.000 A 
ATOM     12  C   UNL     1     113.512 126.767 139.532  0.00  0.00    +0.000 A 
ATOM     13  C   UNL     1     113.107 127.068 140.928  0.00  0.00    +0.000 A 
ATOM     14  C   UNL     1     113.711 127.051 140.318  0.00  0.00    +0.000 A 
ENDROOT
BRANCH   6  16
ATOM     15  O   UNL     1     111.021 124.889 135.413  0.00  0.00    +0.000 OA
ATOM     16  C   UNL     1     111.575 125.706 137.683  0.00  0.00    +0.000 A 
ATOM     17  C   UNL     1     111.663 124.906 137.499  0.00  0.00    +0.000 A 
ATOM     18  C   UNL     1     111.302 126.233 137.110  0.00  0.00    +0.000 A 
ATOM     19  C   UNL     1     111.117 125.960 136.353  0.00  0.00    +0.000 A 
ATOM     20  C   UNL     1     111.478 124.634 136.742  0.00  0.00    +0.000 A 
ATOM     21  C   UNL     1     111.205 125.162 136.170  0.00  0.00    +0.000 A 
BRANCH  19  22
ATOM     22  O   UNL     1     110.845 126.488 135.780  0.00  0.00    +0.000 OA
ATOM     23  C   UNL     1     111.135 127.261 135.759  0.00  0.00    +0.000 C 
ENDBRANCH  19  22
BRANCH  20  24
ATOM     24  O   UNL     1     111.566 123.834 136.559  0.00  0.00    +0.000 OA
ATOM     25  C   UNL     1     112.201 123.407 136.867  0.00  0.00    +0.000 C 
ENDBRANCH  20  24
ENDBRANCH   6  16
BRANCH   9  26
ATOM     26  O   UNL     1     110.414 125.739 138.855  0.00  0.00    +0.000 OA
ATOM     27  C   UNL     1     109.784 125.979 139.330  0.00  0.00    +0.000 C 
ENDBRANCH   9  26
TORSDOF 4
ENDMDL
