MODEL 1
REMARK VINA RESULT:      -9.4      0.000      0.000
REMARK  Name = 5315115
REMARK  2 active torsions:
REMARK  status: ('A' for Active; 'I' for Inactive)
REMARK    1  A    between atoms: O_4  and  C_20
REMARK    2  A    between atoms: C_19  and  C_21
REMARK                            x       y       z     vdW  Elec       q    Type
REMARK                         _______ _______ _______ _____ _____    ______ ____
ROOT
ATOM      1  O   UNL     1     111.306 124.389 136.054  0.00  0.00    +0.000 OA
ATOM      2  O   UNL     1     112.156 127.031 135.998  0.00  0.00    +0.000 OA
ATOM      3  O   UNL     1     109.694 126.373 134.627  0.00  0.00    +0.000 OA
ATOM      4  O   UNL     1     110.157 127.739 134.612  0.00  0.00    +0.000 OA
ATOM      5  C   UNL     1     112.217 125.284 136.419  0.00  0.00    +0.000 C 
ATOM      6  C   UNL     1     112.009 124.492 136.465  0.00  0.00    +0.000 C 
ATOM      7  C   UNL     1     111.643 125.672 135.980  0.00  0.00    +0.000 A 
ATOM      8  C   UNL     1     111.077 125.116 135.754  0.00  0.00    +0.000 A 
ATOM      9  C   UNL     1     112.892 125.131 136.868  0.00  0.00    +0.000 C 
ATOM     10  C   UNL     1     112.625 125.994 136.515  0.00  0.00    +0.000 C 
ATOM     11  C   UNL     1     111.559 126.462 135.756  0.00  0.00    +0.000 A 
ATOM     12  C   UNL     1     112.433 123.901 136.855  0.00  0.00    +0.000 C 
ATOM     13  C   UNL     1     110.909 126.695 135.304  0.00  0.00    +0.000 A 
ATOM     14  C   UNL     1     110.427 125.351 135.302  0.00  0.00    +0.000 A 
ATOM     15  C   UNL     1     110.343 126.139 135.078  0.00  0.00    +0.000 A 
ATOM     16  C   UNL     1     110.810 127.514 135.064  0.00  0.00    +0.000 A 
ATOM     17  C   UNL     1     112.073 127.855 135.767  0.00  0.00    +0.000 A 
ATOM     18  C   UNL     1     111.397 128.098 135.297  0.00  0.00    +0.000 A 
ENDROOT
BRANCH  17  20
ATOM     19  O   UNL     1     114.343 130.070 136.679  0.00  0.00    +0.000 OA
ATOM     20  C   UNL     1     112.641 128.409 135.995  0.00  0.00    +0.000 A 
ATOM     21  C   UNL     1     112.569 128.799 136.718  0.00  0.00    +0.000 A 
ATOM     22  C   UNL     1     113.281 128.572 135.500  0.00  0.00    +0.000 A 
ATOM     23  C   UNL     1     113.136 129.353 136.946  0.00  0.00    +0.000 A 
ATOM     24  C   UNL     1     113.848 129.126 135.728  0.00  0.00    +0.000 A 
ATOM     25  C   UNL     1     113.776 129.516 136.451  0.00  0.00    +0.000 A 
ENDBRANCH  17  20
BRANCH  18  26
ATOM     26  O   UNL     1     111.310 128.887 135.071  0.00  0.00    +0.000 OA
ATOM     27  C   UNL     1     110.563 129.181 134.878  0.00  0.00    +0.000 C 
ENDBRANCH  18  26
TORSDOF 2
ENDMDL
MODEL 2
REMARK VINA RESULT:      -9.3      1.158      3.382
REMARK  Name = 5315115
REMARK  2 active torsions:
REMARK  status: ('A' for Active; 'I' for Inactive)
REMARK    1  A    between atoms: O_4  and  C_20
REMARK    2  A    between atoms: C_19  and  C_21
REMARK                            x       y       z     vdW  Elec       q    Type
REMARK                         _______ _______ _______ _____ _____    ______ ____
ROOT
ATOM      1  O   UNL     1     110.704 128.394 134.612  0.00  0.00    +0.000 OA
ATOM      2  O   UNL     1     112.220 126.638 136.137  0.00  0.00    +0.000 OA
ATOM      3  O   UNL     1     109.864 125.597 134.819  0.00  0.00    +0.000 OA
ATOM      4  O   UNL     1     110.669 124.705 135.618  0.00  0.00    +0.000 OA
ATOM      5  C   UNL     1     111.766 128.209 135.388  0.00  0.00    +0.000 C 
ATOM      6  C   UNL     1     111.353 128.766 134.951  0.00  0.00    +0.000 C 
ATOM      7  C   UNL     1     111.374 127.491 135.321  0.00  0.00    +0.000 A 
ATOM      8  C   UNL     1     110.715 127.607 134.839  0.00  0.00    +0.000 A 
ATOM      9  C   UNL     1     112.315 128.786 135.602  0.00  0.00    +0.000 C 
ATOM     10  C   UNL     1     112.332 127.855 135.873  0.00  0.00    +0.000 C 
ATOM     11  C   UNL     1     111.530 126.744 135.636  0.00  0.00    +0.000 A 
ATOM     12  C   UNL     1     111.554 129.562 134.866  0.00  0.00    +0.000 C 
ATOM     13  C   UNL     1     111.026 126.113 135.468  0.00  0.00    +0.000 A 
ATOM     14  C   UNL     1     110.212 126.974 134.672  0.00  0.00    +0.000 A 
ATOM     15  C   UNL     1     110.367 126.228 134.986  0.00  0.00    +0.000 A 
ATOM     16  C   UNL     1     111.177 125.331 135.790  0.00  0.00    +0.000 A 
ATOM     17  C   UNL     1     112.388 125.863 136.468  0.00  0.00    +0.000 A 
ATOM     18  C   UNL     1     111.863 125.205 136.293  0.00  0.00    +0.000 A 
ENDROOT
BRANCH  17  20
ATOM     19  O   UNL     1     115.028 125.414 138.395  0.00  0.00    +0.000 OA
ATOM     20  C   UNL     1     113.048 125.750 136.950  0.00  0.00    +0.000 A 
ATOM     21  C   UNL     1     112.986 125.859 137.765  0.00  0.00    +0.000 A 
ATOM     22  C   UNL     1     113.770 125.529 136.616  0.00  0.00    +0.000 A 
ATOM     23  C   UNL     1     113.646 125.747 138.247  0.00  0.00    +0.000 A 
ATOM     24  C   UNL     1     114.430 125.417 137.098  0.00  0.00    +0.000 A 
ATOM     25  C   UNL     1     114.368 125.526 137.913  0.00  0.00    +0.000 A 
ENDBRANCH  17  20
BRANCH  18  26
ATOM     26  O   UNL     1     112.017 124.457 136.607  0.00  0.00    +0.000 OA
ATOM     27  C   UNL     1     111.690 123.787 136.252  0.00  0.00    +0.000 C 
ENDBRANCH  18  26
TORSDOF 2
ENDMDL
MODEL 3
REMARK VINA RESULT:      -9.2      0.878      1.188
REMARK  Name = 5315115
REMARK  2 active torsions:
REMARK  status: ('A' for Active; 'I' for Inactive)
REMARK    1  A    between atoms: O_4  and  C_20
REMARK    2  A    between atoms: C_19  and  C_21
REMARK                            x       y       z     vdW  Elec       q    Type
REMARK                         _______ _______ _______ _____ _____    ______ ____
ROOT
ATOM      1  O   UNL     1     112.839 124.474 136.738  0.00  0.00    +0.000 OA
ATOM      2  O   UNL     1     113.148 127.195 136.283  0.00  0.00    +0.000 OA
ATOM      3  O   UNL     1     110.590 126.000 135.651  0.00  0.00    +0.000 OA
ATOM      4  O   UNL     1     110.776 127.413 135.424  0.00  0.00    +0.000 OA
ATOM      5  C   UNL     1     113.631 125.538 136.790  0.00  0.00    +0.000 C 
ATOM      6  C   UNL     1     113.590 124.733 136.942  0.00  0.00    +0.000 C 
ATOM      7  C   UNL     1     112.906 125.778 136.492  0.00  0.00    +0.000 A 
ATOM      8  C   UNL     1     112.414 125.117 136.459  0.00  0.00    +0.000 A 
ATOM      9  C   UNL     1     114.412 125.547 137.057  0.00  0.00    +0.000 C 
ATOM     10  C   UNL     1     113.913 126.311 136.728  0.00  0.00    +0.000 C 
ATOM     11  C   UNL     1     112.626 126.514 136.244  0.00  0.00    +0.000 A 
ATOM     12  C   UNL     1     114.198 124.266 137.247  0.00  0.00    +0.000 C 
ATOM     13  C   UNL     1     111.853 126.587 135.964  0.00  0.00    +0.000 A 
ATOM     14  C   UNL     1     111.642 125.191 136.179  0.00  0.00    +0.000 A 
ATOM     15  C   UNL     1     111.361 125.926 135.931  0.00  0.00    +0.000 A 
ATOM     16  C   UNL     1     111.549 127.348 135.703  0.00  0.00    +0.000 A 
ATOM     17  C   UNL     1     112.862 127.963 136.027  0.00  0.00    +0.000 A 
ATOM     18  C   UNL     1     112.058 128.041 135.735  0.00  0.00    +0.000 A 
ENDROOT
BRANCH  17  20
ATOM     19  O   UNL     1     114.839 130.602 136.162  0.00  0.00    +0.000 OA
ATOM     20  C   UNL     1     113.356 128.623 136.060  0.00  0.00    +0.000 A 
ATOM     21  C   UNL     1     113.349 129.110 136.726  0.00  0.00    +0.000 A 
ATOM     22  C   UNL     1     113.858 128.796 135.428  0.00  0.00    +0.000 A 
ATOM     23  C   UNL     1     113.843 129.770 136.760  0.00  0.00    +0.000 A 
ATOM     24  C   UNL     1     114.352 129.456 135.462  0.00  0.00    +0.000 A 
ATOM     25  C   UNL     1     114.344 129.942 136.128  0.00  0.00    +0.000 A 
ENDBRANCH  17  20
BRANCH  18  26
ATOM     26  O   UNL     1     111.775 128.775 135.486  0.00  0.00    +0.000 OA
ATOM     27  C   UNL     1     111.147 128.815 134.952  0.00  0.00    +0.000 C 
ENDBRANCH  18  26
TORSDOF 2
ENDMDL
MODEL 4
REMARK VINA RESULT:      -9.2     10.490     11.323
REMARK  Name = 5315115
REMARK  2 active torsions:
REMARK  status: ('A' for Active; 'I' for Inactive)
REMARK    1  A    between atoms: O_4  and  C_20
REMARK    2  A    between atoms: C_19  and  C_21
REMARK                            x       y       z     vdW  Elec       q    Type
REMARK                         _______ _______ _______ _____ _____    ______ ____
ROOT
ATOM      1  O   UNL     1     105.144 128.562 143.723  0.00  0.00    +0.000 OA
ATOM      2  O   UNL     1     103.332 130.183 142.384  0.00  0.00    +0.000 OA
ATOM      3  O   UNL     1     104.348 127.856 140.996  0.00  0.00    +0.000 OA
ATOM      4  O   UNL     1     103.405 128.715 140.321  0.00  0.00    +0.000 OA
ATOM      5  C   UNL     1     104.374 129.644 143.746  0.00  0.00    +0.000 C 
ATOM      6  C   UNL     1     104.906 129.198 144.184  0.00  0.00    +0.000 C 
ATOM      7  C   UNL     1     104.283 129.285 143.015  0.00  0.00    +0.000 A 
ATOM      8  C   UNL     1     104.761 128.613 143.000  0.00  0.00    +0.000 A 
ATOM      9  C   UNL     1     104.297 130.168 144.378  0.00  0.00    +0.000 C 
ATOM     10  C   UNL     1     103.841 130.233 143.524  0.00  0.00    +0.000 C 
ATOM     11  C   UNL     1     103.826 129.480 142.356  0.00  0.00    +0.000 A 
ATOM     12  C   UNL     1     105.157 129.360 144.953  0.00  0.00    +0.000 C 
ATOM     13  C   UNL     1     103.848 129.004 141.683  0.00  0.00    +0.000 A 
ATOM     14  C   UNL     1     104.783 128.137 142.327  0.00  0.00    +0.000 A 
ATOM     15  C   UNL     1     104.327 128.332 141.668  0.00  0.00    +0.000 A 
ATOM     16  C   UNL     1     103.377 129.196 140.990  0.00  0.00    +0.000 A 
ATOM     17  C   UNL     1     102.854 130.391 141.700  0.00  0.00    +0.000 A 
ATOM     18  C   UNL     1     102.876 129.896 141.000  0.00  0.00    +0.000 A 
ENDROOT
BRANCH  17  20
ATOM     19  O   UNL     1     100.943 133.081 141.769  0.00  0.00    +0.000 OA
ATOM     20  C   UNL     1     102.376 131.064 141.718  0.00  0.00    +0.000 A 
ATOM     21  C   UNL     1     102.678 131.790 141.469  0.00  0.00    +0.000 A 
ATOM     22  C   UNL     1     101.597 131.010 141.984  0.00  0.00    +0.000 A 
ATOM     23  C   UNL     1     102.200 132.463 141.486  0.00  0.00    +0.000 A 
ATOM     24  C   UNL     1     101.119 131.683 142.001  0.00  0.00    +0.000 A 
ATOM     25  C   UNL     1     101.421 132.409 141.752  0.00  0.00    +0.000 A 
ENDBRANCH  17  20
BRANCH  18  26
ATOM     26  O   UNL     1     102.421 130.089 140.339  0.00  0.00    +0.000 OA
ATOM     27  C   UNL     1     102.226 129.505 139.789  0.00  0.00    +0.000 C 
ENDBRANCH  18  26
TORSDOF 2
ENDMDL
MODEL 5
REMARK VINA RESULT:      -9.1      1.260      2.953
REMARK  Name = 5315115
REMARK  2 active torsions:
REMARK  status: ('A' for Active; 'I' for Inactive)
REMARK    1  A    between atoms: O_4  and  C_20
REMARK    2  A    between atoms: C_19  and  C_21
REMARK                            x       y       z     vdW  Elec       q    Type
REMARK                         _______ _______ _______ _____ _____    ______ ____
ROOT
ATOM      1  O   UNL     1     109.809 127.132 134.612  0.00  0.00    +0.000 OA
ATOM      2  O   UNL     1     112.192 126.770 135.989  0.00  0.00    +0.000 OA
ATOM      3  O   UNL     1     111.586 129.424 135.008  0.00  0.00    +0.000 OA
ATOM      4  O   UNL     1     112.819 129.210 135.727  0.00  0.00    +0.000 OA
ATOM      5  C   UNL     1     110.620 126.299 135.255  0.00  0.00    +0.000 C 
ATOM      6  C   UNL     1     109.905 126.354 134.855  0.00  0.00    +0.000 C 
ATOM      7  C   UNL     1     110.966 127.042 135.259  0.00  0.00    +0.000 A 
ATOM      8  C   UNL     1     110.462 127.559 134.860  0.00  0.00    +0.000 A 
ATOM      9  C   UNL     1     110.485 125.495 135.380  0.00  0.00    +0.000 C 
ATOM     10  C   UNL     1     111.261 125.997 135.676  0.00  0.00    +0.000 C 
ATOM     11  C   UNL     1     111.677 127.319 135.575  0.00  0.00    +0.000 A 
ATOM     12  C   UNL     1     109.376 125.735 134.722  0.00  0.00    +0.000 C 
ATOM     13  C   UNL     1     111.883 128.113 135.491  0.00  0.00    +0.000 A 
ATOM     14  C   UNL     1     110.670 128.353 134.776  0.00  0.00    +0.000 A 
ATOM     15  C   UNL     1     111.379 128.631 135.092  0.00  0.00    +0.000 A 
ATOM     16  C   UNL     1     112.620 128.414 135.815  0.00  0.00    +0.000 A 
ATOM     17  C   UNL     1     112.933 127.053 136.320  0.00  0.00    +0.000 A 
ATOM     18  C   UNL     1     113.149 127.880 136.232  0.00  0.00    +0.000 A 
ENDROOT
BRANCH  17  20
ATOM     19  O   UNL     1     114.940 124.975 137.915  0.00  0.00    +0.000 OA
ATOM     20  C   UNL     1     113.435 126.533 136.718  0.00  0.00    +0.000 A 
ATOM     21  C   UNL     1     113.366 126.439 137.535  0.00  0.00    +0.000 A 
ATOM     22  C   UNL     1     114.006 126.108 136.301  0.00  0.00    +0.000 A 
ATOM     23  C   UNL     1     113.868 125.920 137.934  0.00  0.00    +0.000 A 
ATOM     24  C   UNL     1     114.507 125.588 136.700  0.00  0.00    +0.000 A 
ATOM     25  C   UNL     1     114.438 125.495 137.516  0.00  0.00    +0.000 A 
ENDBRANCH  17  20
BRANCH  18  26
ATOM     26  O   UNL     1     113.858 128.159 136.547  0.00  0.00    +0.000 OA
ATOM     27  C   UNL     1     114.169 128.878 136.286  0.00  0.00    +0.000 C 
ENDBRANCH  18  26
TORSDOF 2
ENDMDL
MODEL 6
REMARK VINA RESULT:      -9.1     13.618     14.264
REMARK  Name = 5315115
REMARK  2 active torsions:
REMARK  status: ('A' for Active; 'I' for Inactive)
REMARK    1  A    between atoms: O_4  and  C_20
REMARK    2  A    between atoms: C_19  and  C_21
REMARK                            x       y       z     vdW  Elec       q    Type
REMARK                         _______ _______ _______ _____ _____    ______ ____
ROOT
ATOM      1  O   UNL     1     102.304 124.051 146.759  0.00  0.00    +0.000 OA
ATOM      2  O   UNL     1     104.820 124.912 147.553  0.00  0.00    +0.000 OA
ATOM      3  O   UNL     1     102.520 126.027 148.909  0.00  0.00    +0.000 OA
ATOM      4  O   UNL     1     103.839 126.458 149.303  0.00  0.00    +0.000 OA
ATOM      5  C   UNL     1     103.619 123.975 146.598  0.00  0.00    +0.000 C 
ATOM      6  C   UNL     1     102.900 123.689 146.328  0.00  0.00    +0.000 C 
ATOM      7  C   UNL     1     103.470 124.514 147.197  0.00  0.00    +0.000 A 
ATOM      8  C   UNL     1     102.652 124.562 147.297  0.00  0.00    +0.000 A 
ATOM      9  C   UNL     1     104.012 123.497 146.052  0.00  0.00    +0.000 C 
ATOM     10  C   UNL     1     104.430 124.100 146.687  0.00  0.00    +0.000 C 
ATOM     11  C   UNL     1     103.971 124.971 147.668  0.00  0.00    +0.000 A 
ATOM     12  C   UNL     1     102.794 123.134 145.726  0.00  0.00    +0.000 C 
ATOM     13  C   UNL     1     103.654 125.475 148.238  0.00  0.00    +0.000 A 
ATOM     14  C   UNL     1     102.336 125.066 147.868  0.00  0.00    +0.000 A 
ATOM     15  C   UNL     1     102.836 125.523 148.338  0.00  0.00    +0.000 A 
ATOM     16  C   UNL     1     104.164 125.957 148.735  0.00  0.00    +0.000 A 
ATOM     17  C   UNL     1     105.347 125.386 148.040  0.00  0.00    +0.000 A 
ATOM     18  C   UNL     1     105.017 125.911 148.634  0.00  0.00    +0.000 A 
ENDROOT
BRANCH  17  20
ATOM     19  O   UNL     1     108.615 125.187 147.631  0.00  0.00    +0.000 OA
ATOM     20  C   UNL     1     106.164 125.336 147.938  0.00  0.00    +0.000 A 
ATOM     21  C   UNL     1     106.608 124.821 148.405  0.00  0.00    +0.000 A 
ATOM     22  C   UNL     1     106.538 125.802 147.368  0.00  0.00    +0.000 A 
ATOM     23  C   UNL     1     107.425 124.771 148.303  0.00  0.00    +0.000 A 
ATOM     24  C   UNL     1     107.355 125.752 147.266  0.00  0.00    +0.000 A 
ATOM     25  C   UNL     1     107.798 125.237 147.733  0.00  0.00    +0.000 A 
ENDBRANCH  17  20
BRANCH  18  26
ATOM     26  O   UNL     1     105.515 126.369 149.106  0.00  0.00    +0.000 OA
ATOM     27  C   UNL     1     105.243 127.080 149.425  0.00  0.00    +0.000 C 
ENDBRANCH  18  26
TORSDOF 2
ENDMDL
MODEL 7
REMARK VINA RESULT:      -9.1     13.503     14.285
REMARK  Name = 5315115
REMARK  2 active torsions:
REMARK  status: ('A' for Active; 'I' for Inactive)
REMARK    1  A    between atoms: O_4  and  C_20
REMARK    2  A    between atoms: C_19  and  C_21
REMARK                            x       y       z     vdW  Elec       q    Type
REMARK                         _______ _______ _______ _____ _____    ______ ____
ROOT
ATOM      1  O   UNL     1     101.145 122.740 146.918  0.00  0.00    +0.000 OA
ATOM      2  O   UNL     1     103.599 124.013 147.177  0.00  0.00    +0.000 OA
ATOM      3  O   UNL     1     102.955 122.823 144.619  0.00  0.00    +0.000 OA
ATOM      4  O   UNL     1     104.225 123.491 144.779  0.00  0.00    +0.000 OA
ATOM      5  C   UNL     1     101.985 123.413 147.696  0.00  0.00    +0.000 C 
ATOM      6  C   UNL     1     101.250 123.049 147.671  0.00  0.00    +0.000 C 
ATOM      7  C   UNL     1     102.336 123.329 146.960  0.00  0.00    +0.000 A 
ATOM      8  C   UNL     1     101.814 122.911 146.477  0.00  0.00    +0.000 A 
ATOM      9  C   UNL     1     101.853 123.620 148.484  0.00  0.00    +0.000 C 
ATOM     10  C   UNL     1     102.647 123.825 147.966  0.00  0.00    +0.000 C 
ATOM     11  C   UNL     1     103.064 123.578 146.663  0.00  0.00    +0.000 A 
ATOM     12  C   UNL     1     100.710 123.003 148.293  0.00  0.00    +0.000 C 
ATOM     13  C   UNL     1     103.270 123.410 145.882  0.00  0.00    +0.000 A 
ATOM     14  C   UNL     1     102.021 122.743 145.696  0.00  0.00    +0.000 A 
ATOM     15  C   UNL     1     102.749 122.992 145.399  0.00  0.00    +0.000 A 
ATOM     16  C   UNL     1     104.026 123.664 145.561  0.00  0.00    +0.000 A 
ATOM     17  C   UNL     1     104.358 124.275 146.873  0.00  0.00    +0.000 A 
ATOM     18  C   UNL     1     104.574 124.099 146.060  0.00  0.00    +0.000 A 
ENDROOT
BRANCH  17  20
ATOM     19  O   UNL     1     106.437 125.945 148.817  0.00  0.00    +0.000 OA
ATOM     20  C   UNL     1     104.878 124.692 147.359  0.00  0.00    +0.000 A 
ATOM     21  C   UNL     1     104.824 125.514 147.411  0.00  0.00    +0.000 A 
ATOM     22  C   UNL     1     105.453 124.289 147.793  0.00  0.00    +0.000 A 
ATOM     23  C   UNL     1     105.344 125.932 147.897  0.00  0.00    +0.000 A 
ATOM     24  C   UNL     1     105.972 124.706 148.279  0.00  0.00    +0.000 A 
ATOM     25  C   UNL     1     105.918 125.528 148.331  0.00  0.00    +0.000 A 
ENDBRANCH  17  20
BRANCH  18  26
ATOM     26  O   UNL     1     105.301 124.347 145.761  0.00  0.00    +0.000 OA
ATOM     27  C   UNL     1     105.413 124.404 144.945  0.00  0.00    +0.000 C 
ENDBRANCH  18  26
TORSDOF 2
ENDMDL
MODEL 8
REMARK VINA RESULT:      -9.0      2.836      4.083
REMARK  Name = 5315115
REMARK  2 active torsions:
REMARK  status: ('A' for Active; 'I' for Inactive)
REMARK    1  A    between atoms: O_4  and  C_20
REMARK    2  A    between atoms: C_19  and  C_21
REMARK                            x       y       z     vdW  Elec       q    Type
REMARK                         _______ _______ _______ _____ _____    ______ ____
ROOT
ATOM      1  O   UNL     1     111.857 126.961 140.758  0.00  0.00    +0.000 OA
ATOM      2  O   UNL     1     112.973 126.021 138.396  0.00  0.00    +0.000 OA
ATOM      3  O   UNL     1     110.115 125.738 138.748  0.00  0.00    +0.000 OA
ATOM      4  O   UNL     1     110.720 125.257 137.529  0.00  0.00    +0.000 OA
ATOM      5  C   UNL     1     112.950 126.786 140.024  0.00  0.00    +0.000 C 
ATOM      6  C   UNL     1     112.669 127.078 140.737  0.00  0.00    +0.000 C 
ATOM      7  C   UNL     1     112.313 126.487 139.603  0.00  0.00    +0.000 A 
ATOM      8  C   UNL     1     111.634 126.596 140.059  0.00  0.00    +0.000 A 
ATOM      9  C   UNL     1     113.716 127.007 140.237  0.00  0.00    +0.000 C 
ATOM     10  C   UNL     1     113.457 126.574 139.408  0.00  0.00    +0.000 C 
ATOM     11  C   UNL     1     112.259 126.128 138.861  0.00  0.00    +0.000 A 
ATOM     12  C   UNL     1     113.124 127.429 141.329  0.00  0.00    +0.000 C 
ATOM     13  C   UNL     1     111.526 125.879 138.577  0.00  0.00    +0.000 A 
ATOM     14  C   UNL     1     110.902 126.346 139.774  0.00  0.00    +0.000 A 
ATOM     15  C   UNL     1     110.847 125.988 139.033  0.00  0.00    +0.000 A 
ATOM     16  C   UNL     1     111.456 125.504 137.806  0.00  0.00    +0.000 A 
ATOM     17  C   UNL     1     112.923 125.648 137.624  0.00  0.00    +0.000 A 
ATOM     18  C   UNL     1     112.160 125.388 137.327  0.00  0.00    +0.000 A 
ENDROOT
BRANCH  17  20
ATOM     19  O   UNL     1     115.645 125.218 135.807  0.00  0.00    +0.000 OA
ATOM     20  C   UNL     1     113.604 125.541 137.170  0.00  0.00    +0.000 A 
ATOM     21  C   UNL     1     114.042 124.846 137.242  0.00  0.00    +0.000 A 
ATOM     22  C   UNL     1     113.846 126.128 136.643  0.00  0.00    +0.000 A 
ATOM     23  C   UNL     1     114.723 124.738 136.788  0.00  0.00    +0.000 A 
ATOM     24  C   UNL     1     114.527 126.021 136.189  0.00  0.00    +0.000 A 
ATOM     25  C   UNL     1     114.964 125.326 136.261  0.00  0.00    +0.000 A 
ENDBRANCH  17  20
BRANCH  18  26
ATOM     26  O   UNL     1     112.103 125.029 136.586  0.00  0.00    +0.000 OA
ATOM     27  C   UNL     1     111.362 124.843 136.274  0.00  0.00    +0.000 C 
ENDBRANCH  18  26
TORSDOF 2
ENDMDL
MODEL 9
REMARK VINA RESULT:      -8.9     13.075     14.179
REMARK  Name = 5315115
REMARK  2 active torsions:
REMARK  status: ('A' for Active; 'I' for Inactive)
REMARK    1  A    between atoms: O_4  and  C_20
REMARK    2  A    between atoms: C_19  and  C_21
REMARK                            x       y       z     vdW  Elec       q    Type
REMARK                         _______ _______ _______ _____ _____    ______ ____
ROOT
ATOM      1  O   UNL     1     106.505 125.693 148.266  0.00  0.00    +0.000 OA
ATOM      2  O   UNL     1     104.246 124.482 147.201  0.00  0.00    +0.000 OA
ATOM      3  O   UNL     1     106.548 124.804 145.478  0.00  0.00    +0.000 OA
ATOM      4  O   UNL     1     105.361 124.177 144.947  0.00  0.00    +0.000 OA
ATOM      5  C   UNL     1     105.258 125.277 148.456  0.00  0.00    +0.000 C 
ATOM      6  C   UNL     1     105.900 125.640 148.817  0.00  0.00    +0.000 C 
ATOM      7  C   UNL     1     105.466 125.106 147.682  0.00  0.00    +0.000 A 
ATOM      8  C   UNL     1     106.241 125.364 147.564  0.00  0.00    +0.000 A 
ATOM      9  C   UNL     1     104.829 125.341 149.158  0.00  0.00    +0.000 C 
ATOM     10  C   UNL     1     104.512 124.951 148.329  0.00  0.00    +0.000 C 
ATOM     11  C   UNL     1     105.052 124.747 147.065  0.00  0.00    +0.000 A 
ATOM     12  C   UNL     1     105.930 125.905 149.598  0.00  0.00    +0.000 C 
ATOM     13  C   UNL     1     105.413 124.646 146.330  0.00  0.00    +0.000 A 
ATOM     14  C   UNL     1     106.601 125.263 146.829  0.00  0.00    +0.000 A 
ATOM     15  C   UNL     1     106.188 124.904 146.212  0.00  0.00    +0.000 A 
ATOM     16  C   UNL     1     104.993 124.274 145.679  0.00  0.00    +0.000 A 
ATOM     17  C   UNL     1     103.810 124.108 146.562  0.00  0.00    +0.000 A 
ATOM     18  C   UNL     1     104.185 124.003 145.796  0.00  0.00    +0.000 A 
ENDROOT
BRANCH  17  20
ATOM     19  O   UNL     1     100.711 123.080 147.045  0.00  0.00    +0.000 OA
ATOM     20  C   UNL     1     103.035 123.851 146.683  0.00  0.00    +0.000 A 
ATOM     21  C   UNL     1     102.404 124.361 146.535  0.00  0.00    +0.000 A 
ATOM     22  C   UNL     1     102.891 123.084 146.950  0.00  0.00    +0.000 A 
ATOM     23  C   UNL     1     101.629 124.104 146.656  0.00  0.00    +0.000 A 
ATOM     24  C   UNL     1     102.117 122.827 147.071  0.00  0.00    +0.000 A 
ATOM     25  C   UNL     1     101.486 123.337 146.924  0.00  0.00    +0.000 A 
ENDBRANCH  17  20
BRANCH  18  26
ATOM     26  O   UNL     1     103.774 123.645 145.178  0.00  0.00    +0.000 OA
ATOM     27  C   UNL     1     104.142 123.066 144.718  0.00  0.00    +0.000 C 
ENDBRANCH  18  26
TORSDOF 2
ENDMDL
MODEL 10
REMARK VINA RESULT:      -8.8      1.482      3.827
REMARK  Name = 5315115
REMARK  2 active torsions:
REMARK  status: ('A' for Active; 'I' for Inactive)
REMARK    1  A    between atoms: O_4  and  C_20
REMARK    2  A    between atoms: C_19  and  C_21
REMARK                            x       y       z     vdW  Elec       q    Type
REMARK                         _______ _______ _______ _____ _____    ______ ____
ROOT
ATOM      1  O   UNL     1     112.977 129.852 135.149  0.00  0.00    +0.000 OA
ATOM      2  O   UNL     1     113.242 127.352 136.327  0.00  0.00    +0.000 OA
ATOM      3  O   UNL     1     110.596 128.518 136.209  0.00  0.00    +0.000 OA
ATOM      4  O   UNL     1     110.760 127.219 136.817  0.00  0.00    +0.000 OA
ATOM      5  C   UNL     1     113.781 128.855 135.500  0.00  0.00    +0.000 C 
ATOM      6  C   UNL     1     113.755 129.593 135.143  0.00  0.00    +0.000 C 
ATOM      7  C   UNL     1     113.019 128.656 135.727  0.00  0.00    +0.000 A 
ATOM      8  C   UNL     1     112.519 129.275 135.510  0.00  0.00    +0.000 A 
ATOM      9  C   UNL     1     114.596 128.825 135.375  0.00  0.00    +0.000 C 
ATOM     10  C   UNL     1     114.059 128.140 135.802  0.00  0.00    +0.000 C 
ATOM     11  C   UNL     1     112.711 127.990 136.106  0.00  0.00    +0.000 A 
ATOM     12  C   UNL     1     114.400 130.004 134.832  0.00  0.00    +0.000 C 
ATOM     13  C   UNL     1     111.903 127.945 136.266  0.00  0.00    +0.000 A 
ATOM     14  C   UNL     1     111.711 129.229 135.671  0.00  0.00    +0.000 A 
ATOM     15  C   UNL     1     111.403 128.564 136.049  0.00  0.00    +0.000 A 
ATOM     16  C   UNL     1     111.569 127.257 136.660  0.00  0.00    +0.000 A 
ATOM     17  C   UNL     1     112.927 126.657 136.721  0.00  0.00    +0.000 A 
ATOM     18  C   UNL     1     112.086 126.608 136.889  0.00  0.00    +0.000 A 
ENDROOT
BRANCH  17  20
ATOM     19  O   UNL     1     114.935 124.185 137.587  0.00  0.00    +0.000 OA
ATOM     20  C   UNL     1     113.429 126.039 136.938  0.00  0.00    +0.000 A 
ATOM     21  C   UNL     1     113.781 126.036 137.684  0.00  0.00    +0.000 A 
ATOM     22  C   UNL     1     113.578 125.423 136.409  0.00  0.00    +0.000 A 
ATOM     23  C   UNL     1     114.283 125.418 137.900  0.00  0.00    +0.000 A 
ATOM     24  C   UNL     1     114.080 124.805 136.625  0.00  0.00    +0.000 A 
ATOM     25  C   UNL     1     114.433 124.803 137.371  0.00  0.00    +0.000 A 
ENDBRANCH  17  20
BRANCH  18  26
ATOM     26  O   UNL     1     111.775 125.944 137.267  0.00  0.00    +0.000 OA
ATOM     27  C   UNL     1     110.975 125.759 137.183  0.00  0.00    +0.000 C 
ENDBRANCH  18  26
TORSDOF 2
ENDMDL
