MODEL 1
REMARK VINA RESULT:     -10.6      0.000      0.000
REMARK  Name = 131833070
REMARK  6 active torsions:
REMARK  status: ('A' for Active; 'I' for Inactive)
REMARK    1  A    between atoms: O_7  and  C_36
REMARK    2  A    between atoms: O_7  and  C_40
REMARK    3  A    between atoms: C_19  and  C_24
REMARK    4  A    between atoms: C_23  and  C_30
REMARK    5  A    between atoms: C_26  and  C_37
REMARK    6  A    between atoms: C_38  and  C_42
REMARK                            x       y       z     vdW  Elec       q    Type
REMARK                         _______ _______ _______ _____ _____    ______ ____
ROOT
ATOM      1  O   UNL     1     105.980 126.632 144.374  0.00  0.00    +0.000 OA
ATOM      2  O   UNL     1     106.345 128.812 144.740  0.00  0.00    +0.000 OA
ATOM      3  O   UNL     1     106.814 127.010 147.120  0.00  0.00    +0.000 OA
ATOM      4  O   UNL     1     106.225 124.383 146.158  0.00  0.00    +0.000 OA
ATOM      5  C   UNL     1     106.520 125.696 146.638  0.00  0.00    +0.000 A 
ATOM      6  C   UNL     1     106.402 126.820 145.764  0.00  0.00    +0.000 A 
ATOM      7  C   UNL     1     106.040 127.477 144.230  0.00  0.00    +0.000 C 
ATOM      8  C   UNL     1     106.285 127.999 144.868  0.00  0.00    +0.000 C 
ATOM      9  C   UNL     1     106.467 127.669 145.640  0.00  0.00    +0.000 C 
ATOM     10  C   UNL     1     106.579 126.509 146.508  0.00  0.00    +0.000 A 
ATOM     11  C   UNL     1     106.167 126.320 145.153  0.00  0.00    +0.000 A 
ATOM     12  C   UNL     1     106.284 125.195 146.028  0.00  0.00    +0.000 A 
ATOM     13  C   UNL     1     106.108 125.508 145.284  0.00  0.00    +0.000 A 
ENDROOT
BRANCH   5  18
ATOM     14  O   UNL     1     106.097 125.287 147.941  0.00  0.00    +0.000 OA
ATOM     15  O   UNL     1     108.070 125.270 147.007  0.00  0.00    +0.000 OA
ATOM     16  O   UNL     1     108.424 124.647 148.494  0.00  0.00    +0.000 OA
ATOM     17  O   UNL     1     107.227 124.451 149.612  0.00  0.00    +0.000 OA
ATOM     18  C   UNL     1     106.696 125.385 147.382  0.00  0.00    +0.000 C 
ATOM     19  C   UNL     1     107.472 125.172 147.566  0.00  0.00    +0.000 C 
ATOM     20  C   UNL     1     107.648 124.861 148.309  0.00  0.00    +0.000 C 
ATOM     21  C   UNL     1     107.050 124.762 148.869  0.00  0.00    +0.000 C 
ATOM     22  C   UNL     1     106.275 124.975 148.684  0.00  0.00    +0.000 C 
BRANCH  22  24
ATOM     23  O   UNL     1     104.985 125.325 149.191  0.00  0.00    +0.000 OA
ATOM     24  C   UNL     1     105.676 124.877 149.243  0.00  0.00    +0.000 C 
ENDBRANCH  22  24
ENDBRANCH   5  18
BRANCH   7  27
ATOM     25  O   UNL     1     104.203 128.756 142.454  0.00  0.00    +0.000 OA
ATOM     26  O   UNL     1     105.334 128.713 141.253  0.00  0.00    +0.000 OA
ATOM     27  C   UNL     1     105.863 127.786 143.486  0.00  0.00    +0.000 A 
ATOM     28  C   UNL     1     106.429 127.765 142.886  0.00  0.00    +0.000 A 
ATOM     29  C   UNL     1     105.121 128.117 143.342  0.00  0.00    +0.000 A 
ATOM     30  C   UNL     1     106.252 128.074 142.142  0.00  0.00    +0.000 A 
ATOM     31  C   UNL     1     104.945 128.426 142.598  0.00  0.00    +0.000 A 
ATOM     32  C   UNL     1     105.510 128.404 141.998  0.00  0.00    +0.000 A 
BRANCH  28  33
ATOM     33  O   UNL     1     107.171 127.434 143.030  0.00  0.00    +0.000 OA
BRANCH  33  41
ATOM     34  O   UNL     1     107.242 126.409 142.037  0.00  0.00    +0.000 OA
ATOM     35  O   UNL     1     109.481 127.219 141.361  0.00  0.00    +0.000 OA
ATOM     36  O   UNL     1     108.664 127.974 142.579  0.00  0.00    +0.000 OA
ATOM     37  O   UNL     1     108.805 125.924 140.593  0.00  0.00    +0.000 OA
ATOM     38  C   UNL     1     108.735 126.949 141.586  0.00  0.00    +0.000 C 
ATOM     39  C   UNL     1     108.325 127.327 142.196  0.00  0.00    +0.000 C 
ATOM     40  C   UNL     1     108.396 126.302 141.203  0.00  0.00    +0.000 C 
ATOM     41  C   UNL     1     107.579 127.057 142.421  0.00  0.00    +0.000 C 
ATOM     42  C   UNL     1     107.650 126.032 141.428  0.00  0.00    +0.000 C 
BRANCH  42  45
ATOM     43  O   UNL     1     107.361 124.633 141.380  0.00  0.00    +0.000 OA
ATOM     44  O   UNL     1     106.926 125.489 140.322  0.00  0.00    +0.000 OA
ATOM     45  C   UNL     1     107.313 125.384 141.044  0.00  0.00    +0.000 C 
ENDBRANCH  42  45
ENDBRANCH  33  41
ENDBRANCH  28  33
ENDBRANCH   7  27
TORSDOF 6
ENDMDL
MODEL 2
REMARK VINA RESULT:     -10.5      3.615      6.790
REMARK  Name = 131833070
REMARK  6 active torsions:
REMARK  status: ('A' for Active; 'I' for Inactive)
REMARK    1  A    between atoms: O_7  and  C_36
REMARK    2  A    between atoms: O_7  and  C_40
REMARK    3  A    between atoms: C_19  and  C_24
REMARK    4  A    between atoms: C_23  and  C_30
REMARK    5  A    between atoms: C_26  and  C_37
REMARK    6  A    between atoms: C_38  and  C_42
REMARK                            x       y       z     vdW  Elec       q    Type
REMARK                         _______ _______ _______ _____ _____    ______ ____
ROOT
ATOM      1  O   UNL     1     110.587 125.805 140.132  0.00  0.00    +0.000 OA
ATOM      2  O   UNL     1     110.948 127.958 139.629  0.00  0.00    +0.000 OA
ATOM      3  O   UNL     1     108.263 127.360 140.878  0.00  0.00    +0.000 OA
ATOM      4  O   UNL     1     108.291 124.536 141.324  0.00  0.00    +0.000 OA
ATOM      5  C   UNL     1     108.277 125.948 141.101  0.00  0.00    +0.000 A 
ATOM      6  C   UNL     1     109.409 126.589 140.511  0.00  0.00    +0.000 A 
ATOM      7  C   UNL     1     110.981 126.514 139.848  0.00  0.00    +0.000 C 
ATOM      8  C   UNL     1     110.578 127.271 139.899  0.00  0.00    +0.000 C 
ATOM      9  C   UNL     1     109.787 127.309 140.232  0.00  0.00    +0.000 C 
ATOM     10  C   UNL     1     108.649 126.632 140.830  0.00  0.00    +0.000 A 
ATOM     11  C   UNL     1     109.796 125.863 140.463  0.00  0.00    +0.000 A 
ATOM     12  C   UNL     1     108.663 125.221 141.053  0.00  0.00    +0.000 A 
ATOM     13  C   UNL     1     109.423 125.179 140.734  0.00  0.00    +0.000 A 
ENDROOT
BRANCH   5  18
ATOM     14  O   UNL     1     107.414 126.189 142.214  0.00  0.00    +0.000 OA
ATOM     15  O   UNL     1     106.965 125.637 140.150  0.00  0.00    +0.000 OA
ATOM     16  O   UNL     1     105.445 125.723 140.788  0.00  0.00    +0.000 OA
ATOM     17  O   UNL     1     105.238 126.120 142.376  0.00  0.00    +0.000 OA
ATOM     18  C   UNL     1     107.518 125.991 141.420  0.00  0.00    +0.000 C 
ATOM     19  C   UNL     1     106.861 125.835 140.944  0.00  0.00    +0.000 C 
ATOM     20  C   UNL     1     106.102 125.878 141.263  0.00  0.00    +0.000 C 
ATOM     21  C   UNL     1     105.998 126.077 142.057  0.00  0.00    +0.000 C 
ATOM     22  C   UNL     1     106.654 126.232 142.532  0.00  0.00    +0.000 C 
BRANCH  22  24
ATOM     23  O   UNL     1     107.117 126.209 143.884  0.00  0.00    +0.000 OA
ATOM     24  C   UNL     1     106.550 126.430 143.326  0.00  0.00    +0.000 C 
ENDBRANCH  22  24
ENDBRANCH   5  18
BRANCH   7  27
ATOM     25  O   UNL     1     113.805 126.857 140.121  0.00  0.00    +0.000 OA
ATOM     26  O   UNL     1     114.019 126.332 138.571  0.00  0.00    +0.000 OA
ATOM     27  C   UNL     1     111.741 126.468 139.530  0.00  0.00    +0.000 A 
ATOM     28  C   UNL     1     111.847 126.206 138.754  0.00  0.00    +0.000 A 
ATOM     29  C   UNL     1     112.393 126.685 139.985  0.00  0.00    +0.000 A 
ATOM     30  C   UNL     1     112.607 126.161 138.436  0.00  0.00    +0.000 A 
ATOM     31  C   UNL     1     113.153 126.640 139.666  0.00  0.00    +0.000 A 
ATOM     32  C   UNL     1     113.259 126.377 138.891  0.00  0.00    +0.000 A 
BRANCH  28  33
ATOM     33  O   UNL     1     111.194 125.989 138.299  0.00  0.00    +0.000 OA
BRANCH  33  41
ATOM     34  O   UNL     1     111.639 124.731 137.787  0.00  0.00    +0.000 OA
ATOM     35  O   UNL     1     110.867 125.378 135.526  0.00  0.00    +0.000 OA
ATOM     36  O   UNL     1     110.680 126.420 136.792  0.00  0.00    +0.000 OA
ATOM     37  O   UNL     1     111.569 123.905 135.768  0.00  0.00    +0.000 OA
ATOM     38  C   UNL     1     111.124 125.163 136.280  0.00  0.00    +0.000 C 
ATOM     39  C   UNL     1     111.031 125.684 136.913  0.00  0.00    +0.000 C 
ATOM     40  C   UNL     1     111.475 124.426 136.401  0.00  0.00    +0.000 C 
ATOM     41  C   UNL     1     111.288 125.468 137.667  0.00  0.00    +0.000 C 
ATOM     42  C   UNL     1     111.733 124.210 137.155  0.00  0.00    +0.000 C 
BRANCH  42  45
ATOM     43  O   UNL     1     111.654 122.864 137.627  0.00  0.00    +0.000 OA
ATOM     44  O   UNL     1     112.865 123.346 137.042  0.00  0.00    +0.000 OA
ATOM     45  C   UNL     1     112.084 123.473 137.275  0.00  0.00    +0.000 C 
ENDBRANCH  42  45
ENDBRANCH  33  41
ENDBRANCH  28  33
ENDBRANCH   7  27
TORSDOF 6
ENDMDL
MODEL 3
REMARK VINA RESULT:     -10.4      6.257      9.495
REMARK  Name = 131833070
REMARK  6 active torsions:
REMARK  status: ('A' for Active; 'I' for Inactive)
REMARK    1  A    between atoms: O_7  and  C_36
REMARK    2  A    between atoms: O_7  and  C_40
REMARK    3  A    between atoms: C_19  and  C_24
REMARK    4  A    between atoms: C_23  and  C_30
REMARK    5  A    between atoms: C_26  and  C_37
REMARK    6  A    between atoms: C_38  and  C_42
REMARK                            x       y       z     vdW  Elec       q    Type
REMARK                         _______ _______ _______ _____ _____    ______ ____
ROOT
ATOM      1  O   UNL     1     113.193 128.693 139.491  0.00  0.00    +0.000 OA
ATOM      2  O   UNL     1     114.637 128.019 141.066  0.00  0.00    +0.000 OA
ATOM      3  O   UNL     1     113.694 125.861 139.174  0.00  0.00    +0.000 OA
ATOM      4  O   UNL     1     111.906 127.200 137.390  0.00  0.00    +0.000 OA
ATOM      5  C   UNL     1     112.800 126.531 138.282  0.00  0.00    +0.000 A 
ATOM      6  C   UNL     1     113.445 127.259 139.328  0.00  0.00    +0.000 A 
ATOM      7  C   UNL     1     113.726 128.721 140.164  0.00  0.00    +0.000 C 
ATOM      8  C   UNL     1     114.123 128.003 140.420  0.00  0.00    +0.000 C 
ATOM      9  C   UNL     1     113.981 127.268 140.000  0.00  0.00    +0.000 C 
ATOM     10  C   UNL     1     113.313 126.550 138.928  0.00  0.00    +0.000 A 
ATOM     11  C   UNL     1     113.064 127.948 139.083  0.00  0.00    +0.000 A 
ATOM     12  C   UNL     1     112.419 127.219 138.036  0.00  0.00    +0.000 A 
ATOM     13  C   UNL     1     112.551 127.928 138.437  0.00  0.00    +0.000 A 
ENDROOT
BRANCH   5  18
ATOM     14  O   UNL     1     113.169 125.595 137.267  0.00  0.00    +0.000 OA
ATOM     15  O   UNL     1     111.533 125.564 138.712  0.00  0.00    +0.000 OA
ATOM     16  O   UNL     1     111.269 124.146 137.912  0.00  0.00    +0.000 OA
ATOM     17  O   UNL     1     112.271 123.692 136.683  0.00  0.00    +0.000 OA
ATOM     18  C   UNL     1     112.668 125.821 137.882  0.00  0.00    +0.000 C 
ATOM     19  C   UNL     1     112.035 125.338 138.097  0.00  0.00    +0.000 C 
ATOM     20  C   UNL     1     111.903 124.629 137.697  0.00  0.00    +0.000 C 
ATOM     21  C   UNL     1     112.403 124.402 137.083  0.00  0.00    +0.000 C 
ATOM     22  C   UNL     1     113.037 124.885 136.868  0.00  0.00    +0.000 C 
BRANCH  22  24
ATOM     23  O   UNL     1     114.296 124.980 136.199  0.00  0.00    +0.000 OA
ATOM     24  C   UNL     1     113.538 124.659 136.253  0.00  0.00    +0.000 C 
ENDBRANCH  22  24
ENDBRANCH   5  18
BRANCH   7  27
ATOM     25  O   UNL     1     115.314 131.055 140.610  0.00  0.00    +0.000 OA
ATOM     26  O   UNL     1     114.246 131.563 141.760  0.00  0.00    +0.000 OA
ATOM     27  C   UNL     1     113.857 129.432 140.563  0.00  0.00    +0.000 A 
ATOM     28  C   UNL     1     113.322 129.685 141.138  0.00  0.00    +0.000 A 
ATOM     29  C   UNL     1     114.521 129.888 140.387  0.00  0.00    +0.000 A 
ATOM     30  C   UNL     1     113.452 130.396 141.537  0.00  0.00    +0.000 A 
ATOM     31  C   UNL     1     114.650 130.599 140.786  0.00  0.00    +0.000 A 
ATOM     32  C   UNL     1     114.116 130.852 141.361  0.00  0.00    +0.000 A 
BRANCH  28  33
ATOM     33  O   UNL     1     112.658 129.229 141.315  0.00  0.00    +0.000 OA
BRANCH  33  41
ATOM     34  O   UNL     1     111.594 130.160 141.103  0.00  0.00    +0.000 OA
ATOM     35  O   UNL     1     110.624 129.549 143.297  0.00  0.00    +0.000 OA
ATOM     36  O   UNL     1     112.010 128.822 142.777  0.00  0.00    +0.000 OA
ATOM     37  O   UNL     1     109.884 130.684 142.354  0.00  0.00    +0.000 OA
ATOM     38  C   UNL     1     110.947 129.753 142.565  0.00  0.00    +0.000 C 
ATOM     39  C   UNL     1     111.641 129.389 142.305  0.00  0.00    +0.000 C 
ATOM     40  C   UNL     1     110.578 130.320 142.094  0.00  0.00    +0.000 C 
ATOM     41  C   UNL     1     111.965 129.592 141.574  0.00  0.00    +0.000 C 
ATOM     42  C   UNL     1     110.901 130.523 141.363  0.00  0.00    +0.000 C 
BRANCH  42  45
ATOM     43  O   UNL     1     110.653 131.893 141.039  0.00  0.00    +0.000 OA
ATOM     44  O   UNL     1     110.039 130.855 140.273  0.00  0.00    +0.000 OA
ATOM     45  C   UNL     1     110.531 131.091 140.892  0.00  0.00    +0.000 C 
ENDBRANCH  42  45
ENDBRANCH  33  41
ENDBRANCH  28  33
ENDBRANCH   7  27
TORSDOF 6
ENDMDL
MODEL 4
REMARK VINA RESULT:     -10.3      3.913      7.829
REMARK  Name = 131833070
REMARK  6 active torsions:
REMARK  status: ('A' for Active; 'I' for Inactive)
REMARK    1  A    between atoms: O_7  and  C_36
REMARK    2  A    between atoms: O_7  and  C_40
REMARK    3  A    between atoms: C_19  and  C_24
REMARK    4  A    between atoms: C_23  and  C_30
REMARK    5  A    between atoms: C_26  and  C_37
REMARK    6  A    between atoms: C_38  and  C_42
REMARK                            x       y       z     vdW  Elec       q    Type
REMARK                         _______ _______ _______ _____ _____    ______ ____
ROOT
ATOM      1  O   UNL     1     108.864 126.457 139.753  0.00  0.00    +0.000 OA
ATOM      2  O   UNL     1     109.859 126.117 141.731  0.00  0.00    +0.000 OA
ATOM      3  O   UNL     1     111.599 125.622 139.311  0.00  0.00    +0.000 OA
ATOM      4  O   UNL     1     109.903 126.182 137.080  0.00  0.00    +0.000 OA
ATOM      5  C   UNL     1     110.751 125.902 138.196  0.00  0.00    +0.000 A 
ATOM      6  C   UNL     1     110.248 126.035 139.526  0.00  0.00    +0.000 A 
ATOM      7  C   UNL     1     108.977 126.408 140.603  0.00  0.00    +0.000 C 
ATOM      8  C   UNL     1     109.740 126.167 140.916  0.00  0.00    +0.000 C 
ATOM      9  C   UNL     1     110.380 125.980 140.374  0.00  0.00    +0.000 C 
ATOM     10  C   UNL     1     110.866 125.853 139.011  0.00  0.00    +0.000 A 
ATOM     11  C   UNL     1     109.515 126.265 139.227  0.00  0.00    +0.000 A 
ATOM     12  C   UNL     1     110.019 126.133 137.895  0.00  0.00    +0.000 A 
ATOM     13  C   UNL     1     109.400 126.315 138.411  0.00  0.00    +0.000 A 
ENDROOT
BRANCH   5  18
ATOM     14  O   UNL     1     111.472 124.946 137.417  0.00  0.00    +0.000 OA
ATOM     15  O   UNL     1     111.781 127.089 137.692  0.00  0.00    +0.000 OA
ATOM     16  O   UNL     1     113.017 126.725 136.662  0.00  0.00    +0.000 OA
ATOM     17  O   UNL     1     113.224 125.176 136.135  0.00  0.00    +0.000 OA
ATOM     18  C   UNL     1     111.369 125.721 137.680  0.00  0.00    +0.000 C 
ATOM     19  C   UNL     1     111.884 126.314 137.429  0.00  0.00    +0.000 C 
ATOM     20  C   UNL     1     112.502 126.132 136.914  0.00  0.00    +0.000 C 
ATOM     21  C   UNL     1     112.606 125.358 136.650  0.00  0.00    +0.000 C 
ATOM     22  C   UNL     1     112.091 124.765 136.901  0.00  0.00    +0.000 C 
BRANCH  22  24
ATOM     23  O   UNL     1     111.930 123.358 137.099  0.00  0.00    +0.000 OA
ATOM     24  C   UNL     1     112.194 123.990 136.638  0.00  0.00    +0.000 C 
ENDBRANCH  22  24
ENDBRANCH   5  18
BRANCH   7  27
ATOM     25  O   UNL     1     107.693 128.238 142.384  0.00  0.00    +0.000 OA
ATOM     26  O   UNL     1     106.497 127.134 142.657  0.00  0.00    +0.000 OA
ATOM     27  C   UNL     1     108.357 126.590 141.117  0.00  0.00    +0.000 A 
ATOM     28  C   UNL     1     107.759 126.038 141.253  0.00  0.00    +0.000 A 
ATOM     29  C   UNL     1     108.335 127.324 141.493  0.00  0.00    +0.000 A 
ATOM     30  C   UNL     1     107.139 126.220 141.766  0.00  0.00    +0.000 A 
ATOM     31  C   UNL     1     107.715 127.505 142.007  0.00  0.00    +0.000 A 
ATOM     32  C   UNL     1     107.117 126.953 142.143  0.00  0.00    +0.000 A 
BRANCH  28  33
ATOM     33  O   UNL     1     107.781 125.304 140.876  0.00  0.00    +0.000 OA
BRANCH  33  41
ATOM     34  O   UNL     1     106.521 125.266 140.203  0.00  0.00    +0.000 OA
ATOM     35  O   UNL     1     106.083 123.021 141.149  0.00  0.00    +0.000 OA
ATOM     36  O   UNL     1     107.489 123.808 141.507  0.00  0.00    +0.000 OA
ATOM     37  O   UNL     1     104.969 123.732 140.161  0.00  0.00    +0.000 OA
ATOM     38  C   UNL     1     106.229 123.770 140.834  0.00  0.00    +0.000 C 
ATOM     39  C   UNL     1     106.933 124.163 141.013  0.00  0.00    +0.000 C 
ATOM     40  C   UNL     1     105.673 124.125 140.340  0.00  0.00    +0.000 C 
ATOM     41  C   UNL     1     107.079 124.911 140.697  0.00  0.00    +0.000 C 
ATOM     42  C   UNL     1     105.819 124.873 140.024  0.00  0.00    +0.000 C 
BRANCH  42  45
ATOM     43  O   UNL     1     104.664 125.698 139.851  0.00  0.00    +0.000 OA
ATOM     44  O   UNL     1     105.301 125.112 138.714  0.00  0.00    +0.000 OA
ATOM     45  C   UNL     1     105.261 125.228 139.530  0.00  0.00    +0.000 C 
ENDBRANCH  42  45
ENDBRANCH  33  41
ENDBRANCH  28  33
ENDBRANCH   7  27
TORSDOF 6
ENDMDL
MODEL 5
REMARK VINA RESULT:     -10.3      6.437      9.348
REMARK  Name = 131833070
REMARK  6 active torsions:
REMARK  status: ('A' for Active; 'I' for Inactive)
REMARK    1  A    between atoms: O_7  and  C_36
REMARK    2  A    between atoms: O_7  and  C_40
REMARK    3  A    between atoms: C_19  and  C_24
REMARK    4  A    between atoms: C_23  and  C_30
REMARK    5  A    between atoms: C_26  and  C_37
REMARK    6  A    between atoms: C_38  and  C_42
REMARK                            x       y       z     vdW  Elec       q    Type
REMARK                         _______ _______ _______ _____ _____    ______ ____
ROOT
ATOM      1  O   UNL     1     110.353 128.344 137.341  0.00  0.00    +0.000 OA
ATOM      2  O   UNL     1     111.184 129.830 135.885  0.00  0.00    +0.000 OA
ATOM      3  O   UNL     1     112.985 127.483 136.499  0.00  0.00    +0.000 OA
ATOM      4  O   UNL     1     111.501 125.909 138.368  0.00  0.00    +0.000 OA
ATOM      5  C   UNL     1     112.242 126.696 137.434  0.00  0.00    +0.000 A 
ATOM      6  C   UNL     1     111.685 127.905 136.917  0.00  0.00    +0.000 A 
ATOM      7  C   UNL     1     110.410 129.039 136.839  0.00  0.00    +0.000 C 
ATOM      8  C   UNL     1     111.119 129.166 136.370  0.00  0.00    +0.000 C 
ATOM      9  C   UNL     1     111.760 128.595 136.409  0.00  0.00    +0.000 C 
ATOM     10  C   UNL     1     112.304 127.361 136.950  0.00  0.00    +0.000 A 
ATOM     11  C   UNL     1     111.004 127.784 137.367  0.00  0.00    +0.000 A 
ATOM     12  C   UNL     1     111.563 126.574 137.884  0.00  0.00    +0.000 A 
ATOM     13  C   UNL     1     110.943 127.119 137.850  0.00  0.00    +0.000 A 
ENDROOT
BRANCH   5  18
ATOM     14  O   UNL     1     112.890 125.526 136.930  0.00  0.00    +0.000 OA
ATOM     15  O   UNL     1     113.424 126.860 138.573  0.00  0.00    +0.000 OA
ATOM     16  O   UNL     1     114.663 125.772 138.639  0.00  0.00    +0.000 OA
ATOM     17  O   UNL     1     114.720 124.520 137.567  0.00  0.00    +0.000 OA
ATOM     18  C   UNL     1     112.861 126.152 137.467  0.00  0.00    +0.000 C 
ATOM     19  C   UNL     1     113.453 126.234 138.036  0.00  0.00    +0.000 C 
ATOM     20  C   UNL     1     114.072 125.690 138.070  0.00  0.00    +0.000 C 
ATOM     21  C   UNL     1     114.101 125.064 137.534  0.00  0.00    +0.000 C 
ATOM     22  C   UNL     1     113.510 124.982 136.964  0.00  0.00    +0.000 C 
BRANCH  22  24
ATOM     23  O   UNL     1     112.852 123.935 136.249  0.00  0.00    +0.000 OA
ATOM     24  C   UNL     1     113.538 124.356 136.427  0.00  0.00    +0.000 C 
ENDBRANCH  22  24
ENDBRANCH   5  18
BRANCH   7  27
ATOM     25  O   UNL     1     108.104 130.090 135.517  0.00  0.00    +0.000 OA
ATOM     26  O   UNL     1     107.928 131.211 136.715  0.00  0.00    +0.000 OA
ATOM     27  C   UNL     1     109.789 129.582 136.808  0.00  0.00    +0.000 A 
ATOM     28  C   UNL     1     109.702 130.143 137.407  0.00  0.00    +0.000 A 
ATOM     29  C   UNL     1     109.257 129.564 136.178  0.00  0.00    +0.000 A 
ATOM     30  C   UNL     1     109.081 130.685 137.376  0.00  0.00    +0.000 A 
ATOM     31  C   UNL     1     108.637 130.107 136.147  0.00  0.00    +0.000 A 
ATOM     32  C   UNL     1     108.549 130.668 136.746  0.00  0.00    +0.000 A 
BRANCH  28  33
ATOM     33  O   UNL     1     110.234 130.160 138.037  0.00  0.00    +0.000 OA
BRANCH  33  41
ATOM     34  O   UNL     1     109.349 130.069 139.156  0.00  0.00    +0.000 OA
ATOM     35  O   UNL     1     110.529 131.954 140.242  0.00  0.00    +0.000 OA
ATOM     36  O   UNL     1     111.020 131.417 138.761  0.00  0.00    +0.000 OA
ATOM     37  O   UNL     1     109.251 131.235 140.999  0.00  0.00    +0.000 OA
ATOM     38  C   UNL     1     110.136 131.326 139.880  0.00  0.00    +0.000 C 
ATOM     39  C   UNL     1     110.382 131.057 139.139  0.00  0.00    +0.000 C 
ATOM     40  C   UNL     1     109.497 130.966 140.258  0.00  0.00    +0.000 C 
ATOM     41  C   UNL     1     109.988 130.428 138.777  0.00  0.00    +0.000 C 
ATOM     42  C   UNL     1     109.104 130.337 139.895  0.00  0.00    +0.000 C 
BRANCH  42  45
ATOM     43  O   UNL     1     108.561 129.245 140.640  0.00  0.00    +0.000 OA
ATOM     44  O   UNL     1     107.730 130.352 140.286  0.00  0.00    +0.000 OA
ATOM     45  C   UNL     1     108.465 129.978 140.274  0.00  0.00    +0.000 C 
ENDBRANCH  42  45
ENDBRANCH  33  41
ENDBRANCH  28  33
ENDBRANCH   7  27
TORSDOF 6
ENDMDL
MODEL 6
REMARK VINA RESULT:     -10.3      7.154     10.309
REMARK  Name = 131833070
REMARK  6 active torsions:
REMARK  status: ('A' for Active; 'I' for Inactive)
REMARK    1  A    between atoms: O_7  and  C_36
REMARK    2  A    between atoms: O_7  and  C_40
REMARK    3  A    between atoms: C_19  and  C_24
REMARK    4  A    between atoms: C_23  and  C_30
REMARK    5  A    between atoms: C_26  and  C_37
REMARK    6  A    between atoms: C_38  and  C_42
REMARK                            x       y       z     vdW  Elec       q    Type
REMARK                         _______ _______ _______ _____ _____    ______ ____
ROOT
ATOM      1  O   UNL     1     111.512 127.577 137.055  0.00  0.00    +0.000 OA
ATOM      2  O   UNL     1     113.495 128.618 137.004  0.00  0.00    +0.000 OA
ATOM      3  O   UNL     1     111.103 130.373 136.432  0.00  0.00    +0.000 OA
ATOM      4  O   UNL     1     108.859 128.611 136.612  0.00  0.00    +0.000 OA
ATOM      5  C   UNL     1     109.981 129.492 136.522  0.00  0.00    +0.000 A 
ATOM      6  C   UNL     1     111.302 128.992 136.739  0.00  0.00    +0.000 A 
ATOM      7  C   UNL     1     112.361 127.702 137.101  0.00  0.00    +0.000 C 
ATOM      8  C   UNL     1     112.681 128.488 136.963  0.00  0.00    +0.000 C 
ATOM      9  C   UNL     1     112.148 129.137 136.781  0.00  0.00    +0.000 C 
ATOM     10  C   UNL     1     110.795 129.619 136.564  0.00  0.00    +0.000 A 
ATOM     11  C   UNL     1     110.995 128.238 136.872  0.00  0.00    +0.000 A 
ATOM     12  C   UNL     1     109.673 128.739 136.654  0.00  0.00    +0.000 A 
ATOM     13  C   UNL     1     110.181 128.111 136.829  0.00  0.00    +0.000 A 
ENDROOT
BRANCH   5  18
ATOM     14  O   UNL     1     109.198 130.607 136.952  0.00  0.00    +0.000 OA
ATOM     15  O   UNL     1     109.522 129.771 134.962  0.00  0.00    +0.000 OA
ATOM     16  O   UNL     1     108.509 131.026 134.612  0.00  0.00    +0.000 OA
ATOM     17  O   UNL     1     107.955 132.001 135.821  0.00  0.00    +0.000 OA
ATOM     18  C   UNL     1     109.475 130.119 136.347  0.00  0.00    +0.000 C 
ATOM     19  C   UNL     1     109.245 130.259 135.567  0.00  0.00    +0.000 C 
ATOM     20  C   UNL     1     108.739 130.886 135.392  0.00  0.00    +0.000 C 
ATOM     21  C   UNL     1     108.461 131.374 135.996  0.00  0.00    +0.000 C 
ATOM     22  C   UNL     1     108.691 131.234 136.776  0.00  0.00    +0.000 C 
BRANCH  22  24
ATOM     23  O   UNL     1     108.195 131.395 138.107  0.00  0.00    +0.000 OA
ATOM     24  C   UNL     1     108.414 131.722 137.382  0.00  0.00    +0.000 C 
ENDBRANCH  22  24
ENDBRANCH   5  18
BRANCH   7  27
ATOM     25  O   UNL     1     114.369 125.838 136.287  0.00  0.00    +0.000 OA
ATOM     26  O   UNL     1     114.379 125.187 137.804  0.00  0.00    +0.000 OA
ATOM     27  C   UNL     1     112.866 127.074 137.276  0.00  0.00    +0.000 A 
ATOM     28  C   UNL     1     112.871 126.748 138.035  0.00  0.00    +0.000 A 
ATOM     29  C   UNL     1     113.365 126.770 136.693  0.00  0.00    +0.000 A 
ATOM     30  C   UNL     1     113.375 126.120 138.210  0.00  0.00    +0.000 A 
ATOM     31  C   UNL     1     113.869 126.141 136.870  0.00  0.00    +0.000 A 
ATOM     32  C   UNL     1     113.875 125.816 137.627  0.00  0.00    +0.000 A 
BRANCH  28  33
ATOM     33  O   UNL     1     112.371 127.052 138.617  0.00  0.00    +0.000 OA
BRANCH  33  41
ATOM     34  O   UNL     1     113.287 127.381 139.663  0.00  0.00    +0.000 OA
ATOM     35  O   UNL     1     111.868 126.166 141.287  0.00  0.00    +0.000 OA
ATOM     36  O   UNL     1     111.425 126.242 139.700  0.00  0.00    +0.000 OA
ATOM     37  O   UNL     1     113.257 126.900 141.792  0.00  0.00    +0.000 OA
ATOM     38  C   UNL     1     112.341 126.571 140.746  0.00  0.00    +0.000 C 
ATOM     39  C   UNL     1     112.120 126.609 139.951  0.00  0.00    +0.000 C 
ATOM     40  C   UNL     1     113.036 126.938 140.998  0.00  0.00    +0.000 C 
ATOM     41  C   UNL     1     112.593 127.014 139.410  0.00  0.00    +0.000 C 
ATOM     42  C   UNL     1     113.509 127.343 140.456  0.00  0.00    +0.000 C 
BRANCH  42  45
ATOM     43  O   UNL     1     114.874 127.258 140.869  0.00  0.00    +0.000 OA
ATOM     44  O   UNL     1     114.226 128.529 140.803  0.00  0.00    +0.000 OA
ATOM     45  C   UNL     1     114.203 127.709 140.710  0.00  0.00    +0.000 C 
ENDBRANCH  42  45
ENDBRANCH  33  41
ENDBRANCH  28  33
ENDBRANCH   7  27
TORSDOF 6
ENDMDL
MODEL 7
REMARK VINA RESULT:     -10.2      6.855      9.677
REMARK  Name = 131833070
REMARK  6 active torsions:
REMARK  status: ('A' for Active; 'I' for Inactive)
REMARK    1  A    between atoms: O_7  and  C_36
REMARK    2  A    between atoms: O_7  and  C_40
REMARK    3  A    between atoms: C_19  and  C_24
REMARK    4  A    between atoms: C_23  and  C_30
REMARK    5  A    between atoms: C_26  and  C_37
REMARK    6  A    between atoms: C_38  and  C_42
REMARK                            x       y       z     vdW  Elec       q    Type
REMARK                         _______ _______ _______ _____ _____    ______ ____
ROOT
ATOM      1  O   UNL     1     111.842 129.549 137.762  0.00  0.00    +0.000 OA
ATOM      2  O   UNL     1     110.534 129.995 135.999  0.00  0.00    +0.000 OA
ATOM      3  O   UNL     1     111.679 127.200 136.079  0.00  0.00    +0.000 OA
ATOM      4  O   UNL     1     113.244 127.133 138.470  0.00  0.00    +0.000 OA
ATOM      5  C   UNL     1     112.462 127.167 137.275  0.00  0.00    +0.000 A 
ATOM      6  C   UNL     1     111.762 128.358 136.912  0.00  0.00    +0.000 A 
ATOM      7  C   UNL     1     111.328 129.980 137.225  0.00  0.00    +0.000 C 
ATOM      8  C   UNL     1     111.028 129.589 136.521  0.00  0.00    +0.000 C 
ATOM      9  C   UNL     1     111.246 128.773 136.363  0.00  0.00    +0.000 C 
ATOM     10  C   UNL     1     111.967 127.575 136.755  0.00  0.00    +0.000 A 
ATOM     11  C   UNL     1     112.049 128.733 137.588  0.00  0.00    +0.000 A 
ATOM     12  C   UNL     1     112.750 127.541 137.951  0.00  0.00    +0.000 A 
ATOM     13  C   UNL     1     112.543 128.324 138.107  0.00  0.00    +0.000 A 
ENDROOT
BRANCH   5  18
ATOM     14  O   UNL     1     112.160 125.771 137.340  0.00  0.00    +0.000 OA
ATOM     15  O   UNL     1     113.887 126.824 136.518  0.00  0.00    +0.000 OA
ATOM     16  O   UNL     1     114.298 125.257 136.204  0.00  0.00    +0.000 OA
ATOM     17  O   UNL     1     113.285 124.033 136.647  0.00  0.00    +0.000 OA
ATOM     18  C   UNL     1     112.667 126.383 137.118  0.00  0.00    +0.000 C 
ATOM     19  C   UNL     1     113.380 126.212 136.739  0.00  0.00    +0.000 C 
ATOM     20  C   UNL     1     113.586 125.429 136.583  0.00  0.00    +0.000 C 
ATOM     21  C   UNL     1     113.079 124.816 136.804  0.00  0.00    +0.000 C 
ATOM     22  C   UNL     1     112.367 124.988 137.182  0.00  0.00    +0.000 C 
BRANCH  22  24
ATOM     23  O   UNL     1     111.387 124.454 138.076  0.00  0.00    +0.000 OA
ATOM     24  C   UNL     1     111.860 124.376 137.404  0.00  0.00    +0.000 C 
ENDBRANCH  22  24
ENDBRANCH   5  18
BRANCH   7  27
ATOM     25  O   UNL     1     111.656 132.775 136.726  0.00  0.00    +0.000 OA
ATOM     26  O   UNL     1     110.509 133.112 137.863  0.00  0.00    +0.000 OA
ATOM     27  C   UNL     1     111.124 130.763 137.384  0.00  0.00    +0.000 A 
ATOM     28  C   UNL     1     110.550 130.932 137.953  0.00  0.00    +0.000 A 
ATOM     29  C   UNL     1     111.493 131.377 136.975  0.00  0.00    +0.000 A 
ATOM     30  C   UNL     1     110.345 131.715 138.112  0.00  0.00    +0.000 A 
ATOM     31  C   UNL     1     111.287 132.160 137.135  0.00  0.00    +0.000 A 
ATOM     32  C   UNL     1     110.714 132.329 137.703  0.00  0.00    +0.000 A 
BRANCH  28  33
ATOM     33  O   UNL     1     110.181 130.318 138.362  0.00  0.00    +0.000 OA
BRANCH  33  41
ATOM     34  O   UNL     1     110.386 130.679 139.730  0.00  0.00    +0.000 OA
ATOM     35  O   UNL     1     107.969 130.379 140.171  0.00  0.00    +0.000 OA
ATOM     36  O   UNL     1     108.570 130.118 138.656  0.00  0.00    +0.000 OA
ATOM     37  O   UNL     1     108.979 130.841 141.391  0.00  0.00    +0.000 OA
ATOM     38  C   UNL     1     108.775 130.479 140.024  0.00  0.00    +0.000 C 
ATOM     39  C   UNL     1     109.075 130.348 139.266  0.00  0.00    +0.000 C 
ATOM     40  C   UNL     1     109.280 130.710 140.633  0.00  0.00    +0.000 C 
ATOM     41  C   UNL     1     109.881 130.448 139.119  0.00  0.00    +0.000 C 
ATOM     42  C   UNL     1     110.086 130.810 140.486  0.00  0.00    +0.000 C 
BRANCH  42  45
ATOM     43  O   UNL     1     110.665 131.838 141.292  0.00  0.00    +0.000 OA
ATOM     44  O   UNL     1     111.020 130.472 141.513  0.00  0.00    +0.000 OA
ATOM     45  C   UNL     1     110.590 131.040 141.097  0.00  0.00    +0.000 C 
ENDBRANCH  42  45
ENDBRANCH  33  41
ENDBRANCH  28  33
ENDBRANCH   7  27
TORSDOF 6
ENDMDL
MODEL 8
REMARK VINA RESULT:     -10.1      5.974     10.037
REMARK  Name = 131833070
REMARK  6 active torsions:
REMARK  status: ('A' for Active; 'I' for Inactive)
REMARK    1  A    between atoms: O_7  and  C_36
REMARK    2  A    between atoms: O_7  and  C_40
REMARK    3  A    between atoms: C_19  and  C_24
REMARK    4  A    between atoms: C_23  and  C_30
REMARK    5  A    between atoms: C_26  and  C_37
REMARK    6  A    between atoms: C_38  and  C_42
REMARK                            x       y       z     vdW  Elec       q    Type
REMARK                         _______ _______ _______ _____ _____    ______ ____
ROOT
ATOM      1  O   UNL     1     110.420 127.693 137.055  0.00  0.00    +0.000 OA
ATOM      2  O   UNL     1     112.464 127.362 136.200  0.00  0.00    +0.000 OA
ATOM      3  O   UNL     1     111.418 130.188 135.979  0.00  0.00    +0.000 OA
ATOM      4  O   UNL     1     108.830 130.092 137.189  0.00  0.00    +0.000 OA
ATOM      5  C   UNL     1     110.124 130.140 136.584  0.00  0.00    +0.000 A 
ATOM      6  C   UNL     1     110.922 128.958 136.511  0.00  0.00    +0.000 A 
ATOM      7  C   UNL     1     111.144 127.293 136.822  0.00  0.00    +0.000 C 
ATOM      8  C   UNL     1     111.765 127.737 136.427  0.00  0.00    +0.000 C 
ATOM      9  C   UNL     1     111.654 128.574 136.271  0.00  0.00    +0.000 C 
ATOM     10  C   UNL     1     110.822 129.762 136.358  0.00  0.00    +0.000 A 
ATOM     11  C   UNL     1     110.327 128.531 136.890  0.00  0.00    +0.000 A 
ATOM     12  C   UNL     1     109.528 129.715 136.963  0.00  0.00    +0.000 A 
ATOM     13  C   UNL     1     109.630 128.910 137.116  0.00  0.00    +0.000 A 
ENDROOT
BRANCH   5  18
ATOM     14  O   UNL     1     110.308 131.505 136.966  0.00  0.00    +0.000 OA
ATOM     15  O   UNL     1     109.353 130.627 135.209  0.00  0.00    +0.000 OA
ATOM     16  O   UNL     1     109.151 132.236 134.903  0.00  0.00    +0.000 OA
ATOM     17  O   UNL     1     109.720 133.357 135.971  0.00  0.00    +0.000 OA
ATOM     18  C   UNL     1     110.023 130.944 136.431  0.00  0.00    +0.000 C 
ATOM     19  C   UNL     1     109.638 131.188 135.744  0.00  0.00    +0.000 C 
ATOM     20  C   UNL     1     109.537 131.992 135.591  0.00  0.00    +0.000 C 
ATOM     21  C   UNL     1     109.821 132.553 136.124  0.00  0.00    +0.000 C 
ATOM     22  C   UNL     1     110.206 132.309 136.812  0.00  0.00    +0.000 C 
BRANCH  22  24
ATOM     23  O   UNL     1     110.539 132.687 138.149  0.00  0.00    +0.000 OA
ATOM     24  C   UNL     1     110.491 132.870 137.346  0.00  0.00    +0.000 C 
ENDBRANCH  22  24
ENDBRANCH   5  18
BRANCH   7  27
ATOM     25  O   UNL     1     111.066 124.575 135.941  0.00  0.00    +0.000 OA
ATOM     26  O   UNL     1     111.540 124.076 137.441  0.00  0.00    +0.000 OA
ATOM     27  C   UNL     1     111.243 126.489 136.976  0.00  0.00    +0.000 A 
ATOM     28  C   UNL     1     111.480 126.239 137.726  0.00  0.00    +0.000 A 
ATOM     29  C   UNL     1     111.105 125.934 136.381  0.00  0.00    +0.000 A 
ATOM     30  C   UNL     1     111.579 125.435 137.880  0.00  0.00    +0.000 A 
ATOM     31  C   UNL     1     111.204 125.130 136.536  0.00  0.00    +0.000 A 
ATOM     32  C   UNL     1     111.441 124.880 137.285  0.00  0.00    +0.000 A 
BRANCH  28  33
ATOM     33  O   UNL     1     111.618 126.794 138.321  0.00  0.00    +0.000 OA
BRANCH  33  41
ATOM     34  O   UNL     1     110.680 126.389 139.321  0.00  0.00    +0.000 OA
ATOM     35  O   UNL     1     112.463 126.485 141.034  0.00  0.00    +0.000 OA
ATOM     36  O   UNL     1     112.807 126.857 139.464  0.00  0.00    +0.000 OA
ATOM     37  O   UNL     1     110.930 126.049 141.462  0.00  0.00    +0.000 OA
ATOM     38  C   UNL     1     111.869 126.453 140.463  0.00  0.00    +0.000 C 
ATOM     39  C   UNL     1     112.040 126.639 139.677  0.00  0.00    +0.000 C 
ATOM     40  C   UNL     1     111.102 126.235 140.676  0.00  0.00    +0.000 C 
ATOM     41  C   UNL     1     111.446 126.607 139.106  0.00  0.00    +0.000 C 
ATOM     42  C   UNL     1     110.508 126.203 140.105  0.00  0.00    +0.000 C 
BRANCH  42  45
ATOM     43  O   UNL     1     109.562 125.193 140.461  0.00  0.00    +0.000 OA
ATOM     44  O   UNL     1     109.154 126.560 140.393  0.00  0.00    +0.000 OA
ATOM     45  C   UNL     1     109.741 125.985 140.320  0.00  0.00    +0.000 C 
ENDBRANCH  42  45
ENDBRANCH  33  41
ENDBRANCH  28  33
ENDBRANCH   7  27
TORSDOF 6
ENDMDL
MODEL 9
REMARK VINA RESULT:     -10.1      6.089      9.301
REMARK  Name = 131833070
REMARK  6 active torsions:
REMARK  status: ('A' for Active; 'I' for Inactive)
REMARK    1  A    between atoms: O_7  and  C_36
REMARK    2  A    between atoms: O_7  and  C_40
REMARK    3  A    between atoms: C_19  and  C_24
REMARK    4  A    between atoms: C_23  and  C_30
REMARK    5  A    between atoms: C_26  and  C_37
REMARK    6  A    between atoms: C_38  and  C_42
REMARK                            x       y       z     vdW  Elec       q    Type
REMARK                         _______ _______ _______ _____ _____    ______ ____
ROOT
ATOM      1  O   UNL     1     113.631 129.255 138.415  0.00  0.00    +0.000 OA
ATOM      2  O   UNL     1     112.246 130.469 137.140  0.00  0.00    +0.000 OA
ATOM      3  O   UNL     1     111.724 130.618 140.113  0.00  0.00    +0.000 OA
ATOM      4  O   UNL     1     113.716 128.931 141.277  0.00  0.00    +0.000 OA
ATOM      5  C   UNL     1     112.720 129.774 140.695  0.00  0.00    +0.000 A 
ATOM      6  C   UNL     1     112.667 129.944 139.277  0.00  0.00    +0.000 A 
ATOM      7  C   UNL     1     113.271 129.603 137.717  0.00  0.00    +0.000 C 
ATOM      8  C   UNL     1     112.598 130.130 137.805  0.00  0.00    +0.000 C 
ATOM      9  C   UNL     1     112.294 130.301 138.590  0.00  0.00    +0.000 C 
ATOM     10  C   UNL     1     112.370 130.112 140.028  0.00  0.00    +0.000 A 
ATOM     11  C   UNL     1     113.313 129.438 139.192  0.00  0.00    +0.000 A 
ATOM     12  C   UNL     1     113.366 129.269 140.611  0.00  0.00    +0.000 A 
ATOM     13  C   UNL     1     113.662 129.101 139.859  0.00  0.00    +0.000 A 
ENDROOT
BRANCH   5  18
ATOM     14  O   UNL     1     111.838 129.464 141.775  0.00  0.00    +0.000 OA
ATOM     15  O   UNL     1     113.299 131.069 141.539  0.00  0.00    +0.000 OA
ATOM     16  O   UNL     1     112.705 131.406 143.041  0.00  0.00    +0.000 OA
ATOM     17  O   UNL     1     111.534 130.449 143.700  0.00  0.00    +0.000 OA
ATOM     18  C   UNL     1     112.424 129.943 141.446  0.00  0.00    +0.000 C 
ATOM     19  C   UNL     1     112.713 130.590 141.868  0.00  0.00    +0.000 C 
ATOM     20  C   UNL     1     112.416 130.758 142.619  0.00  0.00    +0.000 C 
ATOM     21  C   UNL     1     111.831 130.281 142.948  0.00  0.00    +0.000 C 
ATOM     22  C   UNL     1     111.541 129.633 142.526  0.00  0.00    +0.000 C 
BRANCH  22  24
ATOM     23  O   UNL     1     110.977 128.338 142.741  0.00  0.00    +0.000 OA
ATOM     24  C   UNL     1     110.955 129.155 142.856  0.00  0.00    +0.000 C 
ENDBRANCH  22  24
ENDBRANCH   5  18
BRANCH   7  27
ATOM     25  O   UNL     1     114.896 130.320 135.477  0.00  0.00    +0.000 OA
ATOM     26  O   UNL     1     114.463 128.921 134.716  0.00  0.00    +0.000 OA
ATOM     27  C   UNL     1     113.570 129.433 136.967  0.00  0.00    +0.000 A 
ATOM     28  C   UNL     1     113.353 128.733 136.586  0.00  0.00    +0.000 A 
ATOM     29  C   UNL     1     114.084 129.962 136.597  0.00  0.00    +0.000 A 
ATOM     30  C   UNL     1     113.651 128.563 135.836  0.00  0.00    +0.000 A 
ATOM     31  C   UNL     1     114.381 129.791 135.847  0.00  0.00    +0.000 A 
ATOM     32  C   UNL     1     114.165 129.092 135.466  0.00  0.00    +0.000 A 
BRANCH  28  33
ATOM     33  O   UNL     1     112.839 128.204 136.955  0.00  0.00    +0.000 OA
BRANCH  33  41
ATOM     34  O   UNL     1     113.580 126.983 136.933  0.00  0.00    +0.000 OA
ATOM     35  O   UNL     1     111.622 125.812 135.974  0.00  0.00    +0.000 OA
ATOM     36  O   UNL     1     111.533 127.424 136.316  0.00  0.00    +0.000 OA
ATOM     37  O   UNL     1     113.016 124.981 136.272  0.00  0.00    +0.000 OA
ATOM     38  C   UNL     1     112.274 126.202 136.294  0.00  0.00    +0.000 C 
ATOM     39  C   UNL     1     112.230 127.009 136.465  0.00  0.00    +0.000 C 
ATOM     40  C   UNL     1     112.972 125.787 136.443  0.00  0.00    +0.000 C 
ATOM     41  C   UNL     1     112.883 127.399 136.785  0.00  0.00    +0.000 C 
ATOM     42  C   UNL     1     113.624 126.178 136.763  0.00  0.00    +0.000 C 
BRANCH  42  45
ATOM     43  O   UNL     1     114.863 125.633 136.303  0.00  0.00    +0.000 OA
ATOM     44  O   UNL     1     114.475 125.473 137.669  0.00  0.00    +0.000 OA
ATOM     45  C   UNL     1     114.321 125.761 136.911  0.00  0.00    +0.000 C 
ENDBRANCH  42  45
ENDBRANCH  33  41
ENDBRANCH  28  33
ENDBRANCH   7  27
TORSDOF 6
ENDMDL
MODEL 10
REMARK VINA RESULT:     -10.0      5.863      8.770
REMARK  Name = 131833070
REMARK  6 active torsions:
REMARK  status: ('A' for Active; 'I' for Inactive)
REMARK    1  A    between atoms: O_7  and  C_36
REMARK    2  A    between atoms: O_7  and  C_40
REMARK    3  A    between atoms: C_19  and  C_24
REMARK    4  A    between atoms: C_23  and  C_30
REMARK    5  A    between atoms: C_26  and  C_37
REMARK    6  A    between atoms: C_38  and  C_42
REMARK                            x       y       z     vdW  Elec       q    Type
REMARK                         _______ _______ _______ _____ _____    ______ ____
ROOT
ATOM      1  O   UNL     1     110.557 128.123 139.286  0.00  0.00    +0.000 OA
ATOM      2  O   UNL     1     110.840 129.826 137.858  0.00  0.00    +0.000 OA
ATOM      3  O   UNL     1     112.051 127.199 136.986  0.00  0.00    +0.000 OA
ATOM      4  O   UNL     1     111.430 125.383 139.105  0.00  0.00    +0.000 OA
ATOM      5  C   UNL     1     111.740 126.291 138.046  0.00  0.00    +0.000 A 
ATOM      6  C   UNL     1     111.313 127.652 138.123  0.00  0.00    +0.000 A 
ATOM      7  C   UNL     1     110.512 128.913 138.951  0.00  0.00    +0.000 C 
ATOM      8  C   UNL     1     110.876 129.071 138.188  0.00  0.00    +0.000 C 
ATOM      9  C   UNL     1     111.279 128.437 137.772  0.00  0.00    +0.000 C 
ATOM     10  C   UNL     1     111.702 127.047 137.718  0.00  0.00    +0.000 A 
ATOM     11  C   UNL     1     110.964 127.501 138.855  0.00  0.00    +0.000 A 
ATOM     12  C   UNL     1     111.391 126.139 138.777  0.00  0.00    +0.000 A 
ATOM     13  C   UNL     1     111.003 126.745 139.182  0.00  0.00    +0.000 A 
ENDROOT
BRANCH   5  18
ATOM     14  O   UNL     1     112.941 125.580 137.739  0.00  0.00    +0.000 OA
ATOM     15  O   UNL     1     110.892 125.295 137.040  0.00  0.00    +0.000 OA
ATOM     16  O   UNL     1     111.669 124.085 136.231  0.00  0.00    +0.000 OA
ATOM     17  O   UNL     1     113.293 123.871 136.426  0.00  0.00    +0.000 OA
ATOM     18  C   UNL     1     112.128 125.686 137.641  0.00  0.00    +0.000 C 
ATOM     19  C   UNL     1     111.705 125.188 137.138  0.00  0.00    +0.000 C 
ATOM     20  C   UNL     1     112.093 124.583 136.733  0.00  0.00    +0.000 C 
ATOM     21  C   UNL     1     112.905 124.476 136.831  0.00  0.00    +0.000 C 
ATOM     22  C   UNL     1     113.329 124.974 137.333  0.00  0.00    +0.000 C 
BRANCH  22  24
ATOM     23  O   UNL     1     114.560 125.350 137.953  0.00  0.00    +0.000 OA
ATOM     24  C   UNL     1     114.141 124.867 137.431  0.00  0.00    +0.000 C 
ENDBRANCH  22  24
ENDBRANCH   5  18
BRANCH   7  27
ATOM     25  O   UNL     1     108.189 130.527 139.358  0.00  0.00    +0.000 OA
ATOM     26  O   UNL     1     108.959 131.327 140.579  0.00  0.00    +0.000 OA
ATOM     27  C   UNL     1     110.124 129.516 139.357  0.00  0.00    +0.000 A 
ATOM     28  C   UNL     1     110.509 129.916 139.968  0.00  0.00    +0.000 A 
ATOM     29  C   UNL     1     109.350 129.720 139.154  0.00  0.00    +0.000 A 
ATOM     30  C   UNL     1     110.120 130.520 140.375  0.00  0.00    +0.000 A 
ATOM     31  C   UNL     1     108.963 130.324 139.561  0.00  0.00    +0.000 A 
ATOM     32  C   UNL     1     109.347 130.723 140.171  0.00  0.00    +0.000 A 
BRANCH  28  33
ATOM     33  O   UNL     1     111.282 129.713 140.172  0.00  0.00    +0.000 OA
BRANCH  33  41
ATOM     34  O   UNL     1     111.181 129.416 141.566  0.00  0.00    +0.000 OA
ATOM     35  O   UNL     1     113.072 130.944 142.029  0.00  0.00    +0.000 OA
ATOM     36  O   UNL     1     112.543 130.732 140.480  0.00  0.00    +0.000 OA
ATOM     37  O   UNL     1     112.340 130.138 143.269  0.00  0.00    +0.000 OA
ATOM     38  C   UNL     1     112.441 130.435 141.875  0.00  0.00    +0.000 C 
ATOM     39  C   UNL     1     112.177 130.328 141.100  0.00  0.00    +0.000 C 
ATOM     40  C   UNL     1     112.075 130.031 142.494  0.00  0.00    +0.000 C 
ATOM     41  C   UNL     1     111.546 129.819 140.945  0.00  0.00    +0.000 C 
ATOM     42  C   UNL     1     111.445 129.522 142.339  0.00  0.00    +0.000 C 
BRANCH  42  45
ATOM     43  O   UNL     1     110.509 129.498 143.420  0.00  0.00    +0.000 OA
ATOM     44  O   UNL     1     111.284 128.336 143.120  0.00  0.00    +0.000 OA
ATOM     45  C   UNL     1     111.079 129.119 142.960  0.00  0.00    +0.000 C 
ENDBRANCH  42  45
ENDBRANCH  33  41
ENDBRANCH  28  33
ENDBRANCH   7  27
TORSDOF 6
ENDMDL
