MODEL 1
REMARK VINA RESULT:      -9.9      0.000      0.000
REMARK  Name = 44257628
REMARK  4 active torsions:
REMARK  status: ('A' for Active; 'I' for Inactive)
REMARK    1  A    between atoms: O_2  and  C_15
REMARK    2  A    between atoms: O_2  and  C_17
REMARK    3  A    between atoms: C_14  and  C_16
REMARK    4  A    between atoms: C_24  and  C_26
REMARK                            x       y       z     vdW  Elec       q    Type
REMARK                         _______ _______ _______ _____ _____    ______ ____
ROOT
ATOM      1  O   UNL     1     112.442 126.407 136.305  0.00  0.00    +0.000 OA
ATOM      2  O   UNL     1     109.907 125.566 135.204  0.00  0.00    +0.000 OA
ATOM      3  O   UNL     1     110.844 124.606 135.733  0.00  0.00    +0.000 OA
ATOM      4  C   UNL     1     110.785 127.616 135.416  0.00  0.00    +0.000 A 
ATOM      5  C   UNL     1     111.535 127.416 135.785  0.00  0.00    +0.000 A 
ATOM      6  C   UNL     1     110.231 126.990 135.218  0.00  0.00    +0.000 A 
ATOM      7  C   UNL     1     111.720 126.593 135.951  0.00  0.00    +0.000 A 
ATOM      8  C   UNL     1     111.188 125.993 135.760  0.00  0.00    +0.000 A 
ATOM      9  C   UNL     1     110.433 126.173 135.391  0.00  0.00    +0.000 A 
ATOM     10  C   UNL     1     111.376 125.207 135.924  0.00  0.00    +0.000 A 
ATOM     11  C   UNL     1     112.631 125.621 136.469  0.00  0.00    +0.000 A 
ATOM     12  C   UNL     1     112.098 125.021 136.278  0.00  0.00    +0.000 A 
ENDROOT
BRANCH  11  13
ATOM     13  C   UNL     1     113.352 125.435 136.823  0.00  0.00    +0.000 A 
ATOM     14  C   UNL     1     113.968 125.127 136.368  0.00  0.00    +0.000 A 
ATOM     15  C   UNL     1     113.457 125.557 137.633  0.00  0.00    +0.000 A 
ATOM     16  C   UNL     1     114.689 124.942 136.723  0.00  0.00    +0.000 A 
ATOM     17  C   UNL     1     114.178 125.371 137.987  0.00  0.00    +0.000 A 
ATOM     18  C   UNL     1     114.794 125.063 137.532  0.00  0.00    +0.000 A 
ENDBRANCH  11  13
BRANCH   4  19
ATOM     19  O   UNL     1     110.599 128.403 135.253  0.00  0.00    +0.000 OA
BRANCH  19  28
ATOM     20  O   UNL     1     110.179 128.768 136.570  0.00  0.00    +0.000 OA
ATOM     21  O   UNL     1     108.372 130.159 135.608  0.00  0.00    +0.000 OA
ATOM     22  O   UNL     1     109.394 129.330 134.612  0.00  0.00    +0.000 OA
ATOM     23  O   UNL     1     108.554 130.060 137.244  0.00  0.00    +0.000 OA
ATOM     24  C   UNL     1     108.974 129.695 135.928  0.00  0.00    +0.000 C 
ATOM     25  C   UNL     1     109.486 129.281 135.430  0.00  0.00    +0.000 C 
ATOM     26  C   UNL     1     109.066 129.645 136.746  0.00  0.00    +0.000 C 
ATOM     27  C   UNL     1     109.668 129.182 137.067  0.00  0.00    +0.000 C 
ATOM     28  C   UNL     1     110.088 128.817 135.751  0.00  0.00    +0.000 C 
BRANCH  27  31
ATOM     29  O   UNL     1     110.295 129.627 138.272  0.00  0.00    +0.000 OA
ATOM     30  O   UNL     1     109.314 128.589 138.317  0.00  0.00    +0.000 OA
ATOM     31  C   UNL     1     109.759 129.133 137.885  0.00  0.00    +0.000 C 
ENDBRANCH  27  31
ENDBRANCH  19  28
ENDBRANCH   4  19
TORSDOF 4
ENDMDL
MODEL 2
REMARK VINA RESULT:      -9.5      1.209      1.996
REMARK  Name = 44257628
REMARK  4 active torsions:
REMARK  status: ('A' for Active; 'I' for Inactive)
REMARK    1  A    between atoms: O_2  and  C_15
REMARK    2  A    between atoms: O_2  and  C_17
REMARK    3  A    between atoms: C_14  and  C_16
REMARK    4  A    between atoms: C_24  and  C_26
REMARK                            x       y       z     vdW  Elec       q    Type
REMARK                         _______ _______ _______ _____ _____    ______ ____
ROOT
ATOM      1  O   UNL     1     112.735 126.973 136.343  0.00  0.00    +0.000 OA
ATOM      2  O   UNL     1     113.031 129.623 135.233  0.00  0.00    +0.000 OA
ATOM      3  O   UNL     1     114.172 128.892 135.727  0.00  0.00    +0.000 OA
ATOM      4  C   UNL     1     111.199 128.362 135.502  0.00  0.00    +0.000 A 
ATOM      5  C   UNL     1     111.554 127.665 135.860  0.00  0.00    +0.000 A 
ATOM      6  C   UNL     1     111.699 129.027 135.288  0.00  0.00    +0.000 A 
ATOM      7  C   UNL     1     112.401 127.644 135.999  0.00  0.00    +0.000 A 
ATOM      8  C   UNL     1     112.880 128.284 135.794  0.00  0.00    +0.000 A 
ATOM      9  C   UNL     1     112.544 128.988 135.435  0.00  0.00    +0.000 A 
ATOM     10  C   UNL     1     113.692 128.252 135.933  0.00  0.00    +0.000 A 
ATOM     11  C   UNL     1     113.548 126.941 136.482  0.00  0.00    +0.000 A 
ATOM     12  C   UNL     1     114.026 127.581 136.277  0.00  0.00    +0.000 A 
ENDROOT
BRANCH  11  13
ATOM     13  C   UNL     1     113.882 126.270 136.826  0.00  0.00    +0.000 A 
ATOM     14  C   UNL     1     113.819 126.148 137.640  0.00  0.00    +0.000 A 
ATOM     15  C   UNL     1     114.279 125.720 136.355  0.00  0.00    +0.000 A 
ATOM     16  C   UNL     1     114.153 125.477 137.983  0.00  0.00    +0.000 A 
ATOM     17  C   UNL     1     114.613 125.048 136.699  0.00  0.00    +0.000 A 
ATOM     18  C   UNL     1     114.550 124.927 137.513  0.00  0.00    +0.000 A 
ENDBRANCH  11  13
BRANCH   4  19
ATOM     19  O   UNL     1     110.386 128.390 135.364  0.00  0.00    +0.000 OA
BRANCH  19  28
ATOM     20  O   UNL     1     110.025 128.849 136.669  0.00  0.00    +0.000 OA
ATOM     21  O   UNL     1     108.200 130.202 135.686  0.00  0.00    +0.000 OA
ATOM     22  O   UNL     1     109.170 129.293 134.710  0.00  0.00    +0.000 OA
ATOM     23  O   UNL     1     108.447 130.209 137.317  0.00  0.00    +0.000 OA
ATOM     24  C   UNL     1     108.808 129.751 136.014  0.00  0.00    +0.000 C 
ATOM     25  C   UNL     1     109.294 129.296 135.525  0.00  0.00    +0.000 C 
ATOM     26  C   UNL     1     108.932 129.754 136.829  0.00  0.00    +0.000 C 
ATOM     27  C   UNL     1     109.540 129.303 137.157  0.00  0.00    +0.000 C 
ATOM     28  C   UNL     1     109.902 128.845 135.852  0.00  0.00    +0.000 C 
BRANCH  27  31
ATOM     29  O   UNL     1     110.149 129.879 138.314  0.00  0.00    +0.000 OA
ATOM     30  O   UNL     1     109.299 128.738 138.446  0.00  0.00    +0.000 OA
ATOM     31  C   UNL     1     109.663 129.307 137.972  0.00  0.00    +0.000 C 
ENDBRANCH  27  31
ENDBRANCH  19  28
ENDBRANCH   4  19
TORSDOF 4
ENDMDL
MODEL 3
REMARK VINA RESULT:      -9.4     12.128     14.274
REMARK  Name = 44257628
REMARK  4 active torsions:
REMARK  status: ('A' for Active; 'I' for Inactive)
REMARK    1  A    between atoms: O_2  and  C_15
REMARK    2  A    between atoms: O_2  and  C_17
REMARK    3  A    between atoms: C_14  and  C_16
REMARK    4  A    between atoms: C_24  and  C_26
REMARK                            x       y       z     vdW  Elec       q    Type
REMARK                         _______ _______ _______ _____ _____    ______ ____
ROOT
ATOM      1  O   UNL     1     103.054 124.043 147.638  0.00  0.00    +0.000 OA
ATOM      2  O   UNL     1     103.532 126.517 149.050  0.00  0.00    +0.000 OA
ATOM      3  O   UNL     1     102.281 126.276 148.376  0.00  0.00    +0.000 OA
ATOM      4  C   UNL     1     104.853 124.729 148.772  0.00  0.00    +0.000 A 
ATOM      5  C   UNL     1     104.332 124.235 148.300  0.00  0.00    +0.000 A 
ATOM      6  C   UNL     1     104.584 125.504 149.028  0.00  0.00    +0.000 A 
ATOM      7  C   UNL     1     103.549 124.522 148.091  0.00  0.00    +0.000 A 
ATOM      8  C   UNL     1     103.292 125.266 148.337  0.00  0.00    +0.000 A 
ATOM      9  C   UNL     1     103.799 125.774 148.809  0.00  0.00    +0.000 A 
ATOM     10  C   UNL     1     102.539 125.531 148.130  0.00  0.00    +0.000 A 
ATOM     11  C   UNL     1     102.300 124.308 147.431  0.00  0.00    +0.000 A 
ATOM     12  C   UNL     1     102.043 125.052 147.677  0.00  0.00    +0.000 A 
ENDROOT
BRANCH  11  13
ATOM     13  C   UNL     1     101.804 123.829 146.978  0.00  0.00    +0.000 A 
ATOM     14  C   UNL     1     101.906 123.787 146.160  0.00  0.00    +0.000 A 
ATOM     15  C   UNL     1     101.207 123.392 147.343  0.00  0.00    +0.000 A 
ATOM     16  C   UNL     1     101.409 123.308 145.708  0.00  0.00    +0.000 A 
ATOM     17  C   UNL     1     100.711 122.913 146.890  0.00  0.00    +0.000 A 
ATOM     18  C   UNL     1     100.812 122.871 146.073  0.00  0.00    +0.000 A 
ENDBRANCH  11  13
BRANCH   4  19
ATOM     19  O   UNL     1     105.606 124.462 148.978  0.00  0.00    +0.000 OA
BRANCH  19  28
ATOM     20  O   UNL     1     106.147 124.899 147.730  0.00  0.00    +0.000 OA
ATOM     21  O   UNL     1     108.429 124.791 148.681  0.00  0.00    +0.000 OA
ATOM     22  O   UNL     1     107.128 124.389 149.612  0.00  0.00    +0.000 OA
ATOM     23  O   UNL     1     108.209 125.265 147.116  0.00  0.00    +0.000 OA
ATOM     24  C   UNL     1     107.668 124.827 148.364  0.00  0.00    +0.000 C 
ATOM     25  C   UNL     1     107.017 124.626 148.830  0.00  0.00    +0.000 C 
ATOM     26  C   UNL     1     107.557 125.064 147.581  0.00  0.00    +0.000 C 
ATOM     27  C   UNL     1     106.797 125.100 147.264  0.00  0.00    +0.000 C 
ATOM     28  C   UNL     1     106.256 124.662 148.513  0.00  0.00    +0.000 C 
BRANCH  27  31
ATOM     29  O   UNL     1     106.573 126.135 146.304  0.00  0.00    +0.000 OA
ATOM     30  O   UNL     1     106.691 124.776 145.878  0.00  0.00    +0.000 OA
ATOM     31  C   UNL     1     106.687 125.337 146.483  0.00  0.00    +0.000 C 
ENDBRANCH  27  31
ENDBRANCH  19  28
ENDBRANCH   4  19
TORSDOF 4
ENDMDL
MODEL 4
REMARK VINA RESULT:      -9.4      1.461      2.434
REMARK  Name = 44257628
REMARK  4 active torsions:
REMARK  status: ('A' for Active; 'I' for Inactive)
REMARK    1  A    between atoms: O_2  and  C_15
REMARK    2  A    between atoms: O_2  and  C_17
REMARK    3  A    between atoms: C_14  and  C_16
REMARK    4  A    between atoms: C_24  and  C_26
REMARK                            x       y       z     vdW  Elec       q    Type
REMARK                         _______ _______ _______ _____ _____    ______ ____
ROOT
ATOM      1  O   UNL     1     112.752 127.001 137.127  0.00  0.00    +0.000 OA
ATOM      2  O   UNL     1     113.127 129.561 135.842  0.00  0.00    +0.000 OA
ATOM      3  O   UNL     1     114.061 128.482 135.637  0.00  0.00    +0.000 OA
ATOM      4  C   UNL     1     111.513 128.859 137.227  0.00  0.00    +0.000 A 
ATOM      5  C   UNL     1     111.781 128.054 137.367  0.00  0.00    +0.000 A 
ATOM      6  C   UNL     1     111.968 129.372 136.710  0.00  0.00    +0.000 A 
ATOM      7  C   UNL     1     112.499 127.775 136.989  0.00  0.00    +0.000 A 
ATOM      8  C   UNL     1     112.936 128.268 136.492  0.00  0.00    +0.000 A 
ATOM      9  C   UNL     1     112.684 129.075 136.340  0.00  0.00    +0.000 A 
ATOM     10  C   UNL     1     113.624 127.989 136.134  0.00  0.00    +0.000 A 
ATOM     11  C   UNL     1     113.440 126.722 136.769  0.00  0.00    +0.000 A 
ATOM     12  C   UNL     1     113.877 127.215 136.272  0.00  0.00    +0.000 A 
ENDROOT
BRANCH  11  13
ATOM     13  C   UNL     1     113.693 125.948 136.907  0.00  0.00    +0.000 A 
ATOM     14  C   UNL     1     113.351 125.322 136.492  0.00  0.00    +0.000 A 
ATOM     15  C   UNL     1     114.287 125.802 137.460  0.00  0.00    +0.000 A 
ATOM     16  C   UNL     1     113.603 124.550 136.631  0.00  0.00    +0.000 A 
ATOM     17  C   UNL     1     114.540 125.028 137.598  0.00  0.00    +0.000 A 
ATOM     18  C   UNL     1     114.198 124.402 137.184  0.00  0.00    +0.000 A 
ENDBRANCH  11  13
BRANCH   4  19
ATOM     19  O   UNL     1     110.824 129.136 137.587  0.00  0.00    +0.000 OA
BRANCH  19  28
ATOM     20  O   UNL     1     109.889 128.529 136.693  0.00  0.00    +0.000 OA
ATOM     21  O   UNL     1     108.470 130.555 136.802  0.00  0.00    +0.000 OA
ATOM     22  O   UNL     1     109.878 130.486 137.660  0.00  0.00    +0.000 OA
ATOM     23  O   UNL     1     108.009 129.274 135.872  0.00  0.00    +0.000 OA
ATOM     24  C   UNL     1     108.943 129.880 136.766  0.00  0.00    +0.000 C 
ATOM     25  C   UNL     1     109.648 129.845 137.195  0.00  0.00    +0.000 C 
ATOM     26  C   UNL     1     108.713 129.239 136.301  0.00  0.00    +0.000 C 
ATOM     27  C   UNL     1     109.185 128.564 136.264  0.00  0.00    +0.000 C 
ATOM     28  C   UNL     1     110.120 129.170 137.158  0.00  0.00    +0.000 C 
BRANCH  27  31
ATOM     29  O   UNL     1     109.216 127.863 135.019  0.00  0.00    +0.000 OA
ATOM     30  O   UNL     1     108.461 127.342 136.114  0.00  0.00    +0.000 OA
ATOM     31  C   UNL     1     108.954 127.923 135.799  0.00  0.00    +0.000 C 
ENDBRANCH  27  31
ENDBRANCH  19  28
ENDBRANCH   4  19
TORSDOF 4
ENDMDL
MODEL 5
REMARK VINA RESULT:      -9.4      7.164     10.176
REMARK  Name = 44257628
REMARK  4 active torsions:
REMARK  status: ('A' for Active; 'I' for Inactive)
REMARK    1  A    between atoms: O_2  and  C_15
REMARK    2  A    between atoms: O_2  and  C_17
REMARK    3  A    between atoms: C_14  and  C_16
REMARK    4  A    between atoms: C_24  and  C_26
REMARK                            x       y       z     vdW  Elec       q    Type
REMARK                         _______ _______ _______ _____ _____    ______ ____
ROOT
ATOM      1  O   UNL     1     103.140 130.272 141.988  0.00  0.00    +0.000 OA
ATOM      2  O   UNL     1     103.681 128.020 140.261  0.00  0.00    +0.000 OA
ATOM      3  O   UNL     1     102.744 129.046 139.874  0.00  0.00    +0.000 OA
ATOM      4  C   UNL     1     104.512 128.531 142.277  0.00  0.00    +0.000 A 
ATOM      5  C   UNL     1     104.092 129.267 142.426  0.00  0.00    +0.000 A 
ATOM      6  C   UNL     1     104.374 128.106 141.543  0.00  0.00    +0.000 A 
ATOM      7  C   UNL     1     103.540 129.566 141.839  0.00  0.00    +0.000 A 
ATOM      8  C   UNL     1     103.409 129.157 141.135  0.00  0.00    +0.000 A 
ATOM      9  C   UNL     1     103.819 128.421 140.969  0.00  0.00    +0.000 A 
ATOM     10  C   UNL     1     102.877 129.455 140.579  0.00  0.00    +0.000 A 
ATOM     11  C   UNL     1     102.608 130.569 141.431  0.00  0.00    +0.000 A 
ATOM     12  C   UNL     1     102.476 130.161 140.727  0.00  0.00    +0.000 A 
ENDROOT
BRANCH  11  13
ATOM     13  C   UNL     1     102.208 131.275 141.580  0.00  0.00    +0.000 A 
ATOM     14  C   UNL     1     101.449 131.259 141.903  0.00  0.00    +0.000 A 
ATOM     15  C   UNL     1     102.567 131.998 141.405  0.00  0.00    +0.000 A 
ATOM     16  C   UNL     1     101.049 131.965 142.051  0.00  0.00    +0.000 A 
ATOM     17  C   UNL     1     102.167 132.704 141.553  0.00  0.00    +0.000 A 
ATOM     18  C   UNL     1     101.408 132.687 141.876  0.00  0.00    +0.000 A 
ENDBRANCH  11  13
BRANCH   4  19
ATOM     19  O   UNL     1     105.043 128.236 142.835  0.00  0.00    +0.000 OA
BRANCH  19  28
ATOM     20  O   UNL     1     106.196 128.875 142.282  0.00  0.00    +0.000 OA
ATOM     21  O   UNL     1     107.593 126.952 142.974  0.00  0.00    +0.000 OA
ATOM     22  O   UNL     1     105.975 126.955 143.297  0.00  0.00    +0.000 OA
ATOM     23  O   UNL     1     108.279 128.231 142.190  0.00  0.00    +0.000 OA
ATOM     24  C   UNL     1     107.127 127.593 142.743  0.00  0.00    +0.000 C 
ATOM     25  C   UNL     1     106.317 127.595 142.905  0.00  0.00    +0.000 C 
ATOM     26  C   UNL     1     107.470 128.233 142.351  0.00  0.00    +0.000 C 
ATOM     27  C   UNL     1     107.004 128.873 142.120  0.00  0.00    +0.000 C 
ATOM     28  C   UNL     1     105.852 128.235 142.674  0.00  0.00    +0.000 C 
BRANCH  27  31
ATOM     29  O   UNL     1     107.424 129.501 140.907  0.00  0.00    +0.000 OA
ATOM     30  O   UNL     1     107.615 130.164 142.158  0.00  0.00    +0.000 OA
ATOM     31  C   UNL     1     107.348 129.512 141.728  0.00  0.00    +0.000 C 
ENDBRANCH  27  31
ENDBRANCH  19  28
ENDBRANCH   4  19
TORSDOF 4
ENDMDL
MODEL 6
REMARK VINA RESULT:      -9.3      1.510      2.331
REMARK  Name = 44257628
REMARK  4 active torsions:
REMARK  status: ('A' for Active; 'I' for Inactive)
REMARK    1  A    between atoms: O_2  and  C_15
REMARK    2  A    between atoms: O_2  and  C_17
REMARK    3  A    between atoms: C_14  and  C_16
REMARK    4  A    between atoms: C_24  and  C_26
REMARK                            x       y       z     vdW  Elec       q    Type
REMARK                         _______ _______ _______ _____ _____    ______ ____
ROOT
ATOM      1  O   UNL     1     112.930 127.000 136.607  0.00  0.00    +0.000 OA
ATOM      2  O   UNL     1     112.304 129.220 138.347  0.00  0.00    +0.000 OA
ATOM      3  O   UNL     1     113.175 128.156 138.782  0.00  0.00    +0.000 OA
ATOM      4  C   UNL     1     111.636 128.788 136.253  0.00  0.00    +0.000 A 
ATOM      5  C   UNL     1     112.047 128.045 136.119  0.00  0.00    +0.000 A 
ATOM      6  C   UNL     1     111.721 129.189 137.008  0.00  0.00    +0.000 A 
ATOM      7  C   UNL     1     112.538 127.714 136.741  0.00  0.00    +0.000 A 
ATOM      8  C   UNL     1     112.619 128.099 137.466  0.00  0.00    +0.000 A 
ATOM      9  C   UNL     1     112.216 128.842 137.619  0.00  0.00    +0.000 A 
ATOM     10  C   UNL     1     113.093 127.771 138.057  0.00  0.00    +0.000 A 
ATOM     11  C   UNL     1     113.404 126.672 137.197  0.00  0.00    +0.000 A 
ATOM     12  C   UNL     1     113.485 127.058 137.922  0.00  0.00    +0.000 A 
ENDROOT
BRANCH  11  13
ATOM     13  C   UNL     1     113.796 125.959 137.062  0.00  0.00    +0.000 A 
ATOM     14  C   UNL     1     114.475 125.944 136.595  0.00  0.00    +0.000 A 
ATOM     15  C   UNL     1     113.508 125.261 137.396  0.00  0.00    +0.000 A 
ATOM     16  C   UNL     1     114.867 125.230 136.461  0.00  0.00    +0.000 A 
ATOM     17  C   UNL     1     113.900 124.548 137.261  0.00  0.00    +0.000 A 
ATOM     18  C   UNL     1     114.580 124.532 136.794  0.00  0.00    +0.000 A 
ENDBRANCH  11  13
BRANCH   4  19
ATOM     19  O   UNL     1     111.163 129.114 135.661  0.00  0.00    +0.000 OA
BRANCH  19  28
ATOM     20  O   UNL     1     110.022 128.282 135.880  0.00  0.00    +0.000 OA
ATOM     21  O   UNL     1     108.532 130.194 135.378  0.00  0.00    +0.000 OA
ATOM     22  O   UNL     1     110.170 130.388 135.326  0.00  0.00    +0.000 OA
ATOM     23  O   UNL     1     107.888 128.726 135.765  0.00  0.00    +0.000 OA
ATOM     24  C   UNL     1     109.028 129.557 135.545  0.00  0.00    +0.000 C 
ATOM     25  C   UNL     1     109.848 129.654 135.519  0.00  0.00    +0.000 C 
ATOM     26  C   UNL     1     108.707 128.822 135.739  0.00  0.00    +0.000 C 
ATOM     27  C   UNL     1     109.204 128.185 135.906  0.00  0.00    +0.000 C 
ATOM     28  C   UNL     1     110.345 129.017 135.687  0.00  0.00    +0.000 C 
BRANCH  27  31
ATOM     29  O   UNL     1     108.687 127.278 136.883  0.00  0.00    +0.000 OA
ATOM     30  O   UNL     1     108.753 126.889 135.510  0.00  0.00    +0.000 OA
ATOM     31  C   UNL     1     108.881 127.451 136.100  0.00  0.00    +0.000 C 
ENDBRANCH  27  31
ENDBRANCH  19  28
ENDBRANCH   4  19
TORSDOF 4
ENDMDL
MODEL 7
REMARK VINA RESULT:      -9.2      7.194      8.522
REMARK  Name = 44257628
REMARK  4 active torsions:
REMARK  status: ('A' for Active; 'I' for Inactive)
REMARK    1  A    between atoms: O_2  and  C_15
REMARK    2  A    between atoms: O_2  and  C_17
REMARK    3  A    between atoms: C_14  and  C_16
REMARK    4  A    between atoms: C_24  and  C_26
REMARK                            x       y       z     vdW  Elec       q    Type
REMARK                         _______ _______ _______ _____ _____    ______ ____
ROOT
ATOM      1  O   UNL     1     104.807 124.640 139.852  0.00  0.00    +0.000 OA
ATOM      2  O   UNL     1     107.200 123.586 141.082  0.00  0.00    +0.000 OA
ATOM      3  O   UNL     1     106.326 122.739 140.307  0.00  0.00    +0.000 OA
ATOM      4  C   UNL     1     106.357 125.661 141.098  0.00  0.00    +0.000 A 
ATOM      5  C   UNL     1     105.652 125.536 140.621  0.00  0.00    +0.000 A 
ATOM      6  C   UNL     1     106.883 125.001 141.256  0.00  0.00    +0.000 A 
ATOM      7  C   UNL     1     105.485 124.754 140.309  0.00  0.00    +0.000 A 
ATOM      8  C   UNL     1     105.991 124.120 140.461  0.00  0.00    +0.000 A 
ATOM      9  C   UNL     1     106.700 124.226 140.935  0.00  0.00    +0.000 A 
ATOM     10  C   UNL     1     105.820 123.373 140.156  0.00  0.00    +0.000 A 
ATOM     11  C   UNL     1     104.636 123.893 139.547  0.00  0.00    +0.000 A 
ATOM     12  C   UNL     1     105.143 123.260 139.699  0.00  0.00    +0.000 A 
ENDROOT
BRANCH  11  13
ATOM     13  C   UNL     1     103.959 123.779 139.090  0.00  0.00    +0.000 A 
ATOM     14  C   UNL     1     103.996 123.861 138.270  0.00  0.00    +0.000 A 
ATOM     15  C   UNL     1     103.244 123.583 139.454  0.00  0.00    +0.000 A 
ATOM     16  C   UNL     1     103.318 123.747 137.814  0.00  0.00    +0.000 A 
ATOM     17  C   UNL     1     102.567 123.470 138.997  0.00  0.00    +0.000 A 
ATOM     18  C   UNL     1     102.604 123.552 138.177  0.00  0.00    +0.000 A 
ENDBRANCH  11  13
BRANCH   4  19
ATOM     19  O   UNL     1     106.525 126.410 141.402  0.00  0.00    +0.000 OA
BRANCH  19  28
ATOM     20  O   UNL     1     106.253 126.152 142.781  0.00  0.00    +0.000 OA
ATOM     21  O   UNL     1     105.112 128.340 142.965  0.00  0.00    +0.000 OA
ATOM     22  O   UNL     1     105.765 127.869 141.525  0.00  0.00    +0.000 OA
ATOM     23  O   UNL     1     105.220 127.353 144.282  0.00  0.00    +0.000 OA
ATOM     24  C   UNL     1     105.493 127.611 142.904  0.00  0.00    +0.000 C 
ATOM     25  C   UNL     1     105.819 127.375 142.183  0.00  0.00    +0.000 C 
ATOM     26  C   UNL     1     105.547 127.117 143.562  0.00  0.00    +0.000 C 
ATOM     27  C   UNL     1     105.927 126.387 143.501  0.00  0.00    +0.000 C 
ATOM     28  C   UNL     1     106.199 126.645 142.122  0.00  0.00    +0.000 C 
BRANCH  27  31
ATOM     29  O   UNL     1     106.669 125.886 144.615  0.00  0.00    +0.000 OA
ATOM     30  O   UNL     1     105.346 125.407 144.363  0.00  0.00    +0.000 OA
ATOM     31  C   UNL     1     105.981 125.894 144.159  0.00  0.00    +0.000 C 
ENDBRANCH  27  31
ENDBRANCH  19  28
ENDBRANCH   4  19
TORSDOF 4
ENDMDL
MODEL 8
REMARK VINA RESULT:      -9.2      8.456     10.367
REMARK  Name = 44257628
REMARK  4 active torsions:
REMARK  status: ('A' for Active; 'I' for Inactive)
REMARK    1  A    between atoms: O_2  and  C_15
REMARK    2  A    between atoms: O_2  and  C_17
REMARK    3  A    between atoms: C_14  and  C_16
REMARK    4  A    between atoms: C_24  and  C_26
REMARK                            x       y       z     vdW  Elec       q    Type
REMARK                         _______ _______ _______ _____ _____    ______ ____
ROOT
ATOM      1  O   UNL     1     106.614 125.658 146.340  0.00  0.00    +0.000 OA
ATOM      2  O   UNL     1     105.957 128.313 145.409  0.00  0.00    +0.000 OA
ATOM      3  O   UNL     1     106.531 128.104 146.715  0.00  0.00    +0.000 OA
ATOM      4  C   UNL     1     105.727 126.326 144.400  0.00  0.00    +0.000 A 
ATOM      5  C   UNL     1     106.038 125.813 145.015  0.00  0.00    +0.000 A 
ATOM      6  C   UNL     1     105.698 127.175 144.531  0.00  0.00    +0.000 A 
ATOM      7  C   UNL     1     106.316 126.156 145.753  0.00  0.00    +0.000 A 
ATOM      8  C   UNL     1     106.288 126.971 145.878  0.00  0.00    +0.000 A 
ATOM      9  C   UNL     1     105.981 127.499 145.274  0.00  0.00    +0.000 A 
ATOM     10  C   UNL     1     106.558 127.288 146.590  0.00  0.00    +0.000 A 
ATOM     11  C   UNL     1     106.884 125.976 147.052  0.00  0.00    +0.000 A 
ATOM     12  C   UNL     1     106.856 126.791 147.177  0.00  0.00    +0.000 A 
ENDROOT
BRANCH  11  13
ATOM     13  C   UNL     1     107.181 125.478 147.639  0.00  0.00    +0.000 A 
ATOM     14  C   UNL     1     106.672 125.150 148.198  0.00  0.00    +0.000 A 
ATOM     15  C   UNL     1     107.989 125.310 147.666  0.00  0.00    +0.000 A 
ATOM     16  C   UNL     1     106.970 124.653 148.785  0.00  0.00    +0.000 A 
ATOM     17  C   UNL     1     108.287 124.812 148.253  0.00  0.00    +0.000 A 
ATOM     18  C   UNL     1     107.777 124.484 148.812  0.00  0.00    +0.000 A 
ENDBRANCH  11  13
BRANCH   4  19
ATOM     19  O   UNL     1     105.458 126.006 143.689  0.00  0.00    +0.000 OA
BRANCH  19  28
ATOM     20  O   UNL     1     106.551 126.401 142.857  0.00  0.00    +0.000 OA
ATOM     21  O   UNL     1     106.483 124.202 141.724  0.00  0.00    +0.000 OA
ATOM     22  O   UNL     1     105.413 124.540 142.933  0.00  0.00    +0.000 OA
ATOM     23  O   UNL     1     107.597 125.330 141.270  0.00  0.00    +0.000 OA
ATOM     24  C   UNL     1     106.505 124.935 142.101  0.00  0.00    +0.000 C 
ATOM     25  C   UNL     1     105.970 125.104 142.707  0.00  0.00    +0.000 C 
ATOM     26  C   UNL     1     107.063 125.499 141.875  0.00  0.00    +0.000 C 
ATOM     27  C   UNL     1     107.085 126.233 142.252  0.00  0.00    +0.000 C 
ATOM     28  C   UNL     1     105.993 125.837 143.084  0.00  0.00    +0.000 C 
BRANCH  27  31
ATOM     29  O   UNL     1     107.457 127.349 141.442  0.00  0.00    +0.000 OA
ATOM     30  O   UNL     1     108.386 126.807 142.381  0.00  0.00    +0.000 OA
ATOM     31  C   UNL     1     107.642 126.796 142.025  0.00  0.00    +0.000 C 
ENDBRANCH  27  31
ENDBRANCH  19  28
ENDBRANCH   4  19
TORSDOF 4
ENDMDL
MODEL 9
REMARK VINA RESULT:      -9.2      1.282      2.150
REMARK  Name = 44257628
REMARK  4 active torsions:
REMARK  status: ('A' for Active; 'I' for Inactive)
REMARK    1  A    between atoms: O_2  and  C_15
REMARK    2  A    between atoms: O_2  and  C_17
REMARK    3  A    between atoms: C_14  and  C_16
REMARK    4  A    between atoms: C_24  and  C_26
REMARK                            x       y       z     vdW  Elec       q    Type
REMARK                         _______ _______ _______ _____ _____    ______ ____
ROOT
ATOM      1  O   UNL     1     111.017 125.891 136.765  0.00  0.00    +0.000 OA
ATOM      2  O   UNL     1     108.919 126.551 134.891  0.00  0.00    +0.000 OA
ATOM      3  O   UNL     1     109.851 125.484 134.619  0.00  0.00    +0.000 OA
ATOM      4  C   UNL     1     109.429 127.461 136.873  0.00  0.00    +0.000 A 
ATOM      5  C   UNL     1     110.105 126.975 137.087  0.00  0.00    +0.000 A 
ATOM      6  C   UNL     1     109.025 127.319 136.128  0.00  0.00    +0.000 A 
ATOM      7  C   UNL     1     110.367 126.355 136.554  0.00  0.00    +0.000 A 
ATOM      8  C   UNL     1     109.979 126.219 135.839  0.00  0.00    +0.000 A 
ATOM      9  C   UNL     1     109.302 126.694 135.608  0.00  0.00    +0.000 A 
ATOM     10  C   UNL     1     110.239 125.620 135.335  0.00  0.00    +0.000 A 
ATOM     11  C   UNL     1     111.277 125.293 136.261  0.00  0.00    +0.000 A 
ATOM     12  C   UNL     1     110.889 125.157 135.546  0.00  0.00    +0.000 A 
ENDROOT
BRANCH  11  13
ATOM     13  C   UNL     1     111.927 124.829 136.472  0.00  0.00    +0.000 A 
ATOM     14  C   UNL     1     112.692 125.115 136.356  0.00  0.00    +0.000 A 
ATOM     15  C   UNL     1     111.810 124.080 136.799  0.00  0.00    +0.000 A 
ATOM     16  C   UNL     1     113.340 124.651 136.567  0.00  0.00    +0.000 A 
ATOM     17  C   UNL     1     112.459 123.617 137.010  0.00  0.00    +0.000 A 
ATOM     18  C   UNL     1     113.224 123.902 136.894  0.00  0.00    +0.000 A 
ENDBRANCH  11  13
BRANCH   4  19
ATOM     19  O   UNL     1     109.170 128.059 137.379  0.00  0.00    +0.000 OA
BRANCH  19  28
ATOM     20  O   UNL     1     109.885 129.115 136.734  0.00  0.00    +0.000 OA
ATOM     21  O   UNL     1     110.225 130.222 138.921  0.00  0.00    +0.000 OA
ATOM     22  O   UNL     1     109.397 128.797 138.837  0.00  0.00    +0.000 OA
ATOM     23  O   UNL     1     110.826 130.908 137.547  0.00  0.00    +0.000 OA
ATOM     24  C   UNL     1     110.112 129.853 138.192  0.00  0.00    +0.000 C 
ATOM     25  C   UNL     1     109.697 129.140 138.150  0.00  0.00    +0.000 C 
ATOM     26  C   UNL     1     110.412 130.196 137.505  0.00  0.00    +0.000 C 
ATOM     27  C   UNL     1     110.299 129.827 136.776  0.00  0.00    +0.000 C 
ATOM     28  C   UNL     1     109.584 128.771 137.421  0.00  0.00    +0.000 C 
BRANCH  27  31
ATOM     29  O   UNL     1     110.126 130.673 135.637  0.00  0.00    +0.000 OA
ATOM     30  O   UNL     1     111.374 130.012 135.853  0.00  0.00    +0.000 OA
ATOM     31  C   UNL     1     110.599 130.170 136.089  0.00  0.00    +0.000 C 
ENDBRANCH  27  31
ENDBRANCH  19  28
ENDBRANCH   4  19
TORSDOF 4
ENDMDL
MODEL 10
REMARK VINA RESULT:      -9.1      3.415      4.769
REMARK  Name = 44257628
REMARK  4 active torsions:
REMARK  status: ('A' for Active; 'I' for Inactive)
REMARK    1  A    between atoms: O_2  and  C_15
REMARK    2  A    between atoms: O_2  and  C_17
REMARK    3  A    between atoms: C_14  and  C_16
REMARK    4  A    between atoms: C_24  and  C_26
REMARK                            x       y       z     vdW  Elec       q    Type
REMARK                         _______ _______ _______ _____ _____    ______ ____
ROOT
ATOM      1  O   UNL     1     113.614 126.302 138.728  0.00  0.00    +0.000 OA
ATOM      2  O   UNL     1     110.890 126.627 139.632  0.00  0.00    +0.000 OA
ATOM      3  O   UNL     1     111.187 125.945 138.397  0.00  0.00    +0.000 OA
ATOM      4  C   UNL     1     112.814 127.292 140.566  0.00  0.00    +0.000 A 
ATOM      5  C   UNL     1     113.370 126.997 139.980  0.00  0.00    +0.000 A 
ATOM      6  C   UNL     1     111.972 127.168 140.450  0.00  0.00    +0.000 A 
ATOM      7  C   UNL     1     113.076 126.583 139.287  0.00  0.00    +0.000 A 
ATOM      8  C   UNL     1     112.267 126.464 139.177  0.00  0.00    +0.000 A 
ATOM      9  C   UNL     1     111.697 126.751 139.751  0.00  0.00    +0.000 A 
ATOM     10  C   UNL     1     111.997 126.064 138.508  0.00  0.00    +0.000 A 
ATOM     11  C   UNL     1     113.344 125.903 138.059  0.00  0.00    +0.000 A 
ATOM     12  C   UNL     1     112.535 125.784 137.949  0.00  0.00    +0.000 A 
ENDROOT
BRANCH  11  13
ATOM     13  C   UNL     1     113.882 125.622 137.500  0.00  0.00    +0.000 A 
ATOM     14  C   UNL     1     114.047 126.069 136.826  0.00  0.00    +0.000 A 
ATOM     15  C   UNL     1     114.255 124.895 137.616  0.00  0.00    +0.000 A 
ATOM     16  C   UNL     1     114.585 125.788 136.268  0.00  0.00    +0.000 A 
ATOM     17  C   UNL     1     114.793 124.615 137.057  0.00  0.00    +0.000 A 
ATOM     18  C   UNL     1     114.958 125.061 136.383  0.00  0.00    +0.000 A 
ENDBRANCH  11  13
BRANCH   4  19
ATOM     19  O   UNL     1     113.088 127.691 141.234  0.00  0.00    +0.000 OA
BRANCH  19  28
ATOM     20  O   UNL     1     113.460 128.942 140.652  0.00  0.00    +0.000 OA
ATOM     21  O   UNL     1     112.332 130.139 142.501  0.00  0.00    +0.000 OA
ATOM     22  O   UNL     1     112.335 128.489 142.467  0.00  0.00    +0.000 OA
ATOM     23  O   UNL     1     113.081 130.990 141.303  0.00  0.00    +0.000 OA
ATOM     24  C   UNL     1     112.708 129.740 141.885  0.00  0.00    +0.000 C 
ATOM     25  C   UNL     1     112.710 128.914 141.867  0.00  0.00    +0.000 C 
ATOM     26  C   UNL     1     113.083 130.165 141.285  0.00  0.00    +0.000 C 
ATOM     27  C   UNL     1     113.459 129.766 140.669  0.00  0.00    +0.000 C 
ATOM     28  C   UNL     1     113.086 128.515 141.251  0.00  0.00    +0.000 C 
BRANCH  27  31
ATOM     29  O   UNL     1     113.394 130.486 139.436  0.00  0.00    +0.000 OA
ATOM     30  O   UNL     1     114.647 130.324 140.105  0.00  0.00    +0.000 OA
ATOM     31  C   UNL     1     113.833 130.192 140.070  0.00  0.00    +0.000 C 
ENDBRANCH  27  31
ENDBRANCH  19  28
ENDBRANCH   4  19
TORSDOF 4
ENDMDL
