MODEL 1
REMARK VINA RESULT:      -9.9      0.000      0.000
REMARK  Name = 44258306
REMARK  4 active torsions:
REMARK  status: ('A' for Active; 'I' for Inactive)
REMARK    1  A    between atoms: O_7  and  C_21
REMARK    2  A    between atoms: O_9  and  C_31
REMARK    3  A    between atoms: C_12  and  C_15
REMARK    4  A    between atoms: C_23  and  C_25
REMARK                            x       y       z     vdW  Elec       q    Type
REMARK                         _______ _______ _______ _____ _____    ______ ____
ROOT
ATOM      1  O   UNL     1     105.019 125.055 147.204  0.00  0.00    +0.000 OA
ATOM      2  O   UNL     1     107.727 125.860 146.639  0.00  0.00    +0.000 OA
ATOM      3  O   UNL     1     105.760 124.304 149.506  0.00  0.00    +0.000 OA
ATOM      4  C   UNL     1     106.388 125.457 146.932  0.00  0.00    +0.000 A 
ATOM      5  C   UNL     1     105.838 125.132 147.454  0.00  0.00    +0.000 A 
ATOM      6  C   UNL     1     107.176 125.535 147.162  0.00  0.00    +0.000 A 
ATOM      7  C   UNL     1     106.076 124.886 148.205  0.00  0.00    +0.000 A 
ATOM      8  C   UNL     1     107.415 125.290 147.912  0.00  0.00    +0.000 A 
ATOM      9  C   UNL     1     106.865 124.965 148.434  0.00  0.00    +0.000 A 
ATOM     10  C   UNL     1     105.512 124.546 148.758  0.00  0.00    +0.000 A 
ATOM     11  C   UNL     1     104.442 124.718 147.743  0.00  0.00    +0.000 A 
ATOM     12  C   UNL     1     104.690 124.462 148.525  0.00  0.00    +0.000 A 
ENDROOT
BRANCH   4  19
ATOM     13  O   UNL     1     105.813 126.448 146.080  0.00  0.00    +0.000 OA
ATOM     14  O   UNL     1     106.586 124.456 145.635  0.00  0.00    +0.000 OA
ATOM     15  O   UNL     1     106.109 124.947 144.134  0.00  0.00    +0.000 OA
ATOM     16  O   UNL     1     105.435 126.439 143.930  0.00  0.00    +0.000 OA
ATOM     17  C   UNL     1     106.249 125.202 145.534  0.00  0.00    +0.000 C 
ATOM     18  C   UNL     1     106.010 125.448 144.783  0.00  0.00    +0.000 C 
ATOM     19  C   UNL     1     106.150 125.702 146.182  0.00  0.00    +0.000 C 
ATOM     20  C   UNL     1     105.673 126.194 144.680  0.00  0.00    +0.000 C 
ATOM     21  C   UNL     1     105.574 126.693 145.329  0.00  0.00    +0.000 C 
ATOM     22  C   UNL     1     105.237 127.440 145.227  0.00  0.00    +0.000 C 
ENDBRANCH   4  19
BRANCH  11  23
ATOM     23  C   UNL     1     103.653 124.640 147.511  0.00  0.00    +0.000 A 
ATOM     24  C   UNL     1     103.420 123.993 147.056  0.00  0.00    +0.000 A 
ATOM     25  C   UNL     1     103.099 125.209 147.734  0.00  0.00    +0.000 A 
ATOM     26  C   UNL     1     102.632 123.915 146.823  0.00  0.00    +0.000 A 
ATOM     27  C   UNL     1     102.311 125.131 147.502  0.00  0.00    +0.000 A 
ATOM     28  C   UNL     1     102.078 124.484 147.046  0.00  0.00    +0.000 A 
BRANCH  28  29
ATOM     29  O   UNL     1     101.290 124.406 146.814  0.00  0.00    +0.000 OA
ATOM     30  C   UNL     1     101.050 123.744 146.384  0.00  0.00    +0.000 C 
ENDBRANCH  28  29
ENDBRANCH  11  23
BRANCH   9  31
ATOM     31  O   UNL     1     107.103 124.720 149.184  0.00  0.00    +0.000 OA
ATOM     32  C   UNL     1     107.862 124.418 149.298  0.00  0.00    +0.000 C 
ENDBRANCH   9  31
TORSDOF 4
ENDMDL
MODEL 2
REMARK VINA RESULT:      -9.7     12.120     13.931
REMARK  Name = 44258306
REMARK  4 active torsions:
REMARK  status: ('A' for Active; 'I' for Inactive)
REMARK    1  A    between atoms: O_7  and  C_21
REMARK    2  A    between atoms: O_9  and  C_31
REMARK    3  A    between atoms: C_12  and  C_15
REMARK    4  A    between atoms: C_23  and  C_25
REMARK                            x       y       z     vdW  Elec       q    Type
REMARK                         _______ _______ _______ _____ _____    ______ ____
ROOT
ATOM      1  O   UNL     1     112.621 127.262 136.106  0.00  0.00    +0.000 OA
ATOM      2  O   UNL     1     111.682 124.582 136.591  0.00  0.00    +0.000 OA
ATOM      3  O   UNL     1     110.497 127.734 134.809  0.00  0.00    +0.000 OA
ATOM      4  C   UNL     1     112.136 125.914 136.343  0.00  0.00    +0.000 A 
ATOM      5  C   UNL     1     112.017 126.658 136.007  0.00  0.00    +0.000 A 
ATOM      6  C   UNL     1     111.563 125.327 136.255  0.00  0.00    +0.000 A 
ATOM      7  C   UNL     1     111.326 126.815 135.584  0.00  0.00    +0.000 A 
ATOM      8  C   UNL     1     110.872 125.484 135.832  0.00  0.00    +0.000 A 
ATOM      9  C   UNL     1     110.754 126.227 135.497  0.00  0.00    +0.000 A 
ATOM     10  C   UNL     1     111.191 127.587 135.230  0.00  0.00    +0.000 A 
ATOM     11  C   UNL     1     112.503 128.039 135.758  0.00  0.00    +0.000 A 
ATOM     12  C   UNL     1     111.783 128.202 135.318  0.00  0.00    +0.000 A 
ENDROOT
BRANCH   4  19
ATOM     13  O   UNL     1     113.508 125.519 136.368  0.00  0.00    +0.000 OA
ATOM     14  O   UNL     1     112.154 126.078 137.985  0.00  0.00    +0.000 OA
ATOM     15  O   UNL     1     113.535 125.765 138.830  0.00  0.00    +0.000 OA
ATOM     16  O   UNL     1     114.900 125.288 138.034  0.00  0.00    +0.000 OA
ATOM     17  C   UNL     1     112.835 125.839 137.586  0.00  0.00    +0.000 C 
ATOM     18  C   UNL     1     113.526 125.683 138.009  0.00  0.00    +0.000 C 
ATOM     19  C   UNL     1     112.827 125.758 136.766  0.00  0.00    +0.000 C 
ATOM     20  C   UNL     1     114.209 125.444 137.611  0.00  0.00    +0.000 C 
ATOM     21  C   UNL     1     114.199 125.363 136.790  0.00  0.00    +0.000 C 
ATOM     22  C   UNL     1     114.882 125.124 136.392  0.00  0.00    +0.000 C 
ENDBRANCH   4  19
BRANCH  11  23
ATOM     23  C   UNL     1     113.077 128.625 135.848  0.00  0.00    +0.000 A 
ATOM     24  C   UNL     1     113.679 128.700 135.288  0.00  0.00    +0.000 A 
ATOM     25  C   UNL     1     113.050 129.135 136.496  0.00  0.00    +0.000 A 
ATOM     26  C   UNL     1     114.254 129.285 135.377  0.00  0.00    +0.000 A 
ATOM     27  C   UNL     1     113.625 129.720 136.584  0.00  0.00    +0.000 A 
ATOM     28  C   UNL     1     114.227 129.795 136.025  0.00  0.00    +0.000 A 
BRANCH  28  29
ATOM     29  O   UNL     1     114.802 130.381 136.114  0.00  0.00    +0.000 OA
ATOM     30  C   UNL     1     115.101 130.769 135.451  0.00  0.00    +0.000 C 
ENDBRANCH  28  29
ENDBRANCH  11  23
BRANCH   9  31
ATOM     31  O   UNL     1     110.063 126.384 135.075  0.00  0.00    +0.000 OA
ATOM     32  C   UNL     1     109.706 125.787 134.632  0.00  0.00    +0.000 C 
ENDBRANCH   9  31
TORSDOF 4
ENDMDL
MODEL 3
REMARK VINA RESULT:      -9.2     11.942     12.904
REMARK  Name = 44258306
REMARK  4 active torsions:
REMARK  status: ('A' for Active; 'I' for Inactive)
REMARK    1  A    between atoms: O_7  and  C_21
REMARK    2  A    between atoms: O_9  and  C_31
REMARK    3  A    between atoms: C_12  and  C_15
REMARK    4  A    between atoms: C_23  and  C_25
REMARK                            x       y       z     vdW  Elec       q    Type
REMARK                         _______ _______ _______ _____ _____    ______ ____
ROOT
ATOM      1  O   UNL     1     111.538 127.059 136.205  0.00  0.00    +0.000 OA
ATOM      2  O   UNL     1     114.187 126.217 136.963  0.00  0.00    +0.000 OA
ATOM      3  O   UNL     1     110.921 124.635 135.805  0.00  0.00    +0.000 OA
ATOM      4  C   UNL     1     112.870 126.621 136.585  0.00  0.00    +0.000 A 
ATOM      5  C   UNL     1     112.109 126.428 136.330  0.00  0.00    +0.000 A 
ATOM      6  C   UNL     1     113.426 126.025 136.708  0.00  0.00    +0.000 A 
ATOM      7  C   UNL     1     111.905 125.640 136.199  0.00  0.00    +0.000 A 
ATOM      8  C   UNL     1     113.222 125.236 136.577  0.00  0.00    +0.000 A 
ATOM      9  C   UNL     1     112.462 125.044 136.323  0.00  0.00    +0.000 A 
ATOM     10  C   UNL     1     111.116 125.426 135.933  0.00  0.00    +0.000 A 
ATOM     11  C   UNL     1     110.745 126.864 135.939  0.00  0.00    +0.000 A 
ATOM     12  C   UNL     1     110.532 126.043 135.803  0.00  0.00    +0.000 A 
ENDROOT
BRANCH   4  19
ATOM     13  O   UNL     1     113.316 127.883 136.085  0.00  0.00    +0.000 OA
ATOM     14  O   UNL     1     112.794 127.251 138.108  0.00  0.00    +0.000 OA
ATOM     15  O   UNL     1     113.202 128.828 138.370  0.00  0.00    +0.000 OA
ATOM     16  O   UNL     1     113.686 129.775 137.109  0.00  0.00    +0.000 OA
ATOM     17  C   UNL     1     113.036 127.724 137.477  0.00  0.00    +0.000 C 
ATOM     18  C   UNL     1     113.240 128.513 137.608  0.00  0.00    +0.000 C 
ATOM     19  C   UNL     1     113.074 127.410 136.716  0.00  0.00    +0.000 C 
ATOM     20  C   UNL     1     113.482 128.987 136.978  0.00  0.00    +0.000 C 
ATOM     21  C   UNL     1     113.520 128.671 136.216  0.00  0.00    +0.000 C 
ATOM     22  C   UNL     1     113.762 129.146 135.585  0.00  0.00    +0.000 C 
ENDBRANCH   4  19
BRANCH  11  23
ATOM     23  C   UNL     1     110.190 127.463 135.816  0.00  0.00    +0.000 A 
ATOM     24  C   UNL     1     109.675 127.678 136.424  0.00  0.00    +0.000 A 
ATOM     25  C   UNL     1     110.151 127.846 135.087  0.00  0.00    +0.000 A 
ATOM     26  C   UNL     1     109.121 128.277 136.302  0.00  0.00    +0.000 A 
ATOM     27  C   UNL     1     109.596 128.445 134.965  0.00  0.00    +0.000 A 
ATOM     28  C   UNL     1     109.081 128.660 135.572  0.00  0.00    +0.000 A 
BRANCH  28  29
ATOM     29  O   UNL     1     108.527 129.259 135.450  0.00  0.00    +0.000 OA
ATOM     30  C   UNL     1     108.592 129.972 135.860  0.00  0.00    +0.000 C 
ENDBRANCH  28  29
ENDBRANCH  11  23
BRANCH   9  31
ATOM     31  O   UNL     1     112.258 124.255 136.192  0.00  0.00    +0.000 OA
ATOM     32  C   UNL     1     112.411 123.688 136.770  0.00  0.00    +0.000 C 
ENDBRANCH   9  31
TORSDOF 4
ENDMDL
MODEL 4
REMARK VINA RESULT:      -9.1     11.975     13.132
REMARK  Name = 44258306
REMARK  4 active torsions:
REMARK  status: ('A' for Active; 'I' for Inactive)
REMARK    1  A    between atoms: O_7  and  C_21
REMARK    2  A    between atoms: O_9  and  C_31
REMARK    3  A    between atoms: C_12  and  C_15
REMARK    4  A    between atoms: C_23  and  C_25
REMARK                            x       y       z     vdW  Elec       q    Type
REMARK                         _______ _______ _______ _____ _____    ______ ____
ROOT
ATOM      1  O   UNL     1     110.436 128.321 135.941  0.00  0.00    +0.000 OA
ATOM      2  O   UNL     1     110.903 131.154 136.176  0.00  0.00    +0.000 OA
ATOM      3  O   UNL     1     107.956 128.784 135.714  0.00  0.00    +0.000 OA
ATOM      4  C   UNL     1     110.658 129.751 136.059  0.00  0.00    +0.000 A 
ATOM      5  C   UNL     1     110.130 129.124 135.962  0.00  0.00    +0.000 A 
ATOM      6  C   UNL     1     110.376 130.526 136.080  0.00  0.00    +0.000 A 
ATOM      7  C   UNL     1     109.322 129.272 135.888  0.00  0.00    +0.000 A 
ATOM      8  C   UNL     1     109.567 130.674 136.006  0.00  0.00    +0.000 A 
ATOM      9  C   UNL     1     109.041 130.047 135.910  0.00  0.00    +0.000 A 
ATOM     10  C   UNL     1     108.763 128.627 135.787  0.00  0.00    +0.000 A 
ATOM     11  C   UNL     1     109.891 127.664 135.842  0.00  0.00    +0.000 A 
ATOM     12  C   UNL     1     109.050 127.817 135.764  0.00  0.00    +0.000 A 
ENDROOT
BRANCH   4  19
ATOM     13  O   UNL     1     111.927 129.489 135.460  0.00  0.00    +0.000 OA
ATOM     14  O   UNL     1     111.350 129.685 137.555  0.00  0.00    +0.000 OA
ATOM     15  O   UNL     1     112.966 129.390 137.704  0.00  0.00    +0.000 OA
ATOM     16  O   UNL     1     113.890 129.160 136.356  0.00  0.00    +0.000 OA
ATOM     17  C   UNL     1     111.812 129.571 136.881  0.00  0.00    +0.000 C 
ATOM     18  C   UNL     1     112.620 129.423 136.955  0.00  0.00    +0.000 C 
ATOM     19  C   UNL     1     111.466 129.603 136.133  0.00  0.00    +0.000 C 
ATOM     20  C   UNL     1     113.082 129.308 136.282  0.00  0.00    +0.000 C 
ATOM     21  C   UNL     1     112.736 129.341 135.534  0.00  0.00    +0.000 C 
ATOM     22  C   UNL     1     113.198 129.226 134.860  0.00  0.00    +0.000 C 
ENDBRANCH   4  19
BRANCH  11  23
ATOM     23  C   UNL     1     110.176 126.889 135.820  0.00  0.00    +0.000 A 
ATOM     24  C   UNL     1     110.279 126.468 136.523  0.00  0.00    +0.000 A 
ATOM     25  C   UNL     1     110.359 126.536 135.097  0.00  0.00    +0.000 A 
ATOM     26  C   UNL     1     110.563 125.694 136.502  0.00  0.00    +0.000 A 
ATOM     27  C   UNL     1     110.644 125.762 135.077  0.00  0.00    +0.000 A 
ATOM     28  C   UNL     1     110.746 125.341 135.779  0.00  0.00    +0.000 A 
BRANCH  28  29
ATOM     29  O   UNL     1     111.031 124.567 135.758  0.00  0.00    +0.000 OA
ATOM     30  C   UNL     1     111.662 124.346 136.242  0.00  0.00    +0.000 C 
ENDBRANCH  28  29
ENDBRANCH  11  23
BRANCH   9  31
ATOM     31  O   UNL     1     108.233 130.195 135.835  0.00  0.00    +0.000 OA
ATOM     32  C   UNL     1     107.932 130.943 136.010  0.00  0.00    +0.000 C 
ENDBRANCH   9  31
TORSDOF 4
ENDMDL
MODEL 5
REMARK VINA RESULT:      -9.1      0.939      3.623
REMARK  Name = 44258306
REMARK  4 active torsions:
REMARK  status: ('A' for Active; 'I' for Inactive)
REMARK    1  A    between atoms: O_7  and  C_21
REMARK    2  A    between atoms: O_9  and  C_31
REMARK    3  A    between atoms: C_12  and  C_15
REMARK    4  A    between atoms: C_23  and  C_25
REMARK                            x       y       z     vdW  Elec       q    Type
REMARK                         _______ _______ _______ _____ _____    ______ ____
ROOT
ATOM      1  O   UNL     1     105.656 125.224 146.936  0.00  0.00    +0.000 OA
ATOM      2  O   UNL     1     104.851 124.497 149.605  0.00  0.00    +0.000 OA
ATOM      3  O   UNL     1     108.074 125.165 147.688  0.00  0.00    +0.000 OA
ATOM      4  C   UNL     1     105.264 124.857 148.286  0.00  0.00    +0.000 A 
ATOM      5  C   UNL     1     105.865 125.028 147.747  0.00  0.00    +0.000 A 
ATOM      6  C   UNL     1     105.452 124.668 149.066  0.00  0.00    +0.000 A 
ATOM      7  C   UNL     1     106.653 125.010 147.989  0.00  0.00    +0.000 A 
ATOM      8  C   UNL     1     106.241 124.650 149.308  0.00  0.00    +0.000 A 
ATOM      9  C   UNL     1     106.841 124.820 148.769  0.00  0.00    +0.000 A 
ATOM     10  C   UNL     1     107.288 125.186 147.437  0.00  0.00    +0.000 A 
ATOM     11  C   UNL     1     106.278 125.403 146.371  0.00  0.00    +0.000 A 
ATOM     12  C   UNL     1     107.099 125.384 146.623  0.00  0.00    +0.000 A 
ENDROOT
BRANCH   4  19
ATOM     13  O   UNL     1     104.149 124.228 147.652  0.00  0.00    +0.000 OA
ATOM     14  O   UNL     1     104.340 126.191 148.586  0.00  0.00    +0.000 OA
ATOM     15  O   UNL     1     102.763 126.228 148.102  0.00  0.00    +0.000 OA
ATOM     16  O   UNL     1     102.110 124.931 147.319  0.00  0.00    +0.000 OA
ATOM     17  C   UNL     1     104.014 125.542 148.194  0.00  0.00    +0.000 C 
ATOM     18  C   UNL     1     103.225 125.561 147.952  0.00  0.00    +0.000 C 
ATOM     19  C   UNL     1     104.475 124.876 148.044  0.00  0.00    +0.000 C 
ATOM     20  C   UNL     1     102.898 124.913 147.560  0.00  0.00    +0.000 C 
ATOM     21  C   UNL     1     103.361 124.246 147.410  0.00  0.00    +0.000 C 
ATOM     22  C   UNL     1     103.034 123.597 147.018  0.00  0.00    +0.000 C 
ENDBRANCH   4  19
BRANCH  11  23
ATOM     23  C   UNL     1     106.086 125.592 145.591  0.00  0.00    +0.000 A 
ATOM     24  C   UNL     1     105.990 124.992 145.033  0.00  0.00    +0.000 A 
ATOM     25  C   UNL     1     105.992 126.381 145.368  0.00  0.00    +0.000 A 
ATOM     26  C   UNL     1     105.798 125.180 144.253  0.00  0.00    +0.000 A 
ATOM     27  C   UNL     1     105.800 126.569 144.588  0.00  0.00    +0.000 A 
ATOM     28  C   UNL     1     105.704 125.969 144.031  0.00  0.00    +0.000 A 
BRANCH  28  29
ATOM     29  O   UNL     1     105.512 126.158 143.250  0.00  0.00    +0.000 OA
ATOM     30  C   UNL     1     106.088 126.109 142.661  0.00  0.00    +0.000 C 
ENDBRANCH  28  29
ENDBRANCH  11  23
BRANCH   9  31
ATOM     31  O   UNL     1     107.629 124.802 149.011  0.00  0.00    +0.000 OA
ATOM     32  C   UNL     1     107.872 124.264 149.587  0.00  0.00    +0.000 C 
ENDBRANCH   9  31
TORSDOF 4
ENDMDL
MODEL 6
REMARK VINA RESULT:      -9.0     10.745     12.967
REMARK  Name = 44258306
REMARK  4 active torsions:
REMARK  status: ('A' for Active; 'I' for Inactive)
REMARK    1  A    between atoms: O_7  and  C_21
REMARK    2  A    between atoms: O_9  and  C_31
REMARK    3  A    between atoms: C_12  and  C_15
REMARK    4  A    between atoms: C_23  and  C_25
REMARK                            x       y       z     vdW  Elec       q    Type
REMARK                         _______ _______ _______ _____ _____    ______ ____
ROOT
ATOM      1  O   UNL     1     112.201 127.029 136.583  0.00  0.00    +0.000 OA
ATOM      2  O   UNL     1     111.148 124.348 136.627  0.00  0.00    +0.000 OA
ATOM      3  O   UNL     1     114.545 126.069 136.529  0.00  0.00    +0.000 OA
ATOM      4  C   UNL     1     111.684 125.672 136.605  0.00  0.00    +0.000 A 
ATOM      5  C   UNL     1     112.334 126.179 136.585  0.00  0.00    +0.000 A 
ATOM      6  C   UNL     1     111.799 124.856 136.607  0.00  0.00    +0.000 A 
ATOM      7  C   UNL     1     113.099 125.870 136.567  0.00  0.00    +0.000 A 
ATOM      8  C   UNL     1     112.563 124.546 136.589  0.00  0.00    +0.000 A 
ATOM      9  C   UNL     1     113.213 125.053 136.569  0.00  0.00    +0.000 A 
ATOM     10  C   UNL     1     113.784 126.388 136.546  0.00  0.00    +0.000 A 
ATOM     11  C   UNL     1     112.876 127.562 136.562  0.00  0.00    +0.000 A 
ATOM     12  C   UNL     1     113.671 127.240 136.544  0.00  0.00    +0.000 A 
ENDROOT
BRANCH   4  19
ATOM     13  O   UNL     1     110.553 126.216 135.922  0.00  0.00    +0.000 OA
ATOM     14  O   UNL     1     110.888 125.824 138.042  0.00  0.00    +0.000 OA
ATOM     15  O   UNL     1     109.359 126.443 138.078  0.00  0.00    +0.000 OA
ATOM     16  O   UNL     1     108.626 126.911 136.676  0.00  0.00    +0.000 OA
ATOM     17  C   UNL     1     110.522 126.058 137.341  0.00  0.00    +0.000 C 
ATOM     18  C   UNL     1     109.757 126.367 137.359  0.00  0.00    +0.000 C 
ATOM     19  C   UNL     1     110.919 125.982 136.623  0.00  0.00    +0.000 C 
ATOM     20  C   UNL     1     109.390 126.601 136.658  0.00  0.00    +0.000 C 
ATOM     21  C   UNL     1     109.789 126.526 135.940  0.00  0.00    +0.000 C 
ATOM     22  C   UNL     1     109.422 126.760 135.238  0.00  0.00    +0.000 C 
ENDBRANCH   4  19
BRANCH  11  23
ATOM     23  C   UNL     1     112.757 128.379 136.560  0.00  0.00    +0.000 A 
ATOM     24  C   UNL     1     112.689 128.787 137.274  0.00  0.00    +0.000 A 
ATOM     25  C   UNL     1     112.708 128.787 135.845  0.00  0.00    +0.000 A 
ATOM     26  C   UNL     1     112.571 129.603 137.273  0.00  0.00    +0.000 A 
ATOM     27  C   UNL     1     112.590 129.604 135.844  0.00  0.00    +0.000 A 
ATOM     28  C   UNL     1     112.521 130.012 136.558  0.00  0.00    +0.000 A 
BRANCH  28  29
ATOM     29  O   UNL     1     112.403 130.829 136.556  0.00  0.00    +0.000 OA
ATOM     30  C   UNL     1     112.910 131.319 136.984  0.00  0.00    +0.000 C 
ENDBRANCH  28  29
ENDBRANCH  11  23
BRANCH   9  31
ATOM     31  O   UNL     1     113.977 124.743 136.551  0.00  0.00    +0.000 OA
ATOM     32  C   UNL     1     114.277 124.347 137.209  0.00  0.00    +0.000 C 
ENDBRANCH   9  31
TORSDOF 4
ENDMDL
MODEL 7
REMARK VINA RESULT:      -9.0      1.872      3.470
REMARK  Name = 44258306
REMARK  4 active torsions:
REMARK  status: ('A' for Active; 'I' for Inactive)
REMARK    1  A    between atoms: O_7  and  C_21
REMARK    2  A    between atoms: O_9  and  C_31
REMARK    3  A    between atoms: C_12  and  C_15
REMARK    4  A    between atoms: C_23  and  C_25
REMARK                            x       y       z     vdW  Elec       q    Type
REMARK                         _______ _______ _______ _____ _____    ______ ____
ROOT
ATOM      1  O   UNL     1     104.206 125.750 147.268  0.00  0.00    +0.000 OA
ATOM      2  O   UNL     1     104.544 123.615 145.364  0.00  0.00    +0.000 OA
ATOM      3  O   UNL     1     102.191 124.541 148.213  0.00  0.00    +0.000 OA
ATOM      4  C   UNL     1     104.365 124.667 146.314  0.00  0.00    +0.000 A 
ATOM      5  C   UNL     1     103.947 124.997 146.944  0.00  0.00    +0.000 A 
ATOM      6  C   UNL     1     104.125 123.945 145.994  0.00  0.00    +0.000 A 
ATOM      7  C   UNL     1     103.290 124.606 147.253  0.00  0.00    +0.000 A 
ATOM      8  C   UNL     1     103.468 123.554 146.304  0.00  0.00    +0.000 A 
ATOM      9  C   UNL     1     103.051 123.884 146.934  0.00  0.00    +0.000 A 
ATOM     10  C   UNL     1     102.846 124.940 147.910  0.00  0.00    +0.000 A 
ATOM     11  C   UNL     1     103.774 126.099 147.924  0.00  0.00    +0.000 A 
ATOM     12  C   UNL     1     103.090 125.691 148.247  0.00  0.00    +0.000 A 
ENDROOT
BRANCH   4  19
ATOM     13  O   UNL     1     104.919 125.661 145.451  0.00  0.00    +0.000 OA
ATOM     14  O   UNL     1     105.883 124.244 146.801  0.00  0.00    +0.000 OA
ATOM     15  O   UNL     1     107.197 125.026 146.182  0.00  0.00    +0.000 OA
ATOM     16  O   UNL     1     106.992 126.233 145.074  0.00  0.00    +0.000 OA
ATOM     17  C   UNL     1     105.780 124.847 146.248  0.00  0.00    +0.000 C 
ATOM     18  C   UNL     1     106.437 125.238 145.938  0.00  0.00    +0.000 C 
ATOM     19  C   UNL     1     105.022 125.058 146.004  0.00  0.00    +0.000 C 
ATOM     20  C   UNL     1     106.335 125.841 145.384  0.00  0.00    +0.000 C 
ATOM     21  C   UNL     1     105.576 126.052 145.141  0.00  0.00    +0.000 C 
ATOM     22  C   UNL     1     105.474 126.656 144.587  0.00  0.00    +0.000 C 
ENDBRANCH   4  19
BRANCH  11  23
ATOM     23  C   UNL     1     104.016 126.821 148.242  0.00  0.00    +0.000 A 
ATOM     24  C   UNL     1     103.645 127.519 148.007  0.00  0.00    +0.000 A 
ATOM     25  C   UNL     1     104.629 126.845 148.794  0.00  0.00    +0.000 A 
ATOM     26  C   UNL     1     103.886 128.242 148.324  0.00  0.00    +0.000 A 
ATOM     27  C   UNL     1     104.870 127.568 149.111  0.00  0.00    +0.000 A 
ATOM     28  C   UNL     1     104.499 128.266 148.876  0.00  0.00    +0.000 A 
BRANCH  28  29
ATOM     29  O   UNL     1     104.741 128.988 149.194  0.00  0.00    +0.000 OA
ATOM     30  C   UNL     1     104.763 129.661 148.717  0.00  0.00    +0.000 C 
ENDBRANCH  28  29
ENDBRANCH  11  23
BRANCH   9  31
ATOM     31  O   UNL     1     102.394 123.493 147.243  0.00  0.00    +0.000 OA
ATOM     32  C   UNL     1     102.048 122.872 146.825  0.00  0.00    +0.000 C 
ENDBRANCH   9  31
TORSDOF 4
ENDMDL
MODEL 8
REMARK VINA RESULT:      -8.8     10.889     12.414
REMARK  Name = 44258306
REMARK  4 active torsions:
REMARK  status: ('A' for Active; 'I' for Inactive)
REMARK    1  A    between atoms: O_7  and  C_21
REMARK    2  A    between atoms: O_9  and  C_31
REMARK    3  A    between atoms: C_12  and  C_15
REMARK    4  A    between atoms: C_23  and  C_25
REMARK                            x       y       z     vdW  Elec       q    Type
REMARK                         _______ _______ _______ _____ _____    ______ ____
ROOT
ATOM      1  O   UNL     1     113.201 127.471 138.221  0.00  0.00    +0.000 OA
ATOM      2  O   UNL     1     113.066 130.338 138.469  0.00  0.00    +0.000 OA
ATOM      3  O   UNL     1     113.654 127.313 140.709  0.00  0.00    +0.000 OA
ATOM      4  C   UNL     1     113.136 128.915 138.360  0.00  0.00    +0.000 A 
ATOM      5  C   UNL     1     113.244 128.177 138.711  0.00  0.00    +0.000 A 
ATOM      6  C   UNL     1     113.175 129.599 138.820  0.00  0.00    +0.000 A 
ATOM      7  C   UNL     1     113.392 128.122 139.521  0.00  0.00    +0.000 A 
ATOM      8  C   UNL     1     113.323 129.544 139.630  0.00  0.00    +0.000 A 
ATOM      9  C   UNL     1     113.431 128.806 139.980  0.00  0.00    +0.000 A 
ATOM     10  C   UNL     1     113.507 127.358 139.898  0.00  0.00    +0.000 A 
ATOM     11  C   UNL     1     113.313 126.699 138.582  0.00  0.00    +0.000 A 
ATOM     12  C   UNL     1     113.467 126.642 139.425  0.00  0.00    +0.000 A 
ENDROOT
BRANCH   4  19
ATOM     13  O   UNL     1     113.614 128.947 137.015  0.00  0.00    +0.000 OA
ATOM     14  O   UNL     1     111.587 129.070 137.813  0.00  0.00    +0.000 OA
ATOM     15  O   UNL     1     111.291 129.179 136.193  0.00  0.00    +0.000 OA
ATOM     16  O   UNL     1     112.545 129.134 135.121  0.00  0.00    +0.000 OA
ATOM     17  C   UNL     1     112.214 129.047 137.277  0.00  0.00    +0.000 C 
ATOM     18  C   UNL     1     112.066 129.102 136.467  0.00  0.00    +0.000 C 
ATOM     19  C   UNL     1     112.988 128.970 137.551  0.00  0.00    +0.000 C 
ATOM     20  C   UNL     1     112.692 129.079 135.931  0.00  0.00    +0.000 C 
ATOM     21  C   UNL     1     113.466 129.002 136.205  0.00  0.00    +0.000 C 
ATOM     22  C   UNL     1     114.094 128.979 135.668  0.00  0.00    +0.000 C 
ENDBRANCH   4  19
BRANCH  11  23
ATOM     23  C   UNL     1     113.273 126.016 138.119  0.00  0.00    +0.000 A 
ATOM     24  C   UNL     1     112.542 125.671 137.958  0.00  0.00    +0.000 A 
ATOM     25  C   UNL     1     113.964 125.680 137.818  0.00  0.00    +0.000 A 
ATOM     26  C   UNL     1     112.501 124.988 137.496  0.00  0.00    +0.000 A 
ATOM     27  C   UNL     1     113.923 124.998 137.356  0.00  0.00    +0.000 A 
ATOM     28  C   UNL     1     113.192 124.652 137.195  0.00  0.00    +0.000 A 
BRANCH  28  29
ATOM     29  O   UNL     1     113.152 123.970 136.732  0.00  0.00    +0.000 OA
ATOM     30  C   UNL     1     112.484 123.486 136.769  0.00  0.00    +0.000 C 
ENDBRANCH  28  29
ENDBRANCH  11  23
BRANCH   9  31
ATOM     31  O   UNL     1     113.579 128.751 140.790  0.00  0.00    +0.000 OA
ATOM     32  C   UNL     1     113.164 129.230 141.319  0.00  0.00    +0.000 C 
ENDBRANCH   9  31
TORSDOF 4
ENDMDL
MODEL 9
REMARK VINA RESULT:      -8.8     11.250     13.059
REMARK  Name = 44258306
REMARK  4 active torsions:
REMARK  status: ('A' for Active; 'I' for Inactive)
REMARK    1  A    between atoms: O_7  and  C_21
REMARK    2  A    between atoms: O_9  and  C_31
REMARK    3  A    between atoms: C_12  and  C_15
REMARK    4  A    between atoms: C_23  and  C_25
REMARK                            x       y       z     vdW  Elec       q    Type
REMARK                         _______ _______ _______ _____ _____    ______ ____
ROOT
ATOM      1  O   UNL     1     112.222 127.116 136.943  0.00  0.00    +0.000 OA
ATOM      2  O   UNL     1     111.100 128.383 134.612  0.00  0.00    +0.000 OA
ATOM      3  O   UNL     1     110.970 124.996 136.350  0.00  0.00    +0.000 OA
ATOM      4  C   UNL     1     111.650 127.742 135.765  0.00  0.00    +0.000 A 
ATOM      5  C   UNL     1     111.721 127.076 136.246  0.00  0.00    +0.000 A 
ATOM      6  C   UNL     1     111.171 127.716 135.094  0.00  0.00    +0.000 A 
ATOM      7  C   UNL     1     111.314 126.384 136.055  0.00  0.00    +0.000 A 
ATOM      8  C   UNL     1     110.765 127.024 134.903  0.00  0.00    +0.000 A 
ATOM      9  C   UNL     1     110.836 126.359 135.384  0.00  0.00    +0.000 A 
ATOM     10  C   UNL     1     111.380 125.683 136.549  0.00  0.00    +0.000 A 
ATOM     11  C   UNL     1     112.300 126.424 137.448  0.00  0.00    +0.000 A 
ATOM     12  C   UNL     1     111.877 125.704 137.249  0.00  0.00    +0.000 A 
ENDROOT
BRANCH   4  19
ATOM     13  O   UNL     1     112.848 128.519 135.743  0.00  0.00    +0.000 OA
ATOM     14  O   UNL     1     110.878 128.957 136.573  0.00  0.00    +0.000 OA
ATOM     15  O   UNL     1     111.692 130.341 136.954  0.00  0.00    +0.000 OA
ATOM     16  O   UNL     1     113.277 130.510 136.528  0.00  0.00    +0.000 OA
ATOM     17  C   UNL     1     111.671 129.041 136.359  0.00  0.00    +0.000 C 
ATOM     18  C   UNL     1     112.078 129.733 136.550  0.00  0.00    +0.000 C 
ATOM     19  C   UNL     1     112.056 128.434 135.956  0.00  0.00    +0.000 C 
ATOM     20  C   UNL     1     112.870 129.818 136.337  0.00  0.00    +0.000 C 
ATOM     21  C   UNL     1     113.255 129.211 135.933  0.00  0.00    +0.000 C 
ATOM     22  C   UNL     1     114.048 129.296 135.720  0.00  0.00    +0.000 C 
ENDBRANCH   4  19
BRANCH  11  23
ATOM     23  C   UNL     1     112.779 126.453 138.119  0.00  0.00    +0.000 A 
ATOM     24  C   UNL     1     112.479 126.754 138.827  0.00  0.00    +0.000 A 
ATOM     25  C   UNL     1     113.558 126.182 138.083  0.00  0.00    +0.000 A 
ATOM     26  C   UNL     1     112.958 126.783 139.498  0.00  0.00    +0.000 A 
ATOM     27  C   UNL     1     114.036 126.212 138.755  0.00  0.00    +0.000 A 
ATOM     28  C   UNL     1     113.736 126.512 139.462  0.00  0.00    +0.000 A 
BRANCH  28  29
ATOM     29  O   UNL     1     114.216 126.542 140.134  0.00  0.00    +0.000 OA
ATOM     30  C   UNL     1     114.216 127.215 140.610  0.00  0.00    +0.000 C 
ENDBRANCH  28  29
ENDBRANCH  11  23
BRANCH   9  31
ATOM     31  O   UNL     1     110.429 125.667 135.193  0.00  0.00    +0.000 OA
ATOM     32  C   UNL     1     109.723 125.706 134.770  0.00  0.00    +0.000 C 
ENDBRANCH   9  31
TORSDOF 4
ENDMDL
MODEL 10
REMARK VINA RESULT:      -8.8      9.916     12.499
REMARK  Name = 44258306
REMARK  4 active torsions:
REMARK  status: ('A' for Active; 'I' for Inactive)
REMARK    1  A    between atoms: O_7  and  C_21
REMARK    2  A    between atoms: O_9  and  C_31
REMARK    3  A    between atoms: C_12  and  C_15
REMARK    4  A    between atoms: C_23  and  C_25
REMARK                            x       y       z     vdW  Elec       q    Type
REMARK                         _______ _______ _______ _____ _____    ______ ____
ROOT
ATOM      1  O   UNL     1     112.317 127.318 137.478  0.00  0.00    +0.000 OA
ATOM      2  O   UNL     1     110.817 125.325 138.919  0.00  0.00    +0.000 OA
ATOM      3  O   UNL     1     113.056 128.309 139.689  0.00  0.00    +0.000 OA
ATOM      4  C   UNL     1     111.565 126.319 138.217  0.00  0.00    +0.000 A 
ATOM      5  C   UNL     1     112.061 126.979 138.226  0.00  0.00    +0.000 A 
ATOM      6  C   UNL     1     111.313 125.985 138.927  0.00  0.00    +0.000 A 
ATOM      7  C   UNL     1     112.303 127.304 138.944  0.00  0.00    +0.000 A 
ATOM      8  C   UNL     1     111.555 126.310 139.646  0.00  0.00    +0.000 A 
ATOM      9  C   UNL     1     112.050 126.969 139.654  0.00  0.00    +0.000 A 
ATOM     10  C   UNL     1     112.819 127.991 138.965  0.00  0.00    +0.000 A 
ATOM     11  C   UNL     1     112.833 128.005 137.481  0.00  0.00    +0.000 A 
ATOM     12  C   UNL     1     113.086 128.344 138.229  0.00  0.00    +0.000 A 
ENDROOT
BRANCH   4  19
ATOM     13  O   UNL     1     110.689 126.325 137.089  0.00  0.00    +0.000 OA
ATOM     14  O   UNL     1     112.350 125.006 137.598  0.00  0.00    +0.000 OA
ATOM     15  O   UNL     1     111.865 124.356 136.161  0.00  0.00    +0.000 OA
ATOM     16  O   UNL     1     110.596 125.019 135.343  0.00  0.00    +0.000 OA
ATOM     17  C   UNL     1     111.715 125.338 137.190  0.00  0.00    +0.000 C 
ATOM     18  C   UNL     1     111.473 125.013 136.471  0.00  0.00    +0.000 C 
ATOM     19  C   UNL     1     111.323 125.994 137.498  0.00  0.00    +0.000 C 
ATOM     20  C   UNL     1     110.838 125.344 136.061  0.00  0.00    +0.000 C 
ATOM     21  C   UNL     1     110.446 126.001 136.371  0.00  0.00    +0.000 C 
ATOM     22  C   UNL     1     109.811 126.332 135.961  0.00  0.00    +0.000 C 
ENDBRANCH   4  19
BRANCH  11  23
ATOM     23  C   UNL     1     113.084 128.338 136.768  0.00  0.00    +0.000 A 
ATOM     24  C   UNL     1     113.760 128.048 136.394  0.00  0.00    +0.000 A 
ATOM     25  C   UNL     1     112.660 128.959 136.430  0.00  0.00    +0.000 A 
ATOM     26  C   UNL     1     114.012 128.379 135.682  0.00  0.00    +0.000 A 
ATOM     27  C   UNL     1     112.912 129.291 135.718  0.00  0.00    +0.000 A 
ATOM     28  C   UNL     1     113.587 129.001 135.344  0.00  0.00    +0.000 A 
BRANCH  28  29
ATOM     29  O   UNL     1     113.839 129.333 134.631  0.00  0.00    +0.000 OA
ATOM     30  C   UNL     1     114.515 129.805 134.612  0.00  0.00    +0.000 C 
ENDBRANCH  28  29
ENDBRANCH  11  23
BRANCH   9  31
ATOM     31  O   UNL     1     112.293 127.294 140.372  0.00  0.00    +0.000 OA
ATOM     32  C   UNL     1     112.473 126.801 141.009  0.00  0.00    +0.000 C 
ENDBRANCH   9  31
TORSDOF 4
ENDMDL
