MODEL 1
REMARK VINA RESULT:     -10.8      0.000      0.000
REMARK  Name = 44257782
REMARK  10 active torsions:
REMARK  status: ('A' for Active; 'I' for Inactive)
REMARK    1  A    between atoms: O_3  and  C_28
REMARK    2  A    between atoms: O_3  and  C_30
REMARK    3  A    between atoms: O_12  and  C_33
REMARK    4  A    between atoms: O_12  and  C_40
REMARK    5  A    between atoms: C_19  and  C_24
REMARK    6  A    between atoms: C_23  and  C_31
REMARK    7  A    between atoms: C_29  and  C_33
REMARK    8  A    between atoms: C_39  and  C_41
REMARK    9  A    between atoms: C_40  and  C_42
REMARK   10  A    between atoms: C_47  and  C_49
REMARK                            x       y       z     vdW  Elec       q    Type
REMARK                         _______ _______ _______ _____ _____    ______ ____
ROOT
ATOM      1  O   UNL     1     113.694 128.353 141.191  0.00  0.00    +0.000 OA
ATOM      2  O   UNL     1     113.384 127.410 138.471  0.00  0.00    +0.000 OA
ATOM      3  O   UNL     1     113.775 126.936 140.928  0.00  0.00    +0.000 OA
ATOM      4  C   UNL     1     113.464 129.287 140.135  0.00  0.00    +0.000 A 
ATOM      5  C   UNL     1     113.336 129.446 139.335  0.00  0.00    +0.000 A 
ATOM      6  C   UNL     1     113.566 128.510 140.391  0.00  0.00    +0.000 A 
ATOM      7  C   UNL     1     113.311 128.825 138.792  0.00  0.00    +0.000 A 
ATOM      8  C   UNL     1     113.540 127.890 139.848  0.00  0.00    +0.000 A 
ATOM      9  C   UNL     1     113.413 128.047 139.048  0.00  0.00    +0.000 A 
ATOM     10  C   UNL     1     113.648 127.085 140.127  0.00  0.00    +0.000 A 
ATOM     11  C   UNL     1     113.623 126.434 139.565  0.00  0.00    +0.000 A 
ATOM     12  C   UNL     1     113.489 126.599 138.732  0.00  0.00    +0.000 A 
ENDROOT
BRANCH   4  17
ATOM     13  O   UNL     1     112.807 130.126 141.087  0.00  0.00    +0.000 OA
ATOM     14  O   UNL     1     114.880 130.091 140.404  0.00  0.00    +0.000 OA
ATOM     15  O   UNL     1     114.930 131.331 141.491  0.00  0.00    +0.000 OA
ATOM     16  O   UNL     1     113.566 131.768 142.309  0.00  0.00    +0.000 OA
ATOM     17  C   UNL     1     113.490 129.908 140.679  0.00  0.00    +0.000 C 
ATOM     18  C   UNL     1     114.197 130.310 140.813  0.00  0.00    +0.000 C 
ATOM     19  C   UNL     1     114.223 130.930 141.356  0.00  0.00    +0.000 C 
ATOM     20  C   UNL     1     113.540 131.149 141.766  0.00  0.00    +0.000 C 
ATOM     21  C   UNL     1     112.833 130.747 141.631  0.00  0.00    +0.000 C 
BRANCH  21  23
ATOM     22  O   UNL     1     111.456 131.131 141.624  0.00  0.00    +0.000 OA
ATOM     23  C   UNL     1     112.150 130.965 142.040  0.00  0.00    +0.000 C 
ENDBRANCH  21  23
ENDBRANCH   4  17
BRANCH  12  25
ATOM     24  O   UNL     1     113.384 124.126 136.550  0.00  0.00    +0.000 OA
ATOM     25  C   UNL     1     113.463 125.980 138.187  0.00  0.00    +0.000 A 
ATOM     26  C   UNL     1     112.736 125.678 137.941  0.00  0.00    +0.000 A 
ATOM     27  C   UNL     1     114.164 125.665 137.887  0.00  0.00    +0.000 A 
ATOM     28  C   UNL     1     112.709 125.060 137.395  0.00  0.00    +0.000 A 
ATOM     29  C   UNL     1     114.138 125.046 137.341  0.00  0.00    +0.000 A 
ATOM     30  C   UNL     1     113.410 124.744 137.095  0.00  0.00    +0.000 A 
ENDBRANCH  12  25
BRANCH   5  31
ATOM     31  O   UNL     1     113.234 130.223 139.079  0.00  0.00    +0.000 OA
BRANCH  31  39
ATOM     32  O   UNL     1     111.920 130.137 138.524  0.00  0.00    +0.000 OA
ATOM     33  O   UNL     1     112.679 131.397 136.534  0.00  0.00    +0.000 OA
ATOM     34  O   UNL     1     113.740 131.063 137.752  0.00  0.00    +0.000 OA
ATOM     35  O   UNL     1     111.112 130.891 136.642  0.00  0.00    +0.000 OA
ATOM     36  C   UNL     1     112.426 130.977 137.197  0.00  0.00    +0.000 C 
ATOM     37  C   UNL     1     112.956 130.810 137.807  0.00  0.00    +0.000 C 
ATOM     38  C   UNL     1     111.642 130.724 137.252  0.00  0.00    +0.000 C 
ATOM     39  C   UNL     1     112.703 130.390 138.470  0.00  0.00    +0.000 C 
ATOM     40  C   UNL     1     111.389 130.304 137.915  0.00  0.00    +0.000 C 
BRANCH  40  41
ATOM     41  C   UNL     1     110.606 130.051 137.969  0.00  0.00    +0.000 C 
BRANCH  41  42
ATOM     42  O   UNL     1     110.258 129.939 138.709  0.00  0.00    +0.000 OA
BRANCH  42  44
ATOM     43  O   UNL     1     108.895 129.543 138.550  0.00  0.00    +0.000 OA
ATOM     44  C   UNL     1     109.663 129.377 138.804  0.00  0.00    +0.000 C 
BRANCH  44  45
ATOM     45  C   UNL     1     109.833 128.648 139.152  0.00  0.00    +0.000 C 
ATOM     46  C   UNL     1     109.657 128.520 139.947  0.00  0.00    +0.000 C 
BRANCH  46  49
ATOM     47  O   UNL     1     110.560 127.000 142.193  0.00  0.00    +0.000 OA
ATOM     48  O   UNL     1     110.337 125.606 141.339  0.00  0.00    +0.000 OA
ATOM     49  C   UNL     1     109.827 127.791 140.296  0.00  0.00    +0.000 A 
ATOM     50  C   UNL     1     110.109 127.760 141.070  0.00  0.00    +0.000 A 
ATOM     51  C   UNL     1     109.716 127.094 139.869  0.00  0.00    +0.000 A 
ATOM     52  C   UNL     1     110.279 127.031 141.418  0.00  0.00    +0.000 A 
ATOM     53  C   UNL     1     109.886 126.366 140.216  0.00  0.00    +0.000 A 
ATOM     54  C   UNL     1     110.168 126.334 140.991  0.00  0.00    +0.000 A 
ENDBRANCH  46  49
ENDBRANCH  44  45
ENDBRANCH  42  44
ENDBRANCH  41  42
ENDBRANCH  40  41
ENDBRANCH  31  39
ENDBRANCH   5  31
TORSDOF 10
ENDMDL
MODEL 2
REMARK VINA RESULT:     -10.5      2.264      5.152
REMARK  Name = 44257782
REMARK  10 active torsions:
REMARK  status: ('A' for Active; 'I' for Inactive)
REMARK    1  A    between atoms: O_3  and  C_28
REMARK    2  A    between atoms: O_3  and  C_30
REMARK    3  A    between atoms: O_12  and  C_33
REMARK    4  A    between atoms: O_12  and  C_40
REMARK    5  A    between atoms: C_19  and  C_24
REMARK    6  A    between atoms: C_23  and  C_31
REMARK    7  A    between atoms: C_29  and  C_33
REMARK    8  A    between atoms: C_39  and  C_41
REMARK    9  A    between atoms: C_40  and  C_42
REMARK   10  A    between atoms: C_47  and  C_49
REMARK                            x       y       z     vdW  Elec       q    Type
REMARK                         _______ _______ _______ _____ _____    ______ ____
ROOT
ATOM      1  O   UNL     1     111.388 128.454 139.361  0.00  0.00    +0.000 OA
ATOM      2  O   UNL     1     113.113 128.159 137.055  0.00  0.00    +0.000 OA
ATOM      3  O   UNL     1     111.916 129.638 138.726  0.00  0.00    +0.000 OA
ATOM      4  C   UNL     1     111.703 127.150 138.869  0.00  0.00    +0.000 A 
ATOM      5  C   UNL     1     112.092 126.665 138.327  0.00  0.00    +0.000 A 
ATOM      6  C   UNL     1     111.777 127.970 138.817  0.00  0.00    +0.000 A 
ATOM      7  C   UNL     1     112.555 127.002 137.731  0.00  0.00    +0.000 A 
ATOM      8  C   UNL     1     112.239 128.305 138.223  0.00  0.00    +0.000 A 
ATOM      9  C   UNL     1     112.629 127.822 137.680  0.00  0.00    +0.000 A 
ATOM     10  C   UNL     1     112.308 129.161 138.179  0.00  0.00    +0.000 A 
ATOM     11  C   UNL     1     112.789 129.517 137.562  0.00  0.00    +0.000 A 
ATOM     12  C   UNL     1     113.194 129.012 136.996  0.00  0.00    +0.000 A 
ENDROOT
BRANCH   4  17
ATOM     13  O   UNL     1     110.447 126.638 139.320  0.00  0.00    +0.000 OA
ATOM     14  O   UNL     1     112.364 126.830 140.347  0.00  0.00    +0.000 OA
ATOM     15  O   UNL     1     111.438 126.158 141.536  0.00  0.00    +0.000 OA
ATOM     16  O   UNL     1     109.852 125.807 141.248  0.00  0.00    +0.000 OA
ATOM     17  C   UNL     1     111.240 126.814 139.465  0.00  0.00    +0.000 C 
ATOM     18  C   UNL     1     111.570 126.654 140.203  0.00  0.00    +0.000 C 
ATOM     19  C   UNL     1     111.108 126.318 140.798  0.00  0.00    +0.000 C 
ATOM     20  C   UNL     1     110.315 126.142 140.654  0.00  0.00    +0.000 C 
ATOM     21  C   UNL     1     109.984 126.302 139.915  0.00  0.00    +0.000 C 
BRANCH  21  23
ATOM     22  O   UNL     1     108.739 126.628 139.295  0.00  0.00    +0.000 OA
ATOM     23  C   UNL     1     109.191 126.127 139.770  0.00  0.00    +0.000 C 
ENDBRANCH  21  23
ENDBRANCH   4  17
BRANCH  12  25
ATOM     24  O   UNL     1     115.047 130.344 134.613  0.00  0.00    +0.000 OA
ATOM     25  C   UNL     1     113.657 129.345 136.401  0.00  0.00    +0.000 A 
ATOM     26  C   UNL     1     113.574 129.089 135.621  0.00  0.00    +0.000 A 
ATOM     27  C   UNL     1     114.204 129.935 136.584  0.00  0.00    +0.000 A 
ATOM     28  C   UNL     1     114.036 129.421 135.025  0.00  0.00    +0.000 A 
ATOM     29  C   UNL     1     114.668 130.268 135.987  0.00  0.00    +0.000 A 
ATOM     30  C   UNL     1     114.583 130.011 135.209  0.00  0.00    +0.000 A 
ENDBRANCH  12  25
BRANCH   5  31
ATOM     31  O   UNL     1     112.018 125.845 138.379  0.00  0.00    +0.000 OA
BRANCH  31  39
ATOM     32  O   UNL     1     111.408 125.565 137.117  0.00  0.00    +0.000 OA
ATOM     33  O   UNL     1     112.975 123.680 136.778  0.00  0.00    +0.000 OA
ATOM     34  O   UNL     1     113.063 124.589 138.152  0.00  0.00    +0.000 OA
ATOM     35  O   UNL     1     111.843 124.028 135.629  0.00  0.00    +0.000 OA
ATOM     36  C   UNL     1     112.453 124.308 136.891  0.00  0.00    +0.000 C 
ATOM     37  C   UNL     1     112.496 124.763 137.578  0.00  0.00    +0.000 C 
ATOM     38  C   UNL     1     111.886 124.483 136.316  0.00  0.00    +0.000 C 
ATOM     39  C   UNL     1     111.974 125.391 137.691  0.00  0.00    +0.000 C 
ATOM     40  C   UNL     1     111.364 125.111 136.429  0.00  0.00    +0.000 C 
BRANCH  40  41
ATOM     41  C   UNL     1     110.798 125.285 135.856  0.00  0.00    +0.000 C 
BRANCH  41  42
ATOM     42  O   UNL     1     110.150 125.760 136.044  0.00  0.00    +0.000 OA
BRANCH  42  44
ATOM     43  O   UNL     1     109.326 125.930 134.890  0.00  0.00    +0.000 OA
ATOM     44  C   UNL     1     109.816 126.250 135.471  0.00  0.00    +0.000 C 
BRANCH  44  45
ATOM     45  C   UNL     1     109.973 127.060 135.478  0.00  0.00    +0.000 C 
ATOM     46  C   UNL     1     109.358 127.600 135.378  0.00  0.00    +0.000 C 
BRANCH  46  49
ATOM     47  O   UNL     1     109.177 130.147 136.664  0.00  0.00    +0.000 OA
ATOM     48  O   UNL     1     109.985 130.840 135.404  0.00  0.00    +0.000 OA
ATOM     49  C   UNL     1     109.515 128.411 135.385  0.00  0.00    +0.000 A 
ATOM     50  C   UNL     1     109.268 128.874 136.021  0.00  0.00    +0.000 A 
ATOM     51  C   UNL     1     109.919 128.758 134.755  0.00  0.00    +0.000 A 
ATOM     52  C   UNL     1     109.424 129.684 136.028  0.00  0.00    +0.000 A 
ATOM     53  C   UNL     1     110.076 129.567 134.761  0.00  0.00    +0.000 A 
ATOM     54  C   UNL     1     109.828 130.031 135.398  0.00  0.00    +0.000 A 
ENDBRANCH  46  49
ENDBRANCH  44  45
ENDBRANCH  42  44
ENDBRANCH  41  42
ENDBRANCH  40  41
ENDBRANCH  31  39
ENDBRANCH   5  31
TORSDOF 10
ENDMDL
MODEL 3
REMARK VINA RESULT:     -10.5      1.336      4.374
REMARK  Name = 44257782
REMARK  10 active torsions:
REMARK  status: ('A' for Active; 'I' for Inactive)
REMARK    1  A    between atoms: O_3  and  C_28
REMARK    2  A    between atoms: O_3  and  C_30
REMARK    3  A    between atoms: O_12  and  C_33
REMARK    4  A    between atoms: O_12  and  C_40
REMARK    5  A    between atoms: C_19  and  C_24
REMARK    6  A    between atoms: C_23  and  C_31
REMARK    7  A    between atoms: C_29  and  C_33
REMARK    8  A    between atoms: C_39  and  C_41
REMARK    9  A    between atoms: C_40  and  C_42
REMARK   10  A    between atoms: C_47  and  C_49
REMARK                            x       y       z     vdW  Elec       q    Type
REMARK                         _______ _______ _______ _____ _____    ______ ____
ROOT
ATOM      1  O   UNL     1     113.514 125.980 139.479  0.00  0.00    +0.000 OA
ATOM      2  O   UNL     1     113.683 128.869 139.405  0.00  0.00    +0.000 OA
ATOM      3  O   UNL     1     113.852 126.692 140.688  0.00  0.00    +0.000 OA
ATOM      4  C   UNL     1     113.265 126.677 138.257  0.00  0.00    +0.000 A 
ATOM      5  C   UNL     1     113.209 127.384 137.836  0.00  0.00    +0.000 A 
ATOM      6  C   UNL     1     113.459 126.688 139.059  0.00  0.00    +0.000 A 
ATOM      7  C   UNL     1     113.347 128.103 138.217  0.00  0.00    +0.000 A 
ATOM      8  C   UNL     1     113.597 127.406 139.440  0.00  0.00    +0.000 A 
ATOM      9  C   UNL     1     113.541 128.114 139.019  0.00  0.00    +0.000 A 
ATOM     10  C   UNL     1     113.798 127.404 140.275  0.00  0.00    +0.000 A 
ATOM     11  C   UNL     1     113.943 128.150 140.678  0.00  0.00    +0.000 A 
ATOM     12  C   UNL     1     113.885 128.887 140.239  0.00  0.00    +0.000 A 
ENDROOT
BRANCH   4  17
ATOM     13  O   UNL     1     112.361 125.655 137.833  0.00  0.00    +0.000 OA
ATOM     14  O   UNL     1     114.520 125.847 137.579  0.00  0.00    +0.000 OA
ATOM     15  O   UNL     1     114.243 124.410 136.817  0.00  0.00    +0.000 OA
ATOM     16  O   UNL     1     112.712 123.803 136.732  0.00  0.00    +0.000 OA
ATOM     17  C   UNL     1     113.127 125.958 137.876  0.00  0.00    +0.000 C 
ATOM     18  C   UNL     1     113.754 125.543 137.537  0.00  0.00    +0.000 C 
ATOM     19  C   UNL     1     113.616 124.825 137.156  0.00  0.00    +0.000 C 
ATOM     20  C   UNL     1     112.850 124.521 137.113  0.00  0.00    +0.000 C 
ATOM     21  C   UNL     1     112.223 124.936 137.452  0.00  0.00    +0.000 C 
BRANCH  21  23
ATOM     22  O   UNL     1     110.826 125.058 137.731  0.00  0.00    +0.000 OA
ATOM     23  C   UNL     1     111.457 124.632 137.410  0.00  0.00    +0.000 C 
ENDBRANCH  21  23
ENDBRANCH   4  17
BRANCH  12  25
ATOM     24  O   UNL     1     114.436 131.766 141.753  0.00  0.00    +0.000 OA
ATOM     25  C   UNL     1     114.022 129.607 140.618  0.00  0.00    +0.000 A 
ATOM     26  C   UNL     1     114.730 130.011 140.491  0.00  0.00    +0.000 A 
ATOM     27  C   UNL     1     113.452 129.922 141.124  0.00  0.00    +0.000 A 
ATOM     28  C   UNL     1     114.869 130.730 140.869  0.00  0.00    +0.000 A 
ATOM     29  C   UNL     1     113.590 130.643 141.502  0.00  0.00    +0.000 A 
ATOM     30  C   UNL     1     114.298 131.046 141.375  0.00  0.00    +0.000 A 
ENDBRANCH  12  25
BRANCH   5  31
ATOM     31  O   UNL     1     113.015 127.373 137.034  0.00  0.00    +0.000 OA
BRANCH  31  39
ATOM     32  O   UNL     1     111.831 128.172 137.073  0.00  0.00    +0.000 OA
ATOM     33  O   UNL     1     112.574 129.372 135.040  0.00  0.00    +0.000 OA
ATOM     34  O   UNL     1     113.511 128.173 135.679  0.00  0.00    +0.000 OA
ATOM     35  O   UNL     1     111.142 129.771 135.757  0.00  0.00    +0.000 OA
ATOM     36  C   UNL     1     112.326 128.972 135.718  0.00  0.00    +0.000 C 
ATOM     37  C   UNL     1     112.794 128.372 136.038  0.00  0.00    +0.000 C 
ATOM     38  C   UNL     1     111.610 129.171 136.077  0.00  0.00    +0.000 C 
ATOM     39  C   UNL     1     112.547 127.972 136.715  0.00  0.00    +0.000 C 
ATOM     40  C   UNL     1     111.362 128.771 136.754  0.00  0.00    +0.000 C 
BRANCH  40  41
ATOM     41  C   UNL     1     110.647 128.971 137.112  0.00  0.00    +0.000 C 
BRANCH  41  42
ATOM     42  O   UNL     1     110.260 128.424 137.594  0.00  0.00    +0.000 OA
BRANCH  42  44
ATOM     43  O   UNL     1     109.044 129.032 138.034  0.00  0.00    +0.000 OA
ATOM     44  C   UNL     1     109.773 128.686 138.206  0.00  0.00    +0.000 C 
BRANCH  44  45
ATOM     45  C   UNL     1     110.013 128.601 138.991  0.00  0.00    +0.000 C 
ATOM     46  C   UNL     1     109.732 127.973 139.444  0.00  0.00    +0.000 C 
BRANCH  46  49
ATOM     47  O   UNL     1     110.594 126.313 141.605  0.00  0.00    +0.000 OA
ATOM     48  O   UNL     1     110.694 127.638 142.583  0.00  0.00    +0.000 OA
ATOM     49  C   UNL     1     109.973 127.889 140.229  0.00  0.00    +0.000 A 
ATOM     50  C   UNL     1     110.163 127.143 140.524  0.00  0.00    +0.000 A 
ATOM     51  C   UNL     1     110.022 128.551 140.718  0.00  0.00    +0.000 A 
ATOM     52  C   UNL     1     110.404 127.059 141.309  0.00  0.00    +0.000 A 
ATOM     53  C   UNL     1     110.263 128.468 141.502  0.00  0.00    +0.000 A 
ATOM     54  C   UNL     1     110.454 127.721 141.798  0.00  0.00    +0.000 A 
ENDBRANCH  46  49
ENDBRANCH  44  45
ENDBRANCH  42  44
ENDBRANCH  41  42
ENDBRANCH  40  41
ENDBRANCH  31  39
ENDBRANCH   5  31
TORSDOF 10
ENDMDL
MODEL 4
REMARK VINA RESULT:     -10.4      2.001      4.262
REMARK  Name = 44257782
REMARK  10 active torsions:
REMARK  status: ('A' for Active; 'I' for Inactive)
REMARK    1  A    between atoms: O_3  and  C_28
REMARK    2  A    between atoms: O_3  and  C_30
REMARK    3  A    between atoms: O_12  and  C_33
REMARK    4  A    between atoms: O_12  and  C_40
REMARK    5  A    between atoms: C_19  and  C_24
REMARK    6  A    between atoms: C_23  and  C_31
REMARK    7  A    between atoms: C_29  and  C_33
REMARK    8  A    between atoms: C_39  and  C_41
REMARK    9  A    between atoms: C_40  and  C_42
REMARK   10  A    between atoms: C_47  and  C_49
REMARK                            x       y       z     vdW  Elec       q    Type
REMARK                         _______ _______ _______ _____ _____    ______ ____
ROOT
ATOM      1  O   UNL     1     108.517 128.432 136.346  0.00  0.00    +0.000 OA
ATOM      2  O   UNL     1     111.010 126.999 136.679  0.00  0.00    +0.000 OA
ATOM      3  O   UNL     1     108.487 126.993 136.458  0.00  0.00    +0.000 OA
ATOM      4  C   UNL     1     109.750 129.151 136.396  0.00  0.00    +0.000 A 
ATOM      5  C   UNL     1     110.572 129.157 136.468  0.00  0.00    +0.000 A 
ATOM      6  C   UNL     1     109.339 128.436 136.417  0.00  0.00    +0.000 A 
ATOM      7  C   UNL     1     110.983 128.447 136.560  0.00  0.00    +0.000 A 
ATOM      8  C   UNL     1     109.749 127.727 136.510  0.00  0.00    +0.000 A 
ATOM      9  C   UNL     1     110.571 127.732 136.582  0.00  0.00    +0.000 A 
ATOM     10  C   UNL     1     109.309 126.990 136.530  0.00  0.00    +0.000 A 
ATOM     11  C   UNL     1     109.731 126.247 136.627  0.00  0.00    +0.000 A 
ATOM     12  C   UNL     1     110.587 126.252 136.701  0.00  0.00    +0.000 A 
ENDROOT
BRANCH   4  17
ATOM     13  O   UNL     1     109.107 130.292 136.967  0.00  0.00    +0.000 OA
ATOM     14  O   UNL     1     109.396 129.708 134.884  0.00  0.00    +0.000 OA
ATOM     15  O   UNL     1     108.576 131.128 134.699  0.00  0.00    +0.000 OA
ATOM     16  O   UNL     1     108.109 131.990 136.026  0.00  0.00    +0.000 OA
ATOM     17  C   UNL     1     109.340 129.862 136.303  0.00  0.00    +0.000 C 
ATOM     18  C   UNL     1     109.163 130.140 135.547  0.00  0.00    +0.000 C 
ATOM     19  C   UNL     1     108.753 130.849 135.455  0.00  0.00    +0.000 C 
ATOM     20  C   UNL     1     108.519 131.281 136.118  0.00  0.00    +0.000 C 
ATOM     21  C   UNL     1     108.696 131.003 136.874  0.00  0.00    +0.000 C 
BRANCH  21  23
ATOM     22  O   UNL     1     108.448 131.071 138.280  0.00  0.00    +0.000 OA
ATOM     23  C   UNL     1     108.463 131.433 137.538  0.00  0.00    +0.000 C 
ENDBRANCH  21  23
ENDBRANCH   4  17
BRANCH  12  25
ATOM     24  O   UNL     1     112.238 123.420 137.073  0.00  0.00    +0.000 OA
ATOM     25  C   UNL     1     111.000 125.544 136.794  0.00  0.00    +0.000 A 
ATOM     26  C   UNL     1     111.216 125.288 137.548  0.00  0.00    +0.000 A 
ATOM     27  C   UNL     1     111.197 125.092 136.133  0.00  0.00    +0.000 A 
ATOM     28  C   UNL     1     111.628 124.580 137.642  0.00  0.00    +0.000 A 
ATOM     29  C   UNL     1     111.610 124.383 136.226  0.00  0.00    +0.000 A 
ATOM     30  C   UNL     1     111.825 124.128 136.981  0.00  0.00    +0.000 A 
ENDBRANCH  12  25
BRANCH   5  31
ATOM     31  O   UNL     1     110.984 129.872 136.447  0.00  0.00    +0.000 OA
BRANCH  31  39
ATOM     32  O   UNL     1     111.608 129.836 137.731  0.00  0.00    +0.000 OA
ATOM     33  O   UNL     1     113.740 130.577 136.716  0.00  0.00    +0.000 OA
ATOM     34  O   UNL     1     112.405 130.366 135.770  0.00  0.00    +0.000 OA
ATOM     35  O   UNL     1     113.654 130.294 138.339  0.00  0.00    +0.000 OA
ATOM     36  C   UNL     1     113.029 130.330 137.054  0.00  0.00    +0.000 C 
ATOM     37  C   UNL     1     112.362 130.224 136.582  0.00  0.00    +0.000 C 
ATOM     38  C   UNL     1     112.986 130.188 137.867  0.00  0.00    +0.000 C 
ATOM     39  C   UNL     1     111.651 129.977 136.920  0.00  0.00    +0.000 C 
ATOM     40  C   UNL     1     112.275 129.941 138.205  0.00  0.00    +0.000 C 
BRANCH  40  41
ATOM     41  C   UNL     1     112.232 129.800 139.016  0.00  0.00    +0.000 C 
BRANCH  41  42
ATOM     42  O   UNL     1     111.502 129.656 139.373  0.00  0.00    +0.000 OA
BRANCH  42  44
ATOM     43  O   UNL     1     111.699 129.685 140.787  0.00  0.00    +0.000 OA
ATOM     44  C   UNL     1     111.467 129.281 140.106  0.00  0.00    +0.000 C 
BRANCH  44  45
ATOM     45  C   UNL     1     111.201 128.502 140.160  0.00  0.00    +0.000 C 
ATOM     46  C   UNL     1     110.473 128.338 140.510  0.00  0.00    +0.000 C 
BRANCH  46  49
ATOM     47  O   UNL     1     108.509 126.346 139.921  0.00  0.00    +0.000 OA
ATOM     48  O   UNL     1     109.409 125.222 140.726  0.00  0.00    +0.000 OA
ATOM     49  C   UNL     1     110.206 127.559 140.564  0.00  0.00    +0.000 A 
ATOM     50  C   UNL     1     109.491 127.342 140.216  0.00  0.00    +0.000 A 
ATOM     51  C   UNL     1     110.656 126.996 140.966  0.00  0.00    +0.000 A 
ATOM     52  C   UNL     1     109.224 126.563 140.269  0.00  0.00    +0.000 A 
ATOM     53  C   UNL     1     110.391 126.217 141.021  0.00  0.00    +0.000 A 
ATOM     54  C   UNL     1     109.674 126.001 140.672  0.00  0.00    +0.000 A 
ENDBRANCH  46  49
ENDBRANCH  44  45
ENDBRANCH  42  44
ENDBRANCH  41  42
ENDBRANCH  40  41
ENDBRANCH  31  39
ENDBRANCH   5  31
TORSDOF 10
ENDMDL
MODEL 5
REMARK VINA RESULT:     -10.3      1.651      3.794
REMARK  Name = 44257782
REMARK  10 active torsions:
REMARK  status: ('A' for Active; 'I' for Inactive)
REMARK    1  A    between atoms: O_3  and  C_28
REMARK    2  A    between atoms: O_3  and  C_30
REMARK    3  A    between atoms: O_12  and  C_33
REMARK    4  A    between atoms: O_12  and  C_40
REMARK    5  A    between atoms: C_19  and  C_24
REMARK    6  A    between atoms: C_23  and  C_31
REMARK    7  A    between atoms: C_29  and  C_33
REMARK    8  A    between atoms: C_39  and  C_41
REMARK    9  A    between atoms: C_40  and  C_42
REMARK   10  A    between atoms: C_47  and  C_49
REMARK                            x       y       z     vdW  Elec       q    Type
REMARK                         _______ _______ _______ _____ _____    ______ ____
ROOT
ATOM      1  O   UNL     1     110.509 126.633 139.385  0.00  0.00    +0.000 OA
ATOM      2  O   UNL     1     113.248 126.731 138.451  0.00  0.00    +0.000 OA
ATOM      3  O   UNL     1     110.942 125.684 138.387  0.00  0.00    +0.000 OA
ATOM      4  C   UNL     1     111.407 127.611 139.912  0.00  0.00    +0.000 A 
ATOM      5  C   UNL     1     112.157 127.954 139.936  0.00  0.00    +0.000 A 
ATOM      6  C   UNL     1     111.260 126.975 139.407  0.00  0.00    +0.000 A 
ATOM      7  C   UNL     1     112.760 127.661 139.453  0.00  0.00    +0.000 A 
ATOM      8  C   UNL     1     111.861 126.683 138.926  0.00  0.00    +0.000 A 
ATOM      9  C   UNL     1     112.612 127.026 138.948  0.00  0.00    +0.000 A 
ATOM     10  C   UNL     1     111.695 126.022 138.404  0.00  0.00    +0.000 A 
ATOM     11  C   UNL     1     112.318 125.712 137.899  0.00  0.00    +0.000 A 
ATOM     12  C   UNL     1     113.099 126.070 137.923  0.00  0.00    +0.000 A 
ENDROOT
BRANCH   4  17
ATOM     13  O   UNL     1     110.322 128.516 140.126  0.00  0.00    +0.000 OA
ATOM     14  O   UNL     1     111.169 126.971 141.414  0.00  0.00    +0.000 OA
ATOM     15  O   UNL     1     109.965 127.556 142.379  0.00  0.00    +0.000 OA
ATOM     16  O   UNL     1     108.999 128.781 141.841  0.00  0.00    +0.000 OA
ATOM     17  C   UNL     1     110.805 127.903 140.395  0.00  0.00    +0.000 C 
ATOM     18  C   UNL     1     110.686 127.583 141.146  0.00  0.00    +0.000 C 
ATOM     19  C   UNL     1     110.084 127.876 141.628  0.00  0.00    +0.000 C 
ATOM     20  C   UNL     1     109.601 128.489 141.360  0.00  0.00    +0.000 C 
ATOM     21  C   UNL     1     109.720 128.809 140.609  0.00  0.00    +0.000 C 
BRANCH  21  23
ATOM     22  O   UNL     1     109.216 129.605 139.535  0.00  0.00    +0.000 OA
ATOM     23  C   UNL     1     109.237 129.421 140.339  0.00  0.00    +0.000 C 
ENDBRANCH  21  23
ENDBRANCH   4  17
BRANCH  12  25
ATOM     24  O   UNL     1     115.515 124.908 135.999  0.00  0.00    +0.000 OA
ATOM     25  C   UNL     1     113.703 125.779 137.441  0.00  0.00    +0.000 A 
ATOM     26  C   UNL     1     114.147 125.128 137.684  0.00  0.00    +0.000 A 
ATOM     27  C   UNL     1     113.864 126.140 136.717  0.00  0.00    +0.000 A 
ATOM     28  C   UNL     1     114.751 124.837 137.204  0.00  0.00    +0.000 A 
ATOM     29  C   UNL     1     114.469 125.849 136.236  0.00  0.00    +0.000 A 
ATOM     30  C   UNL     1     114.911 125.198 136.480  0.00  0.00    +0.000 A 
ENDBRANCH  12  25
BRANCH   5  31
ATOM     31  O   UNL     1     112.305 128.589 140.441  0.00  0.00    +0.000 OA
BRANCH  31  39
ATOM     32  O   UNL     1     112.735 129.551 139.475  0.00  0.00    +0.000 OA
ATOM     33  O   UNL     1     114.564 130.252 140.989  0.00  0.00    +0.000 OA
ATOM     34  O   UNL     1     113.524 129.057 141.450  0.00  0.00    +0.000 OA
ATOM     35  O   UNL     1     114.385 130.980 139.519  0.00  0.00    +0.000 OA
ATOM     36  C   UNL     1     113.954 130.019 140.484  0.00  0.00    +0.000 C 
ATOM     37  C   UNL     1     113.434 129.421 140.714  0.00  0.00    +0.000 C 
ATOM     38  C   UNL     1     113.864 130.383 139.749  0.00  0.00    +0.000 C 
ATOM     39  C   UNL     1     112.825 129.187 140.210  0.00  0.00    +0.000 C 
ATOM     40  C   UNL     1     113.255 130.149 139.244  0.00  0.00    +0.000 C 
BRANCH  40  41
ATOM     41  C   UNL     1     113.166 130.513 138.510  0.00  0.00    +0.000 C 
BRANCH  41  42
ATOM     42  O   UNL     1     112.431 130.512 138.135  0.00  0.00    +0.000 OA
BRANCH  42  44
ATOM     43  O   UNL     1     112.497 131.332 136.967  0.00  0.00    +0.000 OA
ATOM     44  C   UNL     1     112.385 130.593 137.316  0.00  0.00    +0.000 C 
BRANCH  44  45
ATOM     45  C   UNL     1     112.226 129.935 136.844  0.00  0.00    +0.000 C 
ATOM     46  C   UNL     1     111.482 129.840 136.503  0.00  0.00    +0.000 C 
BRANCH  46  49
ATOM     47  O   UNL     1     109.803 127.633 135.814  0.00  0.00    +0.000 OA
ATOM     48  O   UNL     1     110.852 127.208 134.614  0.00  0.00    +0.000 OA
ATOM     49  C   UNL     1     111.324 129.182 136.031  0.00  0.00    +0.000 A 
ATOM     50  C   UNL     1     110.642 128.737 136.159  0.00  0.00    +0.000 A 
ATOM     51  C   UNL     1     111.849 128.970 135.431  0.00  0.00    +0.000 A 
ATOM     52  C   UNL     1     110.484 128.078 135.687  0.00  0.00    +0.000 A 
ATOM     53  C   UNL     1     111.692 128.312 134.958  0.00  0.00    +0.000 A 
ATOM     54  C   UNL     1     111.009 127.866 135.087  0.00  0.00    +0.000 A 
ENDBRANCH  46  49
ENDBRANCH  44  45
ENDBRANCH  42  44
ENDBRANCH  41  42
ENDBRANCH  40  41
ENDBRANCH  31  39
ENDBRANCH   5  31
TORSDOF 10
ENDMDL
MODEL 6
REMARK VINA RESULT:     -10.2      1.366      3.449
REMARK  Name = 44257782
REMARK  10 active torsions:
REMARK  status: ('A' for Active; 'I' for Inactive)
REMARK    1  A    between atoms: O_3  and  C_28
REMARK    2  A    between atoms: O_3  and  C_30
REMARK    3  A    between atoms: O_12  and  C_33
REMARK    4  A    between atoms: O_12  and  C_40
REMARK    5  A    between atoms: C_19  and  C_24
REMARK    6  A    between atoms: C_23  and  C_31
REMARK    7  A    between atoms: C_29  and  C_33
REMARK    8  A    between atoms: C_39  and  C_41
REMARK    9  A    between atoms: C_40  and  C_42
REMARK   10  A    between atoms: C_47  and  C_49
REMARK                            x       y       z     vdW  Elec       q    Type
REMARK                         _______ _______ _______ _____ _____    ______ ____
ROOT
ATOM      1  O   UNL     1     109.181 128.281 138.356  0.00  0.00    +0.000 OA
ATOM      2  O   UNL     1     111.687 127.278 137.309  0.00  0.00    +0.000 OA
ATOM      3  O   UNL     1     109.359 126.856 138.212  0.00  0.00    +0.000 OA
ATOM      4  C   UNL     1     110.217 129.194 137.992  0.00  0.00    +0.000 A 
ATOM      5  C   UNL     1     110.975 129.336 137.698  0.00  0.00    +0.000 A 
ATOM      6  C   UNL     1     109.939 128.421 138.062  0.00  0.00    +0.000 A 
ATOM      7  C   UNL     1     111.455 128.702 137.475  0.00  0.00    +0.000 A 
ATOM      8  C   UNL     1     110.419 127.789 137.839  0.00  0.00    +0.000 A 
ATOM      9  C   UNL     1     111.177 127.929 137.545  0.00  0.00    +0.000 A 
ATOM     10  C   UNL     1     110.118 126.988 137.917  0.00  0.00    +0.000 A 
ATOM     11  C   UNL     1     110.613 126.324 137.686  0.00  0.00    +0.000 A 
ATOM     12  C   UNL     1     111.403 126.471 137.381  0.00  0.00    +0.000 A 
ENDROOT
BRANCH   4  17
ATOM     13  O   UNL     1     109.748 130.098 138.994  0.00  0.00    +0.000 OA
ATOM     14  O   UNL     1     109.237 129.919 136.880  0.00  0.00    +0.000 OA
ATOM     15  O   UNL     1     108.278 131.185 137.326  0.00  0.00    +0.000 OA
ATOM     16  O   UNL     1     108.298 131.726 138.885  0.00  0.00    +0.000 OA
ATOM     17  C   UNL     1     109.737 129.828 138.215  0.00  0.00    +0.000 C 
ATOM     18  C   UNL     1     109.247 130.190 137.659  0.00  0.00    +0.000 C 
ATOM     19  C   UNL     1     108.768 130.823 137.882  0.00  0.00    +0.000 C 
ATOM     20  C   UNL     1     108.778 131.094 138.662  0.00  0.00    +0.000 C 
ATOM     21  C   UNL     1     109.267 130.731 139.218  0.00  0.00    +0.000 C 
BRANCH  21  23
ATOM     22  O   UNL     1     109.998 131.152 140.371  0.00  0.00    +0.000 OA
ATOM     23  C   UNL     1     109.278 131.001 139.997  0.00  0.00    +0.000 C 
ENDBRANCH  21  23
ENDBRANCH   4  17
BRANCH  12  25
ATOM     24  O   UNL     1     113.330 123.947 136.484  0.00  0.00    +0.000 OA
ATOM     25  C   UNL     1     111.885 125.840 137.157  0.00  0.00    +0.000 A 
ATOM     26  C   UNL     1     111.696 125.393 136.489  0.00  0.00    +0.000 A 
ATOM     27  C   UNL     1     112.556 125.656 137.600  0.00  0.00    +0.000 A 
ATOM     28  C   UNL     1     112.177 124.762 136.265  0.00  0.00    +0.000 A 
ATOM     29  C   UNL     1     113.038 125.024 137.375  0.00  0.00    +0.000 A 
ATOM     30  C   UNL     1     112.848 124.578 136.708  0.00  0.00    +0.000 A 
ENDBRANCH  12  25
BRANCH   5  31
ATOM     31  O   UNL     1     111.253 130.109 137.628  0.00  0.00    +0.000 OA
BRANCH  31  39
ATOM     32  O   UNL     1     112.392 130.044 138.488  0.00  0.00    +0.000 OA
ATOM     33  O   UNL     1     113.740 131.245 136.795  0.00  0.00    +0.000 OA
ATOM     34  O   UNL     1     112.152 130.909 136.499  0.00  0.00    +0.000 OA
ATOM     35  O   UNL     1     114.430 130.780 138.220  0.00  0.00    +0.000 OA
ATOM     36  C   UNL     1     113.291 130.845 137.359  0.00  0.00    +0.000 C 
ATOM     37  C   UNL     1     112.497 130.677 137.212  0.00  0.00    +0.000 C 
ATOM     38  C   UNL     1     113.636 130.612 138.073  0.00  0.00    +0.000 C 
ATOM     39  C   UNL     1     112.047 130.277 137.776  0.00  0.00    +0.000 C 
ATOM     40  C   UNL     1     113.186 130.212 138.637  0.00  0.00    +0.000 C 
BRANCH  40  41
ATOM     41  C   UNL     1     113.531 129.980 139.349  0.00  0.00    +0.000 C 
BRANCH  41  42
ATOM     42  O   UNL     1     113.078 129.956 140.039  0.00  0.00    +0.000 OA
BRANCH  42  44
ATOM     43  O   UNL     1     113.854 129.545 141.166  0.00  0.00    +0.000 OA
ATOM     44  C   UNL     1     113.248 129.401 140.625  0.00  0.00    +0.000 C 
BRANCH  44  45
ATOM     45  C   UNL     1     112.812 128.702 140.671  0.00  0.00    +0.000 C 
ATOM     46  C   UNL     1     112.239 128.610 141.256  0.00  0.00    +0.000 C 
BRANCH  46  49
ATOM     47  O   UNL     1     109.788 127.253 141.821  0.00  0.00    +0.000 OA
ATOM     48  O   UNL     1     110.497 125.813 141.439  0.00  0.00    +0.000 OA
ATOM     49  C   UNL     1     111.803 127.911 141.302  0.00  0.00    +0.000 A 
ATOM     50  C   UNL     1     111.014 127.932 141.539  0.00  0.00    +0.000 A 
ATOM     51  C   UNL     1     112.157 127.191 141.111  0.00  0.00    +0.000 A 
ATOM     52  C   UNL     1     110.577 127.233 141.585  0.00  0.00    +0.000 A 
ATOM     53  C   UNL     1     111.723 126.492 141.156  0.00  0.00    +0.000 A 
ATOM     54  C   UNL     1     110.932 126.513 141.394  0.00  0.00    +0.000 A 
ENDBRANCH  46  49
ENDBRANCH  44  45
ENDBRANCH  42  44
ENDBRANCH  41  42
ENDBRANCH  40  41
ENDBRANCH  31  39
ENDBRANCH   5  31
TORSDOF 10
ENDMDL
MODEL 7
REMARK VINA RESULT:     -10.0      1.731      4.917
REMARK  Name = 44257782
REMARK  10 active torsions:
REMARK  status: ('A' for Active; 'I' for Inactive)
REMARK    1  A    between atoms: O_3  and  C_28
REMARK    2  A    between atoms: O_3  and  C_30
REMARK    3  A    between atoms: O_12  and  C_33
REMARK    4  A    between atoms: O_12  and  C_40
REMARK    5  A    between atoms: C_19  and  C_24
REMARK    6  A    between atoms: C_23  and  C_31
REMARK    7  A    between atoms: C_29  and  C_33
REMARK    8  A    between atoms: C_39  and  C_41
REMARK    9  A    between atoms: C_40  and  C_42
REMARK   10  A    between atoms: C_47  and  C_49
REMARK                            x       y       z     vdW  Elec       q    Type
REMARK                         _______ _______ _______ _____ _____    ______ ____
ROOT
ATOM      1  O   UNL     1     111.913 125.744 139.099  0.00  0.00    +0.000 OA
ATOM      2  O   UNL     1     112.982 128.416 139.416  0.00  0.00    +0.000 OA
ATOM      3  O   UNL     1     111.799 126.395 140.382  0.00  0.00    +0.000 OA
ATOM      4  C   UNL     1     112.541 126.396 137.993  0.00  0.00    +0.000 A 
ATOM      5  C   UNL     1     112.926 127.052 137.675  0.00  0.00    +0.000 A 
ATOM      6  C   UNL     1     112.298 126.401 138.782  0.00  0.00    +0.000 A 
ATOM      7  C   UNL     1     113.069 127.714 138.147  0.00  0.00    +0.000 A 
ATOM      8  C   UNL     1     112.441 127.063 139.253  0.00  0.00    +0.000 A 
ATOM      9  C   UNL     1     112.827 127.720 138.936  0.00  0.00    +0.000 A 
ATOM     10  C   UNL     1     112.184 127.056 140.072  0.00  0.00    +0.000 A 
ATOM     11  C   UNL     1     112.330 127.743 140.569  0.00  0.00    +0.000 A 
ATOM     12  C   UNL     1     112.732 128.427 140.238  0.00  0.00    +0.000 A 
ENDROOT
BRANCH   4  17
ATOM     13  O   UNL     1     111.710 125.692 137.068  0.00  0.00    +0.000 OA
ATOM     14  O   UNL     1     113.629 125.156 137.959  0.00  0.00    +0.000 OA
ATOM     15  O   UNL     1     113.342 123.832 137.017  0.00  0.00    +0.000 OA
ATOM     16  O   UNL     1     111.967 123.748 136.108  0.00  0.00    +0.000 OA
ATOM     17  C   UNL     1     112.397 125.733 137.522  0.00  0.00    +0.000 C 
ATOM     18  C   UNL     1     112.941 125.113 137.505  0.00  0.00    +0.000 C 
ATOM     19  C   UNL     1     112.798 124.452 137.034  0.00  0.00    +0.000 C 
ATOM     20  C   UNL     1     112.111 124.410 136.579  0.00  0.00    +0.000 C 
ATOM     21  C   UNL     1     111.567 125.030 136.596  0.00  0.00    +0.000 C 
BRANCH  21  23
ATOM     22  O   UNL     1     110.368 125.636 136.108  0.00  0.00    +0.000 OA
ATOM     23  C   UNL     1     110.879 124.988 136.142  0.00  0.00    +0.000 C 
ENDBRANCH  21  23
ENDBRANCH   4  17
BRANCH  12  25
ATOM     24  O   UNL     1     113.309 131.079 142.113  0.00  0.00    +0.000 OA
ATOM     25  C   UNL     1     112.877 129.090 140.706  0.00  0.00    +0.000 A 
ATOM     26  C   UNL     1     112.566 129.131 141.470  0.00  0.00    +0.000 A 
ATOM     27  C   UNL     1     113.331 129.712 140.412  0.00  0.00    +0.000 A 
ATOM     28  C   UNL     1     112.710 129.794 141.939  0.00  0.00    +0.000 A 
ATOM     29  C   UNL     1     113.475 130.376 140.882  0.00  0.00    +0.000 A 
ATOM     30  C   UNL     1     113.165 130.416 141.645  0.00  0.00    +0.000 A 
ENDBRANCH  12  25
BRANCH   5  31
ATOM     31  O   UNL     1     113.168 127.047 136.887  0.00  0.00    +0.000 OA
BRANCH  31  39
ATOM     32  O   UNL     1     112.545 128.256 136.450  0.00  0.00    +0.000 OA
ATOM     33  O   UNL     1     114.592 128.859 135.197  0.00  0.00    +0.000 OA
ATOM     34  O   UNL     1     114.533 127.449 136.052  0.00  0.00    +0.000 OA
ATOM     35  O   UNL     1     113.286 129.868 135.179  0.00  0.00    +0.000 OA
ATOM     36  C   UNL     1     113.910 128.658 135.615  0.00  0.00    +0.000 C 
ATOM     37  C   UNL     1     113.880 127.953 136.042  0.00  0.00    +0.000 C 
ATOM     38  C   UNL     1     113.256 129.163 135.606  0.00  0.00    +0.000 C 
ATOM     39  C   UNL     1     113.197 127.752 136.460  0.00  0.00    +0.000 C 
ATOM     40  C   UNL     1     112.574 128.962 136.024  0.00  0.00    +0.000 C 
BRANCH  40  41
ATOM     41  C   UNL     1     111.922 129.466 136.014  0.00  0.00    +0.000 C 
BRANCH  41  42
ATOM     42  O   UNL     1     111.265 129.300 136.485  0.00  0.00    +0.000 OA
BRANCH  42  44
ATOM     43  O   UNL     1     110.245 130.200 136.049  0.00  0.00    +0.000 OA
ATOM     44  C   UNL     1     110.716 129.893 136.652  0.00  0.00    +0.000 C 
BRANCH  44  45
ATOM     45  C   UNL     1     110.639 130.180 137.422  0.00  0.00    +0.000 C 
ATOM     46  C   UNL     1     109.942 130.050 137.843  0.00  0.00    +0.000 C 
BRANCH  46  49
ATOM     47  O   UNL     1     110.378 132.112 139.773  0.00  0.00    +0.000 OA
ATOM     48  O   UNL     1     109.631 131.195 140.922  0.00  0.00    +0.000 OA
ATOM     49  C   UNL     1     109.864 130.337 138.613  0.00  0.00    +0.000 A 
ATOM     50  C   UNL     1     110.160 131.081 138.808  0.00  0.00    +0.000 A 
ATOM     51  C   UNL     1     109.490 129.878 139.187  0.00  0.00    +0.000 A 
ATOM     52  C   UNL     1     110.083 131.368 139.578  0.00  0.00    +0.000 A 
ATOM     53  C   UNL     1     109.412 130.164 139.957  0.00  0.00    +0.000 A 
ATOM     54  C   UNL     1     109.709 130.909 140.152  0.00  0.00    +0.000 A 
ENDBRANCH  46  49
ENDBRANCH  44  45
ENDBRANCH  42  44
ENDBRANCH  41  42
ENDBRANCH  40  41
ENDBRANCH  31  39
ENDBRANCH   5  31
TORSDOF 10
ENDMDL
MODEL 8
REMARK VINA RESULT:     -10.0      2.243      5.357
REMARK  Name = 44257782
REMARK  10 active torsions:
REMARK  status: ('A' for Active; 'I' for Inactive)
REMARK    1  A    between atoms: O_3  and  C_28
REMARK    2  A    between atoms: O_3  and  C_30
REMARK    3  A    between atoms: O_12  and  C_33
REMARK    4  A    between atoms: O_12  and  C_40
REMARK    5  A    between atoms: C_19  and  C_24
REMARK    6  A    between atoms: C_23  and  C_31
REMARK    7  A    between atoms: C_29  and  C_33
REMARK    8  A    between atoms: C_39  and  C_41
REMARK    9  A    between atoms: C_40  and  C_42
REMARK   10  A    between atoms: C_47  and  C_49
REMARK                            x       y       z     vdW  Elec       q    Type
REMARK                         _______ _______ _______ _____ _____    ______ ____
ROOT
ATOM      1  O   UNL     1     110.144 126.939 136.906  0.00  0.00    +0.000 OA
ATOM      2  O   UNL     1     110.267 129.624 135.830  0.00  0.00    +0.000 OA
ATOM      3  O   UNL     1     108.916 127.673 136.713  0.00  0.00    +0.000 OA
ATOM      4  C   UNL     1     111.409 127.517 136.575  0.00  0.00    +0.000 A 
ATOM      5  C   UNL     1     111.852 128.150 136.288  0.00  0.00    +0.000 A 
ATOM      6  C   UNL     1     110.587 127.574 136.618  0.00  0.00    +0.000 A 
ATOM      7  C   UNL     1     111.472 128.842 136.044  0.00  0.00    +0.000 A 
ATOM      8  C   UNL     1     110.208 128.264 136.374  0.00  0.00    +0.000 A 
ATOM      9  C   UNL     1     110.650 128.899 136.087  0.00  0.00    +0.000 A 
ATOM     10  C   UNL     1     109.352 128.311 136.424  0.00  0.00    +0.000 A 
ATOM     11  C   UNL     1     108.950 129.028 136.172  0.00  0.00    +0.000 A 
ATOM     12  C   UNL     1     109.412 129.689 135.873  0.00  0.00    +0.000 A 
ENDROOT
BRANCH   4  17
ATOM     13  O   UNL     1     112.077 126.764 137.589  0.00  0.00    +0.000 OA
ATOM     14  O   UNL     1     111.589 126.259 135.523  0.00  0.00    +0.000 OA
ATOM     15  O   UNL     1     112.347 124.877 136.011  0.00  0.00    +0.000 OA
ATOM     16  O   UNL     1     112.926 124.753 137.551  0.00  0.00    +0.000 OA
ATOM     17  C   UNL     1     111.788 126.825 136.819  0.00  0.00    +0.000 C 
ATOM     18  C   UNL     1     111.878 126.196 136.293  0.00  0.00    +0.000 C 
ATOM     19  C   UNL     1     112.257 125.506 136.537  0.00  0.00    +0.000 C 
ATOM     20  C   UNL     1     112.547 125.444 137.307  0.00  0.00    +0.000 C 
ATOM     21  C   UNL     1     112.457 126.073 137.833  0.00  0.00    +0.000 C 
BRANCH  21  23
ATOM     22  O   UNL     1     112.413 126.468 139.206  0.00  0.00    +0.000 OA
ATOM     23  C   UNL     1     112.746 126.012 138.603  0.00  0.00    +0.000 C 
ENDBRANCH  21  23
ENDBRANCH   4  17
BRANCH  12  25
ATOM     24  O   UNL     1     107.906 132.457 134.893  0.00  0.00    +0.000 OA
ATOM     25  C   UNL     1     109.035 130.381 135.628  0.00  0.00    +0.000 A 
ATOM     26  C   UNL     1     109.139 130.657 134.857  0.00  0.00    +0.000 A 
ATOM     27  C   UNL     1     108.555 130.797 136.154  0.00  0.00    +0.000 A 
ATOM     28  C   UNL     1     108.763 131.348 134.612  0.00  0.00    +0.000 A 
ATOM     29  C   UNL     1     108.179 131.490 135.909  0.00  0.00    +0.000 A 
ATOM     30  C   UNL     1     108.283 131.765 135.138  0.00  0.00    +0.000 A 
ENDBRANCH  12  25
BRANCH   5  31
ATOM     31  O   UNL     1     112.674 128.093 136.244  0.00  0.00    +0.000 OA
BRANCH  31  39
ATOM     32  O   UNL     1     113.069 129.166 137.102  0.00  0.00    +0.000 OA
ATOM     33  O   UNL     1     114.687 129.935 135.394  0.00  0.00    +0.000 OA
ATOM     34  O   UNL     1     113.753 128.606 135.106  0.00  0.00    +0.000 OA
ATOM     35  O   UNL     1     114.543 130.751 136.820  0.00  0.00    +0.000 OA
ATOM     36  C   UNL     1     114.148 129.678 135.963  0.00  0.00    +0.000 C 
ATOM     37  C   UNL     1     113.680 129.014 135.820  0.00  0.00    +0.000 C 
ATOM     38  C   UNL     1     114.076 130.087 136.677  0.00  0.00    +0.000 C 
ATOM     39  C   UNL     1     113.141 128.758 136.389  0.00  0.00    +0.000 C 
ATOM     40  C   UNL     1     113.536 129.831 137.246  0.00  0.00    +0.000 C 
BRANCH  40  41
ATOM     41  C   UNL     1     113.464 130.239 137.959  0.00  0.00    +0.000 C 
BRANCH  41  42
ATOM     42  O   UNL     1     113.066 129.894 138.594  0.00  0.00    +0.000 OA
BRANCH  42  44
ATOM     43  O   UNL     1     113.135 130.793 139.702  0.00  0.00    +0.000 OA
ATOM     44  C   UNL     1     112.689 130.370 139.152  0.00  0.00    +0.000 C 
BRANCH  44  45
ATOM     45  C   UNL     1     111.866 130.423 139.160  0.00  0.00    +0.000 C 
ATOM     46  C   UNL     1     111.430 130.006 139.722  0.00  0.00    +0.000 C 
BRANCH  46  49
ATOM     47  O   UNL     1     108.871 128.760 139.978  0.00  0.00    +0.000 OA
ATOM     48  O   UNL     1     108.138 130.222 139.756  0.00  0.00    +0.000 OA
ATOM     49  C   UNL     1     110.607 130.059 139.731  0.00  0.00    +0.000 A 
ATOM     50  C   UNL     1     110.151 129.383 139.850  0.00  0.00    +0.000 A 
ATOM     51  C   UNL     1     110.240 130.790 139.620  0.00  0.00    +0.000 A 
ATOM     52  C   UNL     1     109.327 129.436 139.859  0.00  0.00    +0.000 A 
ATOM     53  C   UNL     1     109.417 130.844 139.628  0.00  0.00    +0.000 A 
ATOM     54  C   UNL     1     108.961 130.167 139.747  0.00  0.00    +0.000 A 
ENDBRANCH  46  49
ENDBRANCH  44  45
ENDBRANCH  42  44
ENDBRANCH  41  42
ENDBRANCH  40  41
ENDBRANCH  31  39
ENDBRANCH   5  31
TORSDOF 10
ENDMDL
MODEL 9
REMARK VINA RESULT:     -10.0      1.509      3.438
REMARK  Name = 44257782
REMARK  10 active torsions:
REMARK  status: ('A' for Active; 'I' for Inactive)
REMARK    1  A    between atoms: O_3  and  C_28
REMARK    2  A    between atoms: O_3  and  C_30
REMARK    3  A    between atoms: O_12  and  C_33
REMARK    4  A    between atoms: O_12  and  C_40
REMARK    5  A    between atoms: C_19  and  C_24
REMARK    6  A    between atoms: C_23  and  C_31
REMARK    7  A    between atoms: C_29  and  C_33
REMARK    8  A    between atoms: C_39  and  C_41
REMARK    9  A    between atoms: C_40  and  C_42
REMARK   10  A    between atoms: C_47  and  C_49
REMARK                            x       y       z     vdW  Elec       q    Type
REMARK                         _______ _______ _______ _____ _____    ______ ____
ROOT
ATOM      1  O   UNL     1     113.746 129.900 141.362  0.00  0.00    +0.000 OA
ATOM      2  O   UNL     1     112.856 130.292 138.635  0.00  0.00    +0.000 OA
ATOM      3  O   UNL     1     114.696 129.743 140.287  0.00  0.00    +0.000 OA
ATOM      4  C   UNL     1     112.384 130.244 141.099  0.00  0.00    +0.000 A 
ATOM      5  C   UNL     1     111.782 130.423 140.564  0.00  0.00    +0.000 A 
ATOM      6  C   UNL     1     113.145 130.079 140.826  0.00  0.00    +0.000 A 
ATOM      7  C   UNL     1     111.942 130.438 139.754  0.00  0.00    +0.000 A 
ATOM      8  C   UNL     1     113.304 130.094 140.017  0.00  0.00    +0.000 A 
ATOM      9  C   UNL     1     112.703 130.273 139.481  0.00  0.00    +0.000 A 
ATOM     10  C   UNL     1     114.100 129.921 139.744  0.00  0.00    +0.000 A 
ATOM     11  C   UNL     1     114.273 129.935 138.902  0.00  0.00    +0.000 A 
ATOM     12  C   UNL     1     113.646 130.121 138.345  0.00  0.00    +0.000 A 
ENDROOT
BRANCH   4  17
ATOM     13  O   UNL     1     111.968 129.531 142.266  0.00  0.00    +0.000 OA
ATOM     14  O   UNL     1     112.578 131.610 142.004  0.00  0.00    +0.000 OA
ATOM     15  O   UNL     1     112.259 131.581 143.622  0.00  0.00    +0.000 OA
ATOM     16  O   UNL     1     111.746 130.185 144.337  0.00  0.00    +0.000 OA
ATOM     17  C   UNL     1     112.224 130.229 141.909  0.00  0.00    +0.000 C 
ATOM     18  C   UNL     1     112.321 130.913 142.362  0.00  0.00    +0.000 C 
ATOM     19  C   UNL     1     112.162 130.898 143.170  0.00  0.00    +0.000 C 
ATOM     20  C   UNL     1     111.905 130.200 143.528  0.00  0.00    +0.000 C 
ATOM     21  C   UNL     1     111.809 129.516 143.076  0.00  0.00    +0.000 C 
BRANCH  21  23
ATOM     22  O   UNL     1     111.227 128.215 142.972  0.00  0.00    +0.000 OA
ATOM     23  C   UNL     1     111.552 128.818 143.433  0.00  0.00    +0.000 C 
ENDBRANCH  21  23
ENDBRANCH   4  17
BRANCH  12  25
ATOM     24  O   UNL     1     114.272 130.182 135.105  0.00  0.00    +0.000 OA
ATOM     25  C   UNL     1     113.802 130.136 137.535  0.00  0.00    +0.000 A 
ATOM     26  C   UNL     1     113.675 129.462 137.077  0.00  0.00    +0.000 A 
ATOM     27  C   UNL     1     114.087 130.826 137.182  0.00  0.00    +0.000 A 
ATOM     28  C   UNL     1     113.831 129.477 136.267  0.00  0.00    +0.000 A 
ATOM     29  C   UNL     1     114.243 130.841 136.371  0.00  0.00    +0.000 A 
ATOM     30  C   UNL     1     114.115 130.166 135.915  0.00  0.00    +0.000 A 
ENDBRANCH  12  25
BRANCH   5  31
ATOM     31  O   UNL     1     111.022 130.587 140.838  0.00  0.00    +0.000 OA
BRANCH  31  39
ATOM     32  O   UNL     1     110.285 129.641 140.061  0.00  0.00    +0.000 OA
ATOM     33  O   UNL     1     108.564 131.359 139.600  0.00  0.00    +0.000 OA
ATOM     34  O   UNL     1     109.874 131.733 140.531  0.00  0.00    +0.000 OA
ATOM     35  O   UNL     1     108.401 129.840 138.976  0.00  0.00    +0.000 OA
ATOM     36  C   UNL     1     109.138 130.786 139.754  0.00  0.00    +0.000 C 
ATOM     37  C   UNL     1     109.793 130.972 140.219  0.00  0.00    +0.000 C 
ATOM     38  C   UNL     1     109.057 130.026 139.442  0.00  0.00    +0.000 C 
ATOM     39  C   UNL     1     110.367 130.400 140.373  0.00  0.00    +0.000 C 
ATOM     40  C   UNL     1     109.630 129.453 139.595  0.00  0.00    +0.000 C 
BRANCH  40  41
ATOM     41  C   UNL     1     109.549 128.695 139.283  0.00  0.00    +0.000 C 
BRANCH  41  42
ATOM     42  O   UNL     1     109.965 128.064 139.616  0.00  0.00    +0.000 OA
BRANCH  42  44
ATOM     43  O   UNL     1     109.444 126.872 139.027  0.00  0.00    +0.000 OA
ATOM     44  C   UNL     1     110.081 127.372 139.183  0.00  0.00    +0.000 C 
BRANCH  44  45
ATOM     45  C   UNL     1     110.834 127.179 138.907  0.00  0.00    +0.000 C 
ATOM     46  C   UNL     1     111.299 126.637 139.318  0.00  0.00    +0.000 C 
BRANCH  46  49
ATOM     47  O   UNL     1     114.125 126.497 139.722  0.00  0.00    +0.000 OA
ATOM     48  O   UNL     1     114.309 125.863 138.209  0.00  0.00    +0.000 OA
ATOM     49  C   UNL     1     112.052 126.444 139.042  0.00  0.00    +0.000 A 
ATOM     50  C   UNL     1     112.712 126.567 139.520  0.00  0.00    +0.000 A 
ATOM     51  C   UNL     1     112.144 126.127 138.285  0.00  0.00    +0.000 A 
ATOM     52  C   UNL     1     113.465 126.374 139.243  0.00  0.00    +0.000 A 
ATOM     53  C   UNL     1     112.896 125.933 138.008  0.00  0.00    +0.000 A 
ATOM     54  C   UNL     1     113.557 126.057 138.487  0.00  0.00    +0.000 A 
ENDBRANCH  46  49
ENDBRANCH  44  45
ENDBRANCH  42  44
ENDBRANCH  41  42
ENDBRANCH  40  41
ENDBRANCH  31  39
ENDBRANCH   5  31
TORSDOF 10
ENDMDL
MODEL 10
REMARK VINA RESULT:      -9.9      1.798      4.656
REMARK  Name = 44257782
REMARK  10 active torsions:
REMARK  status: ('A' for Active; 'I' for Inactive)
REMARK    1  A    between atoms: O_3  and  C_28
REMARK    2  A    between atoms: O_3  and  C_30
REMARK    3  A    between atoms: O_12  and  C_33
REMARK    4  A    between atoms: O_12  and  C_40
REMARK    5  A    between atoms: C_19  and  C_24
REMARK    6  A    between atoms: C_23  and  C_31
REMARK    7  A    between atoms: C_29  and  C_33
REMARK    8  A    between atoms: C_39  and  C_41
REMARK    9  A    between atoms: C_40  and  C_42
REMARK   10  A    between atoms: C_47  and  C_49
REMARK                            x       y       z     vdW  Elec       q    Type
REMARK                         _______ _______ _______ _____ _____    ______ ____
ROOT
ATOM      1  O   UNL     1     111.166 131.379 138.897  0.00  0.00    +0.000 OA
ATOM      2  O   UNL     1     112.325 129.318 137.226  0.00  0.00    +0.000 OA
ATOM      3  O   UNL     1     112.294 131.710 138.060  0.00  0.00    +0.000 OA
ATOM      4  C   UNL     1     110.620 130.058 138.912  0.00  0.00    +0.000 A 
ATOM      5  C   UNL     1     110.627 129.279 138.642  0.00  0.00    +0.000 A 
ATOM      6  C   UNL     1     111.174 130.599 138.627  0.00  0.00    +0.000 A 
ATOM      7  C   UNL     1     111.190 129.040 138.088  0.00  0.00    +0.000 A 
ATOM      8  C   UNL     1     111.736 130.360 138.073  0.00  0.00    +0.000 A 
ATOM      9  C   UNL     1     111.744 129.580 137.803  0.00  0.00    +0.000 A 
ATOM     10  C   UNL     1     112.308 130.932 137.785  0.00  0.00    +0.000 A 
ATOM     11  C   UNL     1     112.897 130.689 137.207  0.00  0.00    +0.000 A 
ATOM     12  C   UNL     1     112.905 129.877 136.927  0.00  0.00    +0.000 A 
ENDROOT
BRANCH   4  17
ATOM     13  O   UNL     1     110.224 130.243 140.272  0.00  0.00    +0.000 OA
ATOM     14  O   UNL     1     109.162 130.645 138.408  0.00  0.00    +0.000 OA
ATOM     15  O   UNL     1     108.037 131.123 139.516  0.00  0.00    +0.000 OA
ATOM     16  O   UNL     1     108.370 131.015 141.129  0.00  0.00    +0.000 OA
ATOM     17  C   UNL     1     110.057 130.298 139.466  0.00  0.00    +0.000 C 
ATOM     18  C   UNL     1     109.328 130.591 139.214  0.00  0.00    +0.000 C 
ATOM     19  C   UNL     1     108.766 130.830 139.768  0.00  0.00    +0.000 C 
ATOM     20  C   UNL     1     108.932 130.776 140.575  0.00  0.00    +0.000 C 
ATOM     21  C   UNL     1     109.661 130.482 140.827  0.00  0.00    +0.000 C 
BRANCH  21  23
ATOM     22  O   UNL     1     110.278 129.798 141.919  0.00  0.00    +0.000 OA
ATOM     23  C   UNL     1     109.828 130.428 141.633  0.00  0.00    +0.000 C 
ENDBRANCH  21  23
ENDBRANCH   4  17
BRANCH  12  25
ATOM     24  O   UNL     1     115.150 128.908 134.710  0.00  0.00    +0.000 OA
ATOM     25  C   UNL     1     113.466 129.635 136.372  0.00  0.00    +0.000 A 
ATOM     26  C   UNL     1     113.425 128.878 136.047  0.00  0.00    +0.000 A 
ATOM     27  C   UNL     1     114.069 130.150 136.144  0.00  0.00    +0.000 A 
ATOM     28  C   UNL     1     113.985 128.635 135.493  0.00  0.00    +0.000 A 
ATOM     29  C   UNL     1     114.631 129.907 135.589  0.00  0.00    +0.000 A 
ATOM     30  C   UNL     1     114.588 129.150 135.264  0.00  0.00    +0.000 A 
ENDBRANCH  12  25
BRANCH   5  31
ATOM     31  O   UNL     1     110.072 128.738 138.927  0.00  0.00    +0.000 OA
BRANCH  31  39
ATOM     32  O   UNL     1     110.964 127.762 139.469  0.00  0.00    +0.000 OA
ATOM     33  O   UNL     1     109.567 125.956 138.513  0.00  0.00    +0.000 OA
ATOM     34  O   UNL     1     109.141 127.535 138.290  0.00  0.00    +0.000 OA
ATOM     35  O   UNL     1     110.924 125.582 139.374  0.00  0.00    +0.000 OA
ATOM     36  C   UNL     1     110.032 126.558 138.832  0.00  0.00    +0.000 C 
ATOM     37  C   UNL     1     109.820 127.347 138.720  0.00  0.00    +0.000 C 
ATOM     38  C   UNL     1     110.712 126.371 139.262  0.00  0.00    +0.000 C 
ATOM     39  C   UNL     1     110.286 127.949 139.039  0.00  0.00    +0.000 C 
ATOM     40  C   UNL     1     111.177 126.973 139.581  0.00  0.00    +0.000 C 
BRANCH  40  41
ATOM     41  C   UNL     1     111.855 126.785 140.011  0.00  0.00    +0.000 C 
BRANCH  41  42
ATOM     42  O   UNL     1     112.093 127.266 140.638  0.00  0.00    +0.000 OA
BRANCH  42  44
ATOM     43  O   UNL     1     113.301 126.732 141.183  0.00  0.00    +0.000 OA
ATOM     44  C   UNL     1     112.894 127.349 140.814  0.00  0.00    +0.000 C 
BRANCH  44  45
ATOM     45  C   UNL     1     113.290 128.047 140.623  0.00  0.00    +0.000 C 
ATOM     46  C   UNL     1     113.437 128.611 141.206  0.00  0.00    +0.000 C 
BRANCH  46  49
ATOM     47  O   UNL     1     113.733 131.441 141.470  0.00  0.00    +0.000 OA
ATOM     48  O   UNL     1     115.021 131.403 140.439  0.00  0.00    +0.000 OA
ATOM     49  C   UNL     1     113.833 129.309 141.014  0.00  0.00    +0.000 A 
ATOM     50  C   UNL     1     113.585 130.026 141.338  0.00  0.00    +0.000 A 
ATOM     51  C   UNL     1     114.477 129.290 140.499  0.00  0.00    +0.000 A 
ATOM     52  C   UNL     1     113.981 130.725 141.146  0.00  0.00    +0.000 A 
ATOM     53  C   UNL     1     114.873 129.987 140.307  0.00  0.00    +0.000 A 
ATOM     54  C   UNL     1     114.625 130.705 140.631  0.00  0.00    +0.000 A 
ENDBRANCH  46  49
ENDBRANCH  44  45
ENDBRANCH  42  44
ENDBRANCH  41  42
ENDBRANCH  40  41
ENDBRANCH  31  39
ENDBRANCH   5  31
TORSDOF 10
ENDMDL
