MODEL 1
REMARK VINA RESULT:      -9.1      0.000      0.000
REMARK  Name = 42608010
REMARK  5 active torsions:
REMARK  status: ('A' for Active; 'I' for Inactive)
REMARK    1  A    between atoms: O_3  and  C_19
REMARK    2  A    between atoms: O_3  and  C_24
REMARK    3  A    between atoms: O_4  and  C_18
REMARK    4  A    between atoms: C_8  and  C_10
REMARK    5  A    between atoms: C_23  and  C_24
REMARK                            x       y       z     vdW  Elec       q    Type
REMARK                         _______ _______ _______ _____ _____    ______ ____
ROOT
ATOM      1  C   UNL     1     104.602 124.406 146.746  0.00  0.00    +0.000 A 
ATOM      2  C   UNL     1     104.477 123.870 146.132  0.00  0.00    +0.000 A 
ATOM      3  C   UNL     1     103.958 124.722 147.156  0.00  0.00    +0.000 A 
ATOM      4  C   UNL     1     103.709 123.649 145.928  0.00  0.00    +0.000 A 
ATOM      5  C   UNL     1     103.066 123.964 146.336  0.00  0.00    +0.000 A 
ATOM      6  C   UNL     1     103.191 124.501 146.950  0.00  0.00    +0.000 A 
ENDROOT
BRANCH   1  11
ATOM      7  O   UNL     1     105.681 124.403 147.683  0.00  0.00    +0.000 OA
ATOM      8  O   UNL     1     107.049 125.739 146.111  0.00  0.00    +0.000 OA
ATOM      9  O   UNL     1     108.154 125.751 147.037  0.00  0.00    +0.000 OA
ATOM     10  O   UNL     1     107.870 124.386 149.604  0.00  0.00    +0.000 OA
ATOM     11  C   UNL     1     105.369 124.628 146.952  0.00  0.00    +0.000 C 
ATOM     12  C   UNL     1     105.825 125.073 146.428  0.00  0.00    +0.000 C 
ATOM     13  C   UNL     1     106.593 125.294 146.635  0.00  0.00    +0.000 C 
ATOM     14  C   UNL     1     106.905 125.070 147.364  0.00  0.00    +0.000 A 
ATOM     15  C   UNL     1     106.449 124.625 147.888  0.00  0.00    +0.000 A 
ATOM     16  C   UNL     1     107.706 125.306 147.568  0.00  0.00    +0.000 A 
ATOM     17  C   UNL     1     106.763 124.385 148.652  0.00  0.00    +0.000 A 
ATOM     18  C   UNL     1     108.036 125.076 148.327  0.00  0.00    +0.000 A 
ATOM     19  C   UNL     1     107.561 124.612 148.872  0.00  0.00    +0.000 A 
ENDBRANCH   1  11
BRANCH   4  20
ATOM     20  O   UNL     1     103.584 123.113 145.313  0.00  0.00    +0.000 OA
ATOM     21  C   UNL     1     104.151 123.025 144.720  0.00  0.00    +0.000 C 
ENDBRANCH   4  20
BRANCH   5  22
ATOM     22  O   UNL     1     102.297 123.744 146.132  0.00  0.00    +0.000 OA
BRANCH  22  24
ATOM     23  O   UNL     1     101.676 124.597 147.094  0.00  0.00    +0.000 OA
ATOM     24  C   UNL     1     101.671 123.906 146.643  0.00  0.00    +0.000 C 
BRANCH  24  25
ATOM     25  C   UNL     1     101.040 123.379 146.703  0.00  0.00    +0.000 C 
ATOM     26  C   UNL     1     100.711 123.210 147.440  0.00  0.00    +0.000 C 
ATOM     27  C   UNL     1     100.737 123.020 146.025  0.00  0.00    +0.000 C 
ENDBRANCH  24  25
ENDBRANCH  22  24
ENDBRANCH   5  22
TORSDOF 5
ENDMDL
MODEL 2
REMARK VINA RESULT:      -8.6     10.925     12.763
REMARK  Name = 42608010
REMARK  5 active torsions:
REMARK  status: ('A' for Active; 'I' for Inactive)
REMARK    1  A    between atoms: O_3  and  C_19
REMARK    2  A    between atoms: O_3  and  C_24
REMARK    3  A    between atoms: O_4  and  C_18
REMARK    4  A    between atoms: C_8  and  C_10
REMARK    5  A    between atoms: C_23  and  C_24
REMARK                            x       y       z     vdW  Elec       q    Type
REMARK                         _______ _______ _______ _____ _____    ______ ____
ROOT
ATOM      1  C   UNL     1     110.275 126.964 136.720  0.00  0.00    +0.000 A 
ATOM      2  C   UNL     1     110.198 126.642 137.476  0.00  0.00    +0.000 A 
ATOM      3  C   UNL     1     110.736 126.580 136.153  0.00  0.00    +0.000 A 
ATOM      4  C   UNL     1     110.583 125.937 137.665  0.00  0.00    +0.000 A 
ATOM      5  C   UNL     1     111.043 125.554 137.100  0.00  0.00    +0.000 A 
ATOM      6  C   UNL     1     111.120 125.875 136.344  0.00  0.00    +0.000 A 
ENDROOT
BRANCH   1  11
ATOM      7  O   UNL     1     110.270 128.391 136.657  0.00  0.00    +0.000 OA
ATOM      8  O   UNL     1     107.985 128.341 135.708  0.00  0.00    +0.000 OA
ATOM      9  O   UNL     1     107.953 129.781 135.632  0.00  0.00    +0.000 OA
ATOM     10  O   UNL     1     110.278 131.301 136.535  0.00  0.00    +0.000 OA
ATOM     11  C   UNL     1     109.891 127.669 136.530  0.00  0.00    +0.000 C 
ATOM     12  C   UNL     1     109.129 127.652 136.214  0.00  0.00    +0.000 C 
ATOM     13  C   UNL     1     108.746 128.358 136.024  0.00  0.00    +0.000 C 
ATOM     14  C   UNL     1     109.124 129.079 136.150  0.00  0.00    +0.000 A 
ATOM     15  C   UNL     1     109.886 129.096 136.467  0.00  0.00    +0.000 A 
ATOM     16  C   UNL     1     108.715 129.808 135.948  0.00  0.00    +0.000 A 
ATOM     17  C   UNL     1     110.291 129.842 136.603  0.00  0.00    +0.000 A 
ATOM     18  C   UNL     1     109.103 130.563 136.078  0.00  0.00    +0.000 A 
ATOM     19  C   UNL     1     109.897 130.580 136.407  0.00  0.00    +0.000 A 
ENDBRANCH   1  11
BRANCH   4  20
ATOM     20  O   UNL     1     110.506 125.616 138.421  0.00  0.00    +0.000 OA
ATOM     21  C   UNL     1     110.227 126.083 139.042  0.00  0.00    +0.000 C 
ENDBRANCH   4  20
BRANCH   5  22
ATOM     22  O   UNL     1     111.428 124.848 137.289  0.00  0.00    +0.000 OA
BRANCH  22  24
ATOM     23  O   UNL     1     111.371 124.407 135.931  0.00  0.00    +0.000 OA
ATOM     24  C   UNL     1     111.693 124.349 136.689  0.00  0.00    +0.000 C 
BRANCH  24  25
ATOM     25  C   UNL     1     112.280 123.790 136.845  0.00  0.00    +0.000 C 
ATOM     26  C   UNL     1     113.073 123.982 136.728  0.00  0.00    +0.000 C 
ATOM     27  C   UNL     1     112.073 123.040 137.118  0.00  0.00    +0.000 C 
ENDBRANCH  24  25
ENDBRANCH  22  24
ENDBRANCH   5  22
TORSDOF 5
ENDMDL
MODEL 3
REMARK VINA RESULT:      -8.5      8.403      9.621
REMARK  Name = 42608010
REMARK  5 active torsions:
REMARK  status: ('A' for Active; 'I' for Inactive)
REMARK    1  A    between atoms: O_3  and  C_19
REMARK    2  A    between atoms: O_3  and  C_24
REMARK    3  A    between atoms: O_4  and  C_18
REMARK    4  A    between atoms: C_8  and  C_10
REMARK    5  A    between atoms: C_23  and  C_24
REMARK                            x       y       z     vdW  Elec       q    Type
REMARK                         _______ _______ _______ _____ _____    ______ ____
ROOT
ATOM      1  C   UNL     1     102.931 130.541 141.534  0.00  0.00    +0.000 A 
ATOM      2  C   UNL     1     102.759 130.047 140.896  0.00  0.00    +0.000 A 
ATOM      3  C   UNL     1     103.468 130.297 142.112  0.00  0.00    +0.000 A 
ATOM      4  C   UNL     1     103.125 129.310 140.835  0.00  0.00    +0.000 A 
ATOM      5  C   UNL     1     103.662 129.066 141.412  0.00  0.00    +0.000 A 
ATOM      6  C   UNL     1     103.833 129.560 142.050  0.00  0.00    +0.000 A 
ENDROOT
BRANCH   1  11
ATOM      7  O   UNL     1     102.939 131.949 141.292  0.00  0.00    +0.000 OA
ATOM      8  O   UNL     1     100.728 132.150 142.387  0.00  0.00    +0.000 OA
ATOM      9  O   UNL     1     100.710 133.573 142.156  0.00  0.00    +0.000 OA
ATOM     10  O   UNL     1     102.973 134.817 140.790  0.00  0.00    +0.000 OA
ATOM     11  C   UNL     1     102.566 131.278 141.596  0.00  0.00    +0.000 C 
ATOM     12  C   UNL     1     101.829 131.345 141.961  0.00  0.00    +0.000 C 
ATOM     13  C   UNL     1     101.465 132.083 142.022  0.00  0.00    +0.000 C 
ATOM     14  C   UNL     1     101.837 132.753 141.719  0.00  0.00    +0.000 A 
ATOM     15  C   UNL     1     102.574 132.686 141.354  0.00  0.00    +0.000 A 
ATOM     16  C   UNL     1     101.447 133.516 141.789  0.00  0.00    +0.000 A 
ATOM     17  C   UNL     1     102.972 133.378 141.034  0.00  0.00    +0.000 A 
ATOM     18  C   UNL     1     101.830 134.218 141.475  0.00  0.00    +0.000 A 
ATOM     19  C   UNL     1     102.597 134.148 141.095  0.00  0.00    +0.000 A 
ENDBRANCH   1  11
BRANCH   4  20
ATOM     20  O   UNL     1     102.954 128.816 140.197  0.00  0.00    +0.000 OA
ATOM     21  C   UNL     1     102.395 129.047 139.634  0.00  0.00    +0.000 C 
ENDBRANCH   4  20
BRANCH   5  22
ATOM     22  O   UNL     1     104.028 128.329 141.351  0.00  0.00    +0.000 OA
BRANCH  22  24
ATOM     23  O   UNL     1     105.342 128.878 141.455  0.00  0.00    +0.000 OA
ATOM     24  C   UNL     1     104.822 128.245 141.553  0.00  0.00    +0.000 C 
BRANCH  24  25
ATOM     25  C   UNL     1     105.099 127.527 141.853  0.00  0.00    +0.000 C 
ATOM     26  C   UNL     1     105.141 126.865 141.364  0.00  0.00    +0.000 C 
ATOM     27  C   UNL     1     105.333 127.474 142.642  0.00  0.00    +0.000 C 
ENDBRANCH  24  25
ENDBRANCH  22  24
ENDBRANCH   5  22
TORSDOF 5
ENDMDL
MODEL 4
REMARK VINA RESULT:      -8.5     11.125     12.596
REMARK  Name = 42608010
REMARK  5 active torsions:
REMARK  status: ('A' for Active; 'I' for Inactive)
REMARK    1  A    between atoms: O_3  and  C_19
REMARK    2  A    between atoms: O_3  and  C_24
REMARK    3  A    between atoms: O_4  and  C_18
REMARK    4  A    between atoms: C_8  and  C_10
REMARK    5  A    between atoms: C_23  and  C_24
REMARK                            x       y       z     vdW  Elec       q    Type
REMARK                         _______ _______ _______ _____ _____    ______ ____
ROOT
ATOM      1  C   UNL     1     113.351 127.817 139.417  0.00  0.00    +0.000 A 
ATOM      2  C   UNL     1     113.026 127.926 138.667  0.00  0.00    +0.000 A 
ATOM      3  C   UNL     1     113.690 127.091 139.618  0.00  0.00    +0.000 A 
ATOM      4  C   UNL     1     113.038 127.309 138.118  0.00  0.00    +0.000 A 
ATOM      5  C   UNL     1     113.376 126.585 138.319  0.00  0.00    +0.000 A 
ATOM      6  C   UNL     1     113.702 126.475 139.069  0.00  0.00    +0.000 A 
ENDROOT
BRANCH   1  11
ATOM      7  O   UNL     1     113.910 129.028 139.930  0.00  0.00    +0.000 OA
ATOM      8  O   UNL     1     112.164 129.089 141.684  0.00  0.00    +0.000 OA
ATOM      9  O   UNL     1     112.708 130.312 142.222  0.00  0.00    +0.000 OA
ATOM     10  O   UNL     1     115.062 131.495 140.962  0.00  0.00    +0.000 OA
ATOM     11  C   UNL     1     113.339 128.432 139.966  0.00  0.00    +0.000 C 
ATOM     12  C   UNL     1     112.757 128.453 140.550  0.00  0.00    +0.000 C 
ATOM     13  C   UNL     1     112.746 129.069 141.099  0.00  0.00    +0.000 C 
ATOM     14  C   UNL     1     113.316 129.664 141.064  0.00  0.00    +0.000 A 
ATOM     15  C   UNL     1     113.898 129.643 140.479  0.00  0.00    +0.000 A 
ATOM     16  C   UNL     1     113.293 130.300 141.641  0.00  0.00    +0.000 A 
ATOM     17  C   UNL     1     114.497 130.257 140.432  0.00  0.00    +0.000 A 
ATOM     18  C   UNL     1     113.884 130.922 141.609  0.00  0.00    +0.000 A 
ATOM     19  C   UNL     1     114.490 130.901 141.001  0.00  0.00    +0.000 A 
ENDBRANCH   1  11
BRANCH   4  20
ATOM     20  O   UNL     1     112.713 127.418 137.368  0.00  0.00    +0.000 OA
ATOM     21  C   UNL     1     112.300 128.112 137.194  0.00  0.00    +0.000 C 
ENDBRANCH   4  20
BRANCH   5  22
ATOM     22  O   UNL     1     113.389 125.968 137.771  0.00  0.00    +0.000 OA
BRANCH  22  24
ATOM     23  O   UNL     1     114.619 125.493 138.321  0.00  0.00    +0.000 OA
ATOM     24  C   UNL     1     114.036 125.458 137.738  0.00  0.00    +0.000 C 
BRANCH  24  25
ATOM     25  C   UNL     1     114.101 124.912 137.123  0.00  0.00    +0.000 C 
ATOM     26  C   UNL     1     113.565 124.287 137.067  0.00  0.00    +0.000 C 
ATOM     27  C   UNL     1     114.702 124.991 136.564  0.00  0.00    +0.000 C 
ENDBRANCH  24  25
ENDBRANCH  22  24
ENDBRANCH   5  22
TORSDOF 5
ENDMDL
MODEL 5
REMARK VINA RESULT:      -8.4     12.357     14.495
REMARK  Name = 42608010
REMARK  5 active torsions:
REMARK  status: ('A' for Active; 'I' for Inactive)
REMARK    1  A    between atoms: O_3  and  C_19
REMARK    2  A    between atoms: O_3  and  C_24
REMARK    3  A    between atoms: O_4  and  C_18
REMARK    4  A    between atoms: C_8  and  C_10
REMARK    5  A    between atoms: C_23  and  C_24
REMARK                            x       y       z     vdW  Elec       q    Type
REMARK                         _______ _______ _______ _____ _____    ______ ____
ROOT
ATOM      1  C   UNL     1     112.911 127.670 136.323  0.00  0.00    +0.000 A 
ATOM      2  C   UNL     1     112.459 128.161 135.839  0.00  0.00    +0.000 A 
ATOM      3  C   UNL     1     113.708 127.841 136.456  0.00  0.00    +0.000 A 
ATOM      4  C   UNL     1     112.803 128.823 135.487  0.00  0.00    +0.000 A 
ATOM      5  C   UNL     1     113.598 128.995 135.620  0.00  0.00    +0.000 A 
ATOM      6  C   UNL     1     114.051 128.504 136.105  0.00  0.00    +0.000 A 
ENDROOT
BRANCH   1  11
ATOM      7  O   UNL     1     112.575 126.281 136.281  0.00  0.00    +0.000 OA
ATOM      8  O   UNL     1     111.527 126.467 138.515  0.00  0.00    +0.000 OA
ATOM      9  O   UNL     1     111.175 125.069 138.499  0.00  0.00    +0.000 OA
ATOM     10  O   UNL     1     111.898 123.451 136.177  0.00  0.00    +0.000 OA
ATOM     11  C   UNL     1     112.568 127.007 136.675  0.00  0.00    +0.000 C 
ATOM     12  C   UNL     1     112.219 127.069 137.420  0.00  0.00    +0.000 C 
ATOM     13  C   UNL     1     111.876 126.405 137.771  0.00  0.00    +0.000 C 
ATOM     14  C   UNL     1     111.883 125.681 137.378  0.00  0.00    +0.000 A 
ATOM     15  C   UNL     1     112.232 125.619 136.633  0.00  0.00    +0.000 A 
ATOM     16  C   UNL     1     111.522 124.997 137.754  0.00  0.00    +0.000 A 
ATOM     17  C   UNL     1     112.245 124.869 136.213  0.00  0.00    +0.000 A 
ATOM     18  C   UNL     1     111.526 124.239 137.349  0.00  0.00    +0.000 A 
ATOM     19  C   UNL     1     111.890 124.175 136.574  0.00  0.00    +0.000 A 
ENDBRANCH   1  11
BRANCH   4  20
ATOM     20  O   UNL     1     112.351 129.314 135.003  0.00  0.00    +0.000 OA
ATOM     21  C   UNL     1     111.580 129.098 134.799  0.00  0.00    +0.000 C 
ENDBRANCH   4  20
BRANCH   5  22
ATOM     22  O   UNL     1     113.942 129.657 135.269  0.00  0.00    +0.000 OA
BRANCH  22  24
ATOM     23  O   UNL     1     114.719 129.904 136.442  0.00  0.00    +0.000 OA
ATOM     24  C   UNL     1     114.563 130.049 135.645  0.00  0.00    +0.000 C 
BRANCH  24  25
ATOM     25  C   UNL     1     115.028 130.585 135.225  0.00  0.00    +0.000 C 
ATOM     26  C   UNL     1     115.009 131.387 135.415  0.00  0.00    +0.000 C 
ATOM     27  C   UNL     1     115.514 130.319 134.613  0.00  0.00    +0.000 C 
ENDBRANCH  24  25
ENDBRANCH  22  24
ENDBRANCH   5  22
TORSDOF 5
ENDMDL
MODEL 6
REMARK VINA RESULT:      -8.3     11.291     12.922
REMARK  Name = 42608010
REMARK  5 active torsions:
REMARK  status: ('A' for Active; 'I' for Inactive)
REMARK    1  A    between atoms: O_3  and  C_19
REMARK    2  A    between atoms: O_3  and  C_24
REMARK    3  A    between atoms: O_4  and  C_18
REMARK    4  A    between atoms: C_8  and  C_10
REMARK    5  A    between atoms: C_23  and  C_24
REMARK                            x       y       z     vdW  Elec       q    Type
REMARK                         _______ _______ _______ _____ _____    ______ ____
ROOT
ATOM      1  C   UNL     1     113.277 127.197 139.267  0.00  0.00    +0.000 A 
ATOM      2  C   UNL     1     113.798 127.055 139.891  0.00  0.00    +0.000 A 
ATOM      3  C   UNL     1     113.022 127.966 139.109  0.00  0.00    +0.000 A 
ATOM      4  C   UNL     1     114.064 127.683 140.357  0.00  0.00    +0.000 A 
ATOM      5  C   UNL     1     113.809 128.451 140.198  0.00  0.00    +0.000 A 
ATOM      6  C   UNL     1     113.289 128.592 139.574  0.00  0.00    +0.000 A 
ENDROOT
BRANCH   1  11
ATOM      7  O   UNL     1     113.498 126.259 138.212  0.00  0.00    +0.000 OA
ATOM      8  O   UNL     1     111.241 125.312 138.582  0.00  0.00    +0.000 OA
ATOM      9  O   UNL     1     111.437 124.355 137.521  0.00  0.00    +0.000 OA
ATOM     10  O   UNL     1     113.965 124.357 136.057  0.00  0.00    +0.000 OA
ATOM     11  C   UNL     1     113.011 126.570 138.802  0.00  0.00    +0.000 C 
ATOM     12  C   UNL     1     112.259 126.254 138.925  0.00  0.00    +0.000 C 
ATOM     13  C   UNL     1     111.994 125.628 138.458  0.00  0.00    +0.000 C 
ATOM     14  C   UNL     1     112.479 125.317 137.869  0.00  0.00    +0.000 A 
ATOM     15  C   UNL     1     113.231 125.633 137.746  0.00  0.00    +0.000 A 
ATOM     16  C   UNL     1     112.191 124.664 137.390  0.00  0.00    +0.000 A 
ATOM     17  C   UNL     1     113.747 125.318 137.134  0.00  0.00    +0.000 A 
ATOM     18  C   UNL     1     112.693 124.337 136.774  0.00  0.00    +0.000 A 
ATOM     19  C   UNL     1     113.476 124.665 136.646  0.00  0.00    +0.000 A 
ENDBRANCH   1  11
BRANCH   4  20
ATOM     20  O   UNL     1     114.585 127.541 140.981  0.00  0.00    +0.000 OA
ATOM     21  C   UNL     1     114.675 126.776 141.278  0.00  0.00    +0.000 C 
ENDBRANCH   4  20
BRANCH   5  22
ATOM     22  O   UNL     1     114.075 129.078 140.664  0.00  0.00    +0.000 OA
BRANCH  22  24
ATOM     23  O   UNL     1     113.957 129.961 139.547  0.00  0.00    +0.000 OA
ATOM     24  C   UNL     1     114.118 129.838 140.347  0.00  0.00    +0.000 C 
BRANCH  24  25
ATOM     25  C   UNL     1     114.321 130.476 140.829  0.00  0.00    +0.000 C 
ATOM     26  C   UNL     1     115.046 130.854 140.730  0.00  0.00    +0.000 C 
ATOM     27  C   UNL     1     113.796 130.736 141.411  0.00  0.00    +0.000 C 
ENDBRANCH  24  25
ENDBRANCH  22  24
ENDBRANCH   5  22
TORSDOF 5
ENDMDL
MODEL 7
REMARK VINA RESULT:      -8.3     11.855     13.622
REMARK  Name = 42608010
REMARK  5 active torsions:
REMARK  status: ('A' for Active; 'I' for Inactive)
REMARK    1  A    between atoms: O_3  and  C_19
REMARK    2  A    between atoms: O_3  and  C_24
REMARK    3  A    between atoms: O_4  and  C_18
REMARK    4  A    between atoms: C_8  and  C_10
REMARK    5  A    between atoms: C_23  and  C_24
REMARK                            x       y       z     vdW  Elec       q    Type
REMARK                         _______ _______ _______ _____ _____    ______ ____
ROOT
ATOM      1  C   UNL     1     111.375 127.455 136.533  0.00  0.00    +0.000 A 
ATOM      2  C   UNL     1     111.207 126.703 136.237  0.00  0.00    +0.000 A 
ATOM      3  C   UNL     1     112.139 127.636 136.789  0.00  0.00    +0.000 A 
ATOM      4  C   UNL     1     111.803 126.133 136.198  0.00  0.00    +0.000 A 
ATOM      5  C   UNL     1     112.565 126.314 136.454  0.00  0.00    +0.000 A 
ATOM      6  C   UNL     1     112.733 127.066 136.749  0.00  0.00    +0.000 A 
ENDROOT
BRANCH   1  11
ATOM      7  O   UNL     1     110.608 128.488 135.911  0.00  0.00    +0.000 OA
ATOM      8  O   UNL     1     109.343 128.814 138.013  0.00  0.00    +0.000 OA
ATOM      9  O   UNL     1     108.554 129.860 137.409  0.00  0.00    +0.000 OA
ATOM     10  O   UNL     1     109.056 130.590 134.626  0.00  0.00    +0.000 OA
ATOM     11  C   UNL     1     110.781 128.025 136.573  0.00  0.00    +0.000 C 
ATOM     12  C   UNL     1     110.359 128.134 137.273  0.00  0.00    +0.000 C 
ATOM     13  C   UNL     1     109.765 128.705 137.312  0.00  0.00    +0.000 C 
ATOM     14  C   UNL     1     109.592 129.167 136.651  0.00  0.00    +0.000 A 
ATOM     15  C   UNL     1     110.014 129.058 135.951  0.00  0.00    +0.000 A 
ATOM     16  C   UNL     1     108.971 129.758 136.705  0.00  0.00    +0.000 A 
ATOM     17  C   UNL     1     109.843 129.533 135.255  0.00  0.00    +0.000 A 
ATOM     18  C   UNL     1     108.787 130.243 136.019  0.00  0.00    +0.000 A 
ATOM     19  C   UNL     1     109.226 130.129 135.290  0.00  0.00    +0.000 A 
ENDBRANCH   1  11
BRANCH   4  20
ATOM     20  O   UNL     1     111.635 125.381 135.902  0.00  0.00    +0.000 OA
ATOM     21  C   UNL     1     110.858 125.178 135.709  0.00  0.00    +0.000 C 
ENDBRANCH   4  20
BRANCH   5  22
ATOM     22  O   UNL     1     113.161 125.744 136.414  0.00  0.00    +0.000 OA
BRANCH  22  24
ATOM     23  O   UNL     1     113.877 126.410 137.456  0.00  0.00    +0.000 OA
ATOM     24  C   UNL     1     113.837 125.821 136.879  0.00  0.00    +0.000 C 
BRANCH  24  25
ATOM     25  C   UNL     1     114.476 125.310 136.767  0.00  0.00    +0.000 C 
ATOM     26  C   UNL     1     114.617 124.703 137.306  0.00  0.00    +0.000 C 
ATOM     27  C   UNL     1     114.972 125.408 136.116  0.00  0.00    +0.000 C 
ENDBRANCH  24  25
ENDBRANCH  22  24
ENDBRANCH   5  22
TORSDOF 5
ENDMDL
MODEL 8
REMARK VINA RESULT:      -8.3     12.647     14.388
REMARK  Name = 42608010
REMARK  5 active torsions:
REMARK  status: ('A' for Active; 'I' for Inactive)
REMARK    1  A    between atoms: O_3  and  C_19
REMARK    2  A    between atoms: O_3  and  C_24
REMARK    3  A    between atoms: O_4  and  C_18
REMARK    4  A    between atoms: C_8  and  C_10
REMARK    5  A    between atoms: C_23  and  C_24
REMARK                            x       y       z     vdW  Elec       q    Type
REMARK                         _______ _______ _______ _____ _____    ______ ____
ROOT
ATOM      1  C   UNL     1     113.103 127.813 136.420  0.00  0.00    +0.000 A 
ATOM      2  C   UNL     1     112.413 127.614 136.013  0.00  0.00    +0.000 A 
ATOM      3  C   UNL     1     113.506 127.237 136.853  0.00  0.00    +0.000 A 
ATOM      4  C   UNL     1     112.127 126.841 136.040  0.00  0.00    +0.000 A 
ATOM      5  C   UNL     1     112.530 126.266 136.473  0.00  0.00    +0.000 A 
ATOM      6  C   UNL     1     113.220 126.465 136.879  0.00  0.00    +0.000 A 
ENDROOT
BRANCH   1  11
ATOM      7  O   UNL     1     113.954 128.797 135.830  0.00  0.00    +0.000 OA
ATOM      8  O   UNL     1     113.124 130.482 137.441  0.00  0.00    +0.000 OA
ATOM      9  O   UNL     1     113.973 131.495 136.864  0.00  0.00    +0.000 OA
ATOM     10  O   UNL     1     115.697 130.788 134.614  0.00  0.00    +0.000 OA
ATOM     11  C   UNL     1     113.389 128.586 136.394  0.00  0.00    +0.000 C 
ATOM     12  C   UNL     1     113.113 129.147 136.931  0.00  0.00    +0.000 C 
ATOM     13  C   UNL     1     113.400 129.920 136.904  0.00  0.00    +0.000 C 
ATOM     14  C   UNL     1     113.964 130.131 136.341  0.00  0.00    +0.000 A 
ATOM     15  C   UNL     1     114.241 129.570 135.804  0.00  0.00    +0.000 A 
ATOM     16  C   UNL     1     114.256 130.940 136.323  0.00  0.00    +0.000 A 
ATOM     17  C   UNL     1     114.829 129.778 135.212  0.00  0.00    +0.000 A 
ATOM     18  C   UNL     1     114.844 131.165 135.739  0.00  0.00    +0.000 A 
ATOM     19  C   UNL     1     115.132 130.581 135.179  0.00  0.00    +0.000 A 
ENDBRANCH   1  11
BRANCH   4  20
ATOM     20  O   UNL     1     111.437 126.642 135.634  0.00  0.00    +0.000 OA
ATOM     21  C   UNL     1     111.043 127.213 135.185  0.00  0.00    +0.000 C 
ENDBRANCH   4  20
BRANCH   5  22
ATOM     22  O   UNL     1     112.244 125.493 136.499  0.00  0.00    +0.000 OA
BRANCH  22  24
ATOM     23  O   UNL     1     112.618 125.293 137.863  0.00  0.00    +0.000 OA
ATOM     24  C   UNL     1     112.472 124.989 137.110  0.00  0.00    +0.000 C 
BRANCH  24  25
ATOM     25  C   UNL     1     112.556 124.180 136.970  0.00  0.00    +0.000 C 
ATOM     26  C   UNL     1     111.890 123.694 136.944  0.00  0.00    +0.000 C 
ATOM     27  C   UNL     1     113.306 123.857 136.855  0.00  0.00    +0.000 C 
ENDBRANCH  24  25
ENDBRANCH  22  24
ENDBRANCH   5  22
TORSDOF 5
ENDMDL
MODEL 9
REMARK VINA RESULT:      -8.3     12.999     13.796
REMARK  Name = 42608010
REMARK  5 active torsions:
REMARK  status: ('A' for Active; 'I' for Inactive)
REMARK    1  A    between atoms: O_3  and  C_19
REMARK    2  A    between atoms: O_3  and  C_24
REMARK    3  A    between atoms: O_4  and  C_18
REMARK    4  A    between atoms: C_8  and  C_10
REMARK    5  A    between atoms: C_23  and  C_24
REMARK                            x       y       z     vdW  Elec       q    Type
REMARK                         _______ _______ _______ _____ _____    ______ ____
ROOT
ATOM      1  C   UNL     1     112.196 127.760 136.423  0.00  0.00    +0.000 A 
ATOM      2  C   UNL     1     112.444 128.208 135.776  0.00  0.00    +0.000 A 
ATOM      3  C   UNL     1     111.768 128.117 137.032  0.00  0.00    +0.000 A 
ATOM      4  C   UNL     1     112.264 129.012 135.738  0.00  0.00    +0.000 A 
ATOM      5  C   UNL     1     111.836 129.369 136.346  0.00  0.00    +0.000 A 
ATOM      6  C   UNL     1     111.588 128.921 136.993  0.00  0.00    +0.000 A 
ENDROOT
BRANCH   1  11
ATOM      7  O   UNL     1     113.104 126.710 136.762  0.00  0.00    +0.000 OA
ATOM      8  O   UNL     1     111.461 125.034 135.977  0.00  0.00    +0.000 OA
ATOM      9  O   UNL     1     112.358 123.956 136.311  0.00  0.00    +0.000 OA
ATOM     10  O   UNL     1     114.968 124.585 137.461  0.00  0.00    +0.000 OA
ATOM     11  C   UNL     1     112.375 126.956 136.461  0.00  0.00    +0.000 C 
ATOM     12  C   UNL     1     111.828 126.397 136.200  0.00  0.00    +0.000 C 
ATOM     13  C   UNL     1     112.008 125.593 136.239  0.00  0.00    +0.000 C 
ATOM     14  C   UNL     1     112.736 125.348 136.539  0.00  0.00    +0.000 A 
ATOM     15  C   UNL     1     113.284 125.906 136.801  0.00  0.00    +0.000 A 
ATOM     16  C   UNL     1     112.912 124.507 136.575  0.00  0.00    +0.000 A 
ATOM     17  C   UNL     1     114.045 125.663 137.116  0.00  0.00    +0.000 A 
ATOM     18  C   UNL     1     113.668 124.245 136.887  0.00  0.00    +0.000 A 
ATOM     19  C   UNL     1     114.239 124.827 137.159  0.00  0.00    +0.000 A 
ENDBRANCH   1  11
BRANCH   4  20
ATOM     20  O   UNL     1     112.512 129.460 135.091  0.00  0.00    +0.000 OA
ATOM     21  C   UNL     1     113.127 129.188 134.612  0.00  0.00    +0.000 C 
ENDBRANCH   4  20
BRANCH   5  22
ATOM     22  O   UNL     1     111.656 130.173 136.309  0.00  0.00    +0.000 OA
BRANCH  22  24
ATOM     23  O   UNL     1     110.486 129.959 137.099  0.00  0.00    +0.000 OA
ATOM     24  C   UNL     1     111.018 130.474 136.736  0.00  0.00    +0.000 C 
BRANCH  24  25
ATOM     25  C   UNL     1     110.913 131.289 136.802  0.00  0.00    +0.000 C 
ATOM     26  C   UNL     1     111.433 131.738 137.258  0.00  0.00    +0.000 C 
ATOM     27  C   UNL     1     110.286 131.656 136.410  0.00  0.00    +0.000 C 
ENDBRANCH  24  25
ENDBRANCH  22  24
ENDBRANCH   5  22
TORSDOF 5
ENDMDL
MODEL 10
REMARK VINA RESULT:      -8.2     11.778     13.034
REMARK  Name = 42608010
REMARK  5 active torsions:
REMARK  status: ('A' for Active; 'I' for Inactive)
REMARK    1  A    between atoms: O_3  and  C_19
REMARK    2  A    between atoms: O_3  and  C_24
REMARK    3  A    between atoms: O_4  and  C_18
REMARK    4  A    between atoms: C_8  and  C_10
REMARK    5  A    between atoms: C_23  and  C_24
REMARK                            x       y       z     vdW  Elec       q    Type
REMARK                         _______ _______ _______ _____ _____    ______ ____
ROOT
ATOM      1  C   UNL     1     113.292 127.205 138.715  0.00  0.00    +0.000 A 
ATOM      2  C   UNL     1     113.191 127.928 138.331  0.00  0.00    +0.000 A 
ATOM      3  C   UNL     1     113.378 127.182 139.536  0.00  0.00    +0.000 A 
ATOM      4  C   UNL     1     113.176 128.628 138.768  0.00  0.00    +0.000 A 
ATOM      5  C   UNL     1     113.262 128.606 139.587  0.00  0.00    +0.000 A 
ATOM      6  C   UNL     1     113.363 127.883 139.971  0.00  0.00    +0.000 A 
ENDROOT
BRANCH   1  11
ATOM      7  O   UNL     1     112.618 126.228 137.920  0.00  0.00    +0.000 OA
ATOM      8  O   UNL     1     114.729 124.956 137.693  0.00  0.00    +0.000 OA
ATOM      9  O   UNL     1     114.073 123.955 136.887  0.00  0.00    +0.000 OA
ATOM     10  O   UNL     1     111.227 124.247 136.301  0.00  0.00    +0.000 OA
ATOM     11  C   UNL     1     113.308 126.505 138.280  0.00  0.00    +0.000 C 
ATOM     12  C   UNL     1     114.011 126.081 138.204  0.00  0.00    +0.000 C 
ATOM     13  C   UNL     1     114.025 125.380 137.768  0.00  0.00    +0.000 C 
ATOM     14  C   UNL     1     113.337 125.104 137.409  0.00  0.00    +0.000 A 
ATOM     15  C   UNL     1     112.633 125.528 137.484  0.00  0.00    +0.000 A 
ATOM     16  C   UNL     1     113.365 124.372 136.957  0.00  0.00    +0.000 A 
ATOM     17  C   UNL     1     111.909 125.250 137.114  0.00  0.00    +0.000 A 
ATOM     18  C   UNL     1     112.651 124.080 136.581  0.00  0.00    +0.000 A 
ATOM     19  C   UNL     1     111.918 124.521 136.659  0.00  0.00    +0.000 A 
ENDBRANCH   1  11
BRANCH   4  20
ATOM     20  O   UNL     1     113.074 129.351 138.383  0.00  0.00    +0.000 OA
ATOM     21  C   UNL     1     112.934 129.371 137.570  0.00  0.00    +0.000 C 
ENDBRANCH   4  20
BRANCH   5  22
ATOM     22  O   UNL     1     113.247 129.306 140.024  0.00  0.00    +0.000 OA
BRANCH  22  24
ATOM     23  O   UNL     1     114.257 128.790 140.891  0.00  0.00    +0.000 OA
ATOM     24  C   UNL     1     113.725 129.387 140.690  0.00  0.00    +0.000 C 
BRANCH  24  25
ATOM     25  C   UNL     1     113.671 130.065 141.157  0.00  0.00    +0.000 C 
ATOM     26  C   UNL     1     113.022 130.175 141.653  0.00  0.00    +0.000 C 
ATOM     27  C   UNL     1     114.268 130.634 141.127  0.00  0.00    +0.000 C 
ENDBRANCH  24  25
ENDBRANCH  22  24
ENDBRANCH   5  22
TORSDOF 5
ENDMDL
