MODEL 1
REMARK VINA RESULT:      -9.7      0.000      0.000
REMARK  Name = 74977934
REMARK  6 active torsions:
REMARK  status: ('A' for Active; 'I' for Inactive)
REMARK    1  A    between atoms: S_1  and  O_12
REMARK    2  A    between atoms: O_3  and  C_21
REMARK    3  A    between atoms: O_3  and  C_23
REMARK    4  A    between atoms: O_12  and  C_35
REMARK    5  A    between atoms: C_20  and  C_22
REMARK    6  A    between atoms: C_30  and  C_32
REMARK                            x       y       z     vdW  Elec       q    Type
REMARK                         _______ _______ _______ _____ _____    ______ ____
ROOT
ATOM      1  O   UNL     1     112.757 126.458 136.461  0.00  0.00    +0.000 OA
ATOM      2  O   UNL     1     111.257 123.999 136.386  0.00  0.00    +0.000 OA
ATOM      3  O   UNL     1     114.029 123.934 137.085  0.00  0.00    +0.000 OA
ATOM      4  O   UNL     1     114.814 125.144 137.134  0.00  0.00    +0.000 OA
ATOM      5  C   UNL     1     112.012 125.211 136.427  0.00  0.00    +0.000 A 
ATOM      6  C   UNL     1     112.727 125.605 136.557  0.00  0.00    +0.000 A 
ATOM      7  C   UNL     1     111.972 124.392 136.516  0.00  0.00    +0.000 A 
ATOM      8  C   UNL     1     113.398 125.179 136.776  0.00  0.00    +0.000 A 
ATOM      9  C   UNL     1     113.356 124.360 136.866  0.00  0.00    +0.000 A 
ATOM     10  C   UNL     1     112.643 123.967 136.736  0.00  0.00    +0.000 A 
ATOM     11  C   UNL     1     114.147 125.577 136.915  0.00  0.00    +0.000 A 
ATOM     12  C   UNL     1     113.497 126.874 136.595  0.00  0.00    +0.000 A 
ATOM     13  C   UNL     1     114.197 126.431 136.823  0.00  0.00    +0.000 A 
ENDROOT
BRANCH  12  15
ATOM     14  O   UNL     1     113.652 130.150 136.236  0.00  0.00    +0.000 OA
ATOM     15  C   UNL     1     113.536 127.693 136.505  0.00  0.00    +0.000 A 
ATOM     16  C   UNL     1     113.249 128.187 137.099  0.00  0.00    +0.000 A 
ATOM     17  C   UNL     1     113.862 128.018 135.821  0.00  0.00    +0.000 A 
ATOM     18  C   UNL     1     113.287 129.006 137.011  0.00  0.00    +0.000 A 
ATOM     19  C   UNL     1     113.901 128.837 135.731  0.00  0.00    +0.000 A 
ATOM     20  C   UNL     1     113.613 129.332 136.325  0.00  0.00    +0.000 A 
BRANCH  18  21
ATOM     21  O   UNL     1     112.999 129.501 137.605  0.00  0.00    +0.000 OA
BRANCH  21  22
ATOM     22  S   UNL     1     112.440 129.218 138.142  0.00  0.00    +0.000 S 
ATOM     23  O   UNL     1     111.881 128.935 138.679  0.00  0.00    +0.000 OA
ATOM     24  O   UNL     1     113.041 129.065 138.687  0.00  0.00    +0.000 OA
ATOM     25  O   UNL     1     111.840 129.371 137.597  0.00  0.00    +0.000 OA
ENDBRANCH  21  22
ENDBRANCH  18  21
ENDBRANCH  12  15
BRANCH   5  26
ATOM     26  O   UNL     1     111.342 125.637 136.208  0.00  0.00    +0.000 OA
BRANCH  26  35
ATOM     27  O   UNL     1     110.903 125.645 137.567  0.00  0.00    +0.000 OA
ATOM     28  O   UNL     1     108.916 126.973 136.918  0.00  0.00    +0.000 OA
ATOM     29  O   UNL     1     109.140 126.539 138.493  0.00  0.00    +0.000 OA
ATOM     30  O   UNL     1     110.018 126.522 135.775  0.00  0.00    +0.000 OA
ATOM     31  C   UNL     1     109.579 126.530 137.134  0.00  0.00    +0.000 C 
ATOM     32  C   UNL     1     109.690 126.314 137.922  0.00  0.00    +0.000 C 
ATOM     33  C   UNL     1     110.129 126.305 136.562  0.00  0.00    +0.000 C 
ATOM     34  C   UNL     1     110.352 125.871 138.138  0.00  0.00    +0.000 C 
ATOM     35  C   UNL     1     110.791 125.862 136.779  0.00  0.00    +0.000 C 
BRANCH  34  37
ATOM     36  O   UNL     1     111.124 125.928 139.340  0.00  0.00    +0.000 OA
ATOM     37  C   UNL     1     110.464 125.654 138.926  0.00  0.00    +0.000 C 
ENDBRANCH  34  37
ENDBRANCH  26  35
ENDBRANCH   5  26
TORSDOF 6
ENDMDL
MODEL 2
REMARK VINA RESULT:      -9.7      1.217      3.490
REMARK  Name = 74977934
REMARK  6 active torsions:
REMARK  status: ('A' for Active; 'I' for Inactive)
REMARK    1  A    between atoms: S_1  and  O_12
REMARK    2  A    between atoms: O_3  and  C_21
REMARK    3  A    between atoms: O_3  and  C_23
REMARK    4  A    between atoms: O_12  and  C_35
REMARK    5  A    between atoms: C_20  and  C_22
REMARK    6  A    between atoms: C_30  and  C_32
REMARK                            x       y       z     vdW  Elec       q    Type
REMARK                         _______ _______ _______ _____ _____    ______ ____
ROOT
ATOM      1  O   UNL     1     111.944 125.874 136.297  0.00  0.00    +0.000 OA
ATOM      2  O   UNL     1     114.757 125.967 136.912  0.00  0.00    +0.000 OA
ATOM      3  O   UNL     1     113.393 123.456 136.952  0.00  0.00    +0.000 OA
ATOM      4  O   UNL     1     111.984 123.367 136.650  0.00  0.00    +0.000 OA
ATOM      5  C   UNL     1     113.362 125.907 136.609  0.00  0.00    +0.000 A 
ATOM      6  C   UNL     1     112.669 125.468 136.514  0.00  0.00    +0.000 A 
ATOM      7  C   UNL     1     114.064 125.528 136.817  0.00  0.00    +0.000 A 
ATOM      8  C   UNL     1     112.679 124.651 136.629  0.00  0.00    +0.000 A 
ATOM      9  C   UNL     1     113.382 124.273 136.838  0.00  0.00    +0.000 A 
ATOM     10  C   UNL     1     114.074 124.711 136.932  0.00  0.00    +0.000 A 
ATOM     11  C   UNL     1     111.965 124.184 136.534  0.00  0.00    +0.000 A 
ATOM     12  C   UNL     1     111.219 125.423 136.197  0.00  0.00    +0.000 A 
ATOM     13  C   UNL     1     111.229 124.572 136.316  0.00  0.00    +0.000 A 
ENDROOT
BRANCH  12  15
ATOM     14  O   UNL     1     108.413 126.947 135.364  0.00  0.00    +0.000 OA
ATOM     15  C   UNL     1     110.517 125.804 135.988  0.00  0.00    +0.000 A 
ATOM     16  C   UNL     1     110.064 126.179 136.567  0.00  0.00    +0.000 A 
ATOM     17  C   UNL     1     110.269 125.810 135.202  0.00  0.00    +0.000 A 
ATOM     18  C   UNL     1     109.362 126.560 136.359  0.00  0.00    +0.000 A 
ATOM     19  C   UNL     1     109.568 126.191 134.993  0.00  0.00    +0.000 A 
ATOM     20  C   UNL     1     109.114 126.566 135.572  0.00  0.00    +0.000 A 
BRANCH  18  21
ATOM     21  O   UNL     1     108.909 126.935 136.938  0.00  0.00    +0.000 OA
BRANCH  21  22
ATOM     22  S   UNL     1     109.258 127.172 137.646  0.00  0.00    +0.000 S 
ATOM     23  O   UNL     1     109.608 127.410 138.354  0.00  0.00    +0.000 OA
ATOM     24  O   UNL     1     109.509 127.872 137.288  0.00  0.00    +0.000 OA
ATOM     25  O   UNL     1     109.007 126.473 138.005  0.00  0.00    +0.000 OA
ENDBRANCH  21  22
ENDBRANCH  18  21
ENDBRANCH  12  15
BRANCH   5  26
ATOM     26  O   UNL     1     113.351 126.723 136.495  0.00  0.00    +0.000 OA
BRANCH  26  35
ATOM     27  O   UNL     1     113.225 126.921 137.904  0.00  0.00    +0.000 OA
ATOM     28  O   UNL     1     113.031 129.363 137.544  0.00  0.00    +0.000 OA
ATOM     29  O   UNL     1     112.969 128.746 139.073  0.00  0.00    +0.000 OA
ATOM     30  O   UNL     1     113.222 128.351 136.255  0.00  0.00    +0.000 OA
ATOM     31  C   UNL     1     113.095 128.548 137.664  0.00  0.00    +0.000 C 
ATOM     32  C   UNL     1     113.064 128.241 138.429  0.00  0.00    +0.000 C 
ATOM     33  C   UNL     1     113.191 128.043 137.019  0.00  0.00    +0.000 C 
ATOM     34  C   UNL     1     113.129 127.427 138.548  0.00  0.00    +0.000 C 
ATOM     35  C   UNL     1     113.256 127.229 137.139  0.00  0.00    +0.000 C 
BRANCH  34  37
ATOM     36  O   UNL     1     112.464 126.641 139.539  0.00  0.00    +0.000 OA
ATOM     37  C   UNL     1     113.098 127.118 139.313  0.00  0.00    +0.000 C 
ENDBRANCH  34  37
ENDBRANCH  26  35
ENDBRANCH   5  26
TORSDOF 6
ENDMDL
MODEL 3
REMARK VINA RESULT:      -9.4      1.700      3.502
REMARK  Name = 74977934
REMARK  6 active torsions:
REMARK  status: ('A' for Active; 'I' for Inactive)
REMARK    1  A    between atoms: S_1  and  O_12
REMARK    2  A    between atoms: O_3  and  C_21
REMARK    3  A    between atoms: O_3  and  C_23
REMARK    4  A    between atoms: O_12  and  C_35
REMARK    5  A    between atoms: C_20  and  C_22
REMARK    6  A    between atoms: C_30  and  C_32
REMARK                            x       y       z     vdW  Elec       q    Type
REMARK                         _______ _______ _______ _____ _____    ______ ____
ROOT
ATOM      1  O   UNL     1     112.058 126.748 136.127  0.00  0.00    +0.000 OA
ATOM      2  O   UNL     1     110.360 128.516 134.613  0.00  0.00    +0.000 OA
ATOM      3  O   UNL     1     109.784 125.716 134.663  0.00  0.00    +0.000 OA
ATOM      4  O   UNL     1     110.610 124.799 135.410  0.00  0.00    +0.000 OA
ATOM      5  C   UNL     1     111.195 127.628 135.360  0.00  0.00    +0.000 A 
ATOM      6  C   UNL     1     111.377 126.865 135.617  0.00  0.00    +0.000 A 
ATOM      7  C   UNL     1     110.542 127.753 134.870  0.00  0.00    +0.000 A 
ATOM      8  C   UNL     1     110.907 126.228 135.385  0.00  0.00    +0.000 A 
ATOM      9  C   UNL     1     110.255 126.354 134.895  0.00  0.00    +0.000 A 
ATOM     10  C   UNL     1     110.073 127.116 134.638  0.00  0.00    +0.000 A 
ATOM     11  C   UNL     1     111.086 125.430 135.647  0.00  0.00    +0.000 A 
ATOM     12  C   UNL     1     112.253 125.956 136.399  0.00  0.00    +0.000 A 
ATOM     13  C   UNL     1     111.764 125.293 136.157  0.00  0.00    +0.000 A 
ENDROOT
BRANCH  12  15
ATOM     14  O   UNL     1     114.863 125.467 138.358  0.00  0.00    +0.000 OA
ATOM     15  C   UNL     1     112.906 125.834 136.888  0.00  0.00    +0.000 A 
ATOM     16  C   UNL     1     112.866 126.037 137.687  0.00  0.00    +0.000 A 
ATOM     17  C   UNL     1     113.598 125.508 136.580  0.00  0.00    +0.000 A 
ATOM     18  C   UNL     1     113.518 125.916 138.177  0.00  0.00    +0.000 A 
ATOM     19  C   UNL     1     114.251 125.386 137.070  0.00  0.00    +0.000 A 
ATOM     20  C   UNL     1     114.211 125.589 137.868  0.00  0.00    +0.000 A 
BRANCH  18  21
ATOM     21  O   UNL     1     113.478 126.119 138.976  0.00  0.00    +0.000 OA
BRANCH  21  22
ATOM     22  S   UNL     1     112.898 126.643 139.239  0.00  0.00    +0.000 S 
ATOM     23  O   UNL     1     112.318 127.167 139.503  0.00  0.00    +0.000 OA
ATOM     24  O   UNL     1     113.377 127.280 139.026  0.00  0.00    +0.000 OA
ATOM     25  O   UNL     1     112.420 126.006 139.453  0.00  0.00    +0.000 OA
ENDBRANCH  21  22
ENDBRANCH  18  21
ENDBRANCH  12  15
BRANCH   5  26
ATOM     26  O   UNL     1     111.664 128.265 135.592  0.00  0.00    +0.000 OA
BRANCH  26  35
ATOM     27  O   UNL     1     110.715 128.596 136.608  0.00  0.00    +0.000 OA
ATOM     28  O   UNL     1     112.175 130.444 137.370  0.00  0.00    +0.000 OA
ATOM     29  O   UNL     1     110.740 130.158 138.131  0.00  0.00    +0.000 OA
ATOM     30  O   UNL     1     112.637 129.497 136.099  0.00  0.00    +0.000 OA
ATOM     31  C   UNL     1     111.688 129.828 137.115  0.00  0.00    +0.000 C 
ATOM     32  C   UNL     1     110.971 129.685 137.496  0.00  0.00    +0.000 C 
ATOM     33  C   UNL     1     111.920 129.354 136.480  0.00  0.00    +0.000 C 
ATOM     34  C   UNL     1     110.484 129.069 137.242  0.00  0.00    +0.000 C 
ATOM     35  C   UNL     1     111.433 128.738 136.226  0.00  0.00    +0.000 C 
BRANCH  34  37
ATOM     36  O   UNL     1     109.656 128.224 138.042  0.00  0.00    +0.000 OA
ATOM     37  C   UNL     1     109.767 128.926 137.623  0.00  0.00    +0.000 C 
ENDBRANCH  34  37
ENDBRANCH  26  35
ENDBRANCH   5  26
TORSDOF 6
ENDMDL
MODEL 4
REMARK VINA RESULT:      -9.3      1.748      4.733
REMARK  Name = 74977934
REMARK  6 active torsions:
REMARK  status: ('A' for Active; 'I' for Inactive)
REMARK    1  A    between atoms: S_1  and  O_12
REMARK    2  A    between atoms: O_3  and  C_21
REMARK    3  A    between atoms: O_3  and  C_23
REMARK    4  A    between atoms: O_12  and  C_35
REMARK    5  A    between atoms: C_20  and  C_22
REMARK    6  A    between atoms: C_30  and  C_32
REMARK                            x       y       z     vdW  Elec       q    Type
REMARK                         _______ _______ _______ _____ _____    ______ ____
ROOT
ATOM      1  O   UNL     1     110.589 127.349 135.828  0.00  0.00    +0.000 OA
ATOM      2  O   UNL     1     110.462 130.150 135.165  0.00  0.00    +0.000 OA
ATOM      3  O   UNL     1     108.048 128.734 135.750  0.00  0.00    +0.000 OA
ATOM      4  O   UNL     1     108.070 127.330 136.086  0.00  0.00    +0.000 OA
ATOM      5  C   UNL     1     110.511 128.760 135.495  0.00  0.00    +0.000 A 
ATOM      6  C   UNL     1     110.125 128.061 135.703  0.00  0.00    +0.000 A 
ATOM      7  C   UNL     1     110.076 129.450 135.373  0.00  0.00    +0.000 A 
ATOM      8  C   UNL     1     109.304 128.052 135.788  0.00  0.00    +0.000 A 
ATOM      9  C   UNL     1     108.870 128.743 135.665  0.00  0.00    +0.000 A 
ATOM     10  C   UNL     1     109.255 129.442 135.458  0.00  0.00    +0.000 A 
ATOM     11  C   UNL     1     108.891 127.331 136.003  0.00  0.00    +0.000 A 
ATOM     12  C   UNL     1     110.193 126.617 136.044  0.00  0.00    +0.000 A 
ATOM     13  C   UNL     1     109.339 126.608 136.132  0.00  0.00    +0.000 A 
ENDROOT
BRANCH  12  15
ATOM     14  O   UNL     1     111.942 123.862 136.533  0.00  0.00    +0.000 OA
ATOM     15  C   UNL     1     110.630 125.928 136.166  0.00  0.00    +0.000 A 
ATOM     16  C   UNL     1     110.992 125.793 136.895  0.00  0.00    +0.000 A 
ATOM     17  C   UNL     1     110.706 125.374 135.560  0.00  0.00    +0.000 A 
ATOM     18  C   UNL     1     111.430 125.105 137.018  0.00  0.00    +0.000 A 
ATOM     19  C   UNL     1     111.143 124.685 135.681  0.00  0.00    +0.000 A 
ATOM     20  C   UNL     1     111.505 124.550 136.410  0.00  0.00    +0.000 A 
BRANCH  18  21
ATOM     21  O   UNL     1     111.791 124.970 137.747  0.00  0.00    +0.000 OA
BRANCH  21  22
ATOM     22  S   UNL     1     111.903 125.594 138.274  0.00  0.00    +0.000 S 
ATOM     23  O   UNL     1     112.015 126.219 138.801  0.00  0.00    +0.000 OA
ATOM     24  O   UNL     1     111.223 125.370 138.684  0.00  0.00    +0.000 OA
ATOM     25  O   UNL     1     112.583 125.819 137.864  0.00  0.00    +0.000 OA
ENDBRANCH  21  22
ENDBRANCH  18  21
ENDBRANCH  12  15
BRANCH   5  26
ATOM     26  O   UNL     1     111.331 128.769 135.411  0.00  0.00    +0.000 OA
BRANCH  26  35
ATOM     27  O   UNL     1     111.464 129.264 136.745  0.00  0.00    +0.000 OA
ATOM     28  O   UNL     1     113.928 129.242 136.507  0.00  0.00    +0.000 OA
ATOM     29  O   UNL     1     113.239 129.744 137.920  0.00  0.00    +0.000 OA
ATOM     30  O   UNL     1     112.973 128.755 135.252  0.00  0.00    +0.000 OA
ATOM     31  C   UNL     1     113.106 129.249 136.586  0.00  0.00    +0.000 C 
ATOM     32  C   UNL     1     112.762 129.500 137.293  0.00  0.00    +0.000 C 
ATOM     33  C   UNL     1     112.629 129.006 135.958  0.00  0.00    +0.000 C 
ATOM     34  C   UNL     1     111.941 129.507 137.372  0.00  0.00    +0.000 C 
ATOM     35  C   UNL     1     111.808 129.013 136.038  0.00  0.00    +0.000 C 
BRANCH  34  37
ATOM     36  O   UNL     1     111.192 129.218 138.554  0.00  0.00    +0.000 OA
ATOM     37  C   UNL     1     111.596 129.758 138.078  0.00  0.00    +0.000 C 
ENDBRANCH  34  37
ENDBRANCH  26  35
ENDBRANCH   5  26
TORSDOF 6
ENDMDL
MODEL 5
REMARK VINA RESULT:      -9.2      1.528      2.282
REMARK  Name = 74977934
REMARK  6 active torsions:
REMARK  status: ('A' for Active; 'I' for Inactive)
REMARK    1  A    between atoms: S_1  and  O_12
REMARK    2  A    between atoms: O_3  and  C_21
REMARK    3  A    between atoms: O_3  and  C_23
REMARK    4  A    between atoms: O_12  and  C_35
REMARK    5  A    between atoms: C_20  and  C_22
REMARK    6  A    between atoms: C_30  and  C_32
REMARK                            x       y       z     vdW  Elec       q    Type
REMARK                         _______ _______ _______ _____ _____    ______ ____
ROOT
ATOM      1  O   UNL     1     112.709 125.910 138.405  0.00  0.00    +0.000 OA
ATOM      2  O   UNL     1     111.299 124.096 136.666  0.00  0.00    +0.000 OA
ATOM      3  O   UNL     1     114.156 124.186 136.584  0.00  0.00    +0.000 OA
ATOM      4  O   UNL     1     114.898 125.081 137.439  0.00  0.00    +0.000 OA
ATOM      5  C   UNL     1     112.011 124.991 137.523  0.00  0.00    +0.000 A 
ATOM      6  C   UNL     1     112.724 125.305 137.796  0.00  0.00    +0.000 A 
ATOM      7  C   UNL     1     112.013 124.409 136.938  0.00  0.00    +0.000 A 
ATOM      8  C   UNL     1     113.439 125.037 137.483  0.00  0.00    +0.000 A 
ATOM      9  C   UNL     1     113.440 124.455 136.897  0.00  0.00    +0.000 A 
ATOM     10  C   UNL     1     112.728 124.141 136.625  0.00  0.00    +0.000 A 
ATOM     11  C   UNL     1     114.188 125.355 137.757  0.00  0.00    +0.000 A 
ATOM     12  C   UNL     1     113.449 126.240 138.693  0.00  0.00    +0.000 A 
ATOM     13  C   UNL     1     114.193 125.961 138.367  0.00  0.00    +0.000 A 
ENDROOT
BRANCH  12  15
ATOM     14  O   UNL     1     113.430 128.567 141.032  0.00  0.00    +0.000 OA
ATOM     15  C   UNL     1     113.444 126.822 139.278  0.00  0.00    +0.000 A 
ATOM     16  C   UNL     1     113.244 127.599 139.086  0.00  0.00    +0.000 A 
ATOM     17  C   UNL     1     113.640 126.628 140.055  0.00  0.00    +0.000 A 
ATOM     18  C   UNL     1     113.239 128.181 139.670  0.00  0.00    +0.000 A 
ATOM     19  C   UNL     1     113.635 127.209 140.640  0.00  0.00    +0.000 A 
ATOM     20  C   UNL     1     113.435 127.986 140.448  0.00  0.00    +0.000 A 
BRANCH  18  21
ATOM     21  O   UNL     1     113.039 128.958 139.477  0.00  0.00    +0.000 OA
BRANCH  21  22
ATOM     22  S   UNL     1     112.611 129.116 138.790  0.00  0.00    +0.000 S 
ATOM     23  O   UNL     1     112.183 129.273 138.102  0.00  0.00    +0.000 OA
ATOM     24  O   UNL     1     113.313 129.282 138.391  0.00  0.00    +0.000 OA
ATOM     25  O   UNL     1     111.908 128.949 139.189  0.00  0.00    +0.000 OA
ENDBRANCH  21  22
ENDBRANCH  18  21
ENDBRANCH  12  15
BRANCH   5  26
ATOM     26  O   UNL     1     111.297 125.259 137.836  0.00  0.00    +0.000 OA
BRANCH  26  35
ATOM     27  O   UNL     1     111.129 126.124 136.712  0.00  0.00    +0.000 OA
ATOM     28  O   UNL     1     109.021 126.982 137.687  0.00  0.00    +0.000 OA
ATOM     29  O   UNL     1     109.556 127.561 136.238  0.00  0.00    +0.000 OA
ATOM     30  O   UNL     1     109.892 125.830 138.486  0.00  0.00    +0.000 OA
ATOM     31  C   UNL     1     109.724 126.696 137.362  0.00  0.00    +0.000 C 
ATOM     32  C   UNL     1     109.991 126.986 136.638  0.00  0.00    +0.000 C 
ATOM     33  C   UNL     1     110.159 126.120 137.762  0.00  0.00    +0.000 C 
ATOM     34  C   UNL     1     110.693 126.700 136.313  0.00  0.00    +0.000 C 
ATOM     35  C   UNL     1     110.861 125.834 137.437  0.00  0.00    +0.000 C 
BRANCH  34  37
ATOM     36  O   UNL     1     111.650 127.444 135.555  0.00  0.00    +0.000 OA
ATOM     37  C   UNL     1     110.961 126.990 135.588  0.00  0.00    +0.000 C 
ENDBRANCH  34  37
ENDBRANCH  26  35
ENDBRANCH   5  26
TORSDOF 6
ENDMDL
MODEL 6
REMARK VINA RESULT:      -9.2      9.735     12.161
REMARK  Name = 74977934
REMARK  6 active torsions:
REMARK  status: ('A' for Active; 'I' for Inactive)
REMARK    1  A    between atoms: S_1  and  O_12
REMARK    2  A    between atoms: O_3  and  C_21
REMARK    3  A    between atoms: O_3  and  C_23
REMARK    4  A    between atoms: O_12  and  C_35
REMARK    5  A    between atoms: C_20  and  C_22
REMARK    6  A    between atoms: C_30  and  C_32
REMARK                            x       y       z     vdW  Elec       q    Type
REMARK                         _______ _______ _______ _____ _____    ______ ____
ROOT
ATOM      1  O   UNL     1     106.176 126.116 147.555  0.00  0.00    +0.000 OA
ATOM      2  O   UNL     1     104.943 124.515 149.609  0.00  0.00    +0.000 OA
ATOM      3  O   UNL     1     107.724 124.172 149.040  0.00  0.00    +0.000 OA
ATOM      4  O   UNL     1     108.378 124.955 148.019  0.00  0.00    +0.000 OA
ATOM      5  C   UNL     1     105.567 125.303 148.593  0.00  0.00    +0.000 A 
ATOM      6  C   UNL     1     106.238 125.508 148.159  0.00  0.00    +0.000 A 
ATOM      7  C   UNL     1     105.615 124.720 149.175  0.00  0.00    +0.000 A 
ATOM      8  C   UNL     1     106.957 125.132 148.308  0.00  0.00    +0.000 A 
ATOM      9  C   UNL     1     107.004 124.549 148.891  0.00  0.00    +0.000 A 
ATOM     10  C   UNL     1     106.333 124.344 149.324  0.00  0.00    +0.000 A 
ATOM     11  C   UNL     1     107.663 125.337 147.864  0.00  0.00    +0.000 A 
ATOM     12  C   UNL     1     106.872 126.335 147.100  0.00  0.00    +0.000 A 
ATOM     13  C   UNL     1     107.620 125.942 147.255  0.00  0.00    +0.000 A 
ENDROOT
BRANCH  12  15
ATOM     14  O   UNL     1     106.670 128.663 144.771  0.00  0.00    +0.000 OA
ATOM     15  C   UNL     1     106.821 126.917 146.518  0.00  0.00    +0.000 A 
ATOM     16  C   UNL     1     106.546 126.725 145.765  0.00  0.00    +0.000 A 
ATOM     17  C   UNL     1     107.046 127.692 146.689  0.00  0.00    +0.000 A 
ATOM     18  C   UNL     1     106.495 127.306 145.182  0.00  0.00    +0.000 A 
ATOM     19  C   UNL     1     106.996 128.274 146.107  0.00  0.00    +0.000 A 
ATOM     20  C   UNL     1     106.720 128.082 145.353  0.00  0.00    +0.000 A 
BRANCH  18  21
ATOM     21  O   UNL     1     106.220 127.113 144.429  0.00  0.00    +0.000 OA
BRANCH  21  22
ATOM     22  S   UNL     1     106.227 126.328 144.175  0.00  0.00    +0.000 S 
ATOM     23  O   UNL     1     106.235 125.544 143.921  0.00  0.00    +0.000 OA
ATOM     24  O   UNL     1     105.440 126.246 144.406  0.00  0.00    +0.000 OA
ATOM     25  O   UNL     1     107.015 126.411 143.944  0.00  0.00    +0.000 OA
ENDBRANCH  21  22
ENDBRANCH  18  21
ENDBRANCH  12  15
BRANCH   5  26
ATOM     26  O   UNL     1     104.849 125.679 148.444  0.00  0.00    +0.000 OA
BRANCH  26  35
ATOM     27  O   UNL     1     104.462 124.639 147.544  0.00  0.00    +0.000 OA
ATOM     28  O   UNL     1     102.128 125.464 147.594  0.00  0.00    +0.000 OA
ATOM     29  O   UNL     1     102.519 124.149 146.678  0.00  0.00    +0.000 OA
ATOM     30  O   UNL     1     103.294 126.229 148.477  0.00  0.00    +0.000 OA
ATOM     31  C   UNL     1     102.906 125.189 147.577  0.00  0.00    +0.000 C 
ATOM     32  C   UNL     1     103.101 124.531 147.119  0.00  0.00    +0.000 C 
ATOM     33  C   UNL     1     103.488 125.572 148.019  0.00  0.00    +0.000 C 
ATOM     34  C   UNL     1     103.879 124.256 147.103  0.00  0.00    +0.000 C 
ATOM     35  C   UNL     1     104.266 125.297 148.003  0.00  0.00    +0.000 C 
BRANCH  34  37
ATOM     36  O   UNL     1     104.659 123.660 146.065  0.00  0.00    +0.000 OA
ATOM     37  C   UNL     1     104.075 123.599 146.645  0.00  0.00    +0.000 C 
ENDBRANCH  34  37
ENDBRANCH  26  35
ENDBRANCH   5  26
TORSDOF 6
ENDMDL
MODEL 7
REMARK VINA RESULT:      -9.1      1.530      4.013
REMARK  Name = 74977934
REMARK  6 active torsions:
REMARK  status: ('A' for Active; 'I' for Inactive)
REMARK    1  A    between atoms: S_1  and  O_12
REMARK    2  A    between atoms: O_3  and  C_21
REMARK    3  A    between atoms: O_3  and  C_23
REMARK    4  A    between atoms: O_12  and  C_35
REMARK    5  A    between atoms: C_20  and  C_22
REMARK    6  A    between atoms: C_30  and  C_32
REMARK                            x       y       z     vdW  Elec       q    Type
REMARK                         _______ _______ _______ _____ _____    ______ ____
ROOT
ATOM      1  O   UNL     1     113.035 127.640 137.063  0.00  0.00    +0.000 OA
ATOM      2  O   UNL     1     112.380 130.335 137.845  0.00  0.00    +0.000 OA
ATOM      3  O   UNL     1     114.278 129.902 135.751  0.00  0.00    +0.000 OA
ATOM      4  O   UNL     1     114.632 128.568 135.331  0.00  0.00    +0.000 OA
ATOM      5  C   UNL     1     112.713 129.003 137.447  0.00  0.00    +0.000 A 
ATOM      6  C   UNL     1     113.141 128.487 136.966  0.00  0.00    +0.000 A 
ATOM      7  C   UNL     1     112.808 129.818 137.363  0.00  0.00    +0.000 A 
ATOM      8  C   UNL     1     113.662 128.786 136.400  0.00  0.00    +0.000 A 
ATOM      9  C   UNL     1     113.756 129.602 136.317  0.00  0.00    +0.000 A 
ATOM     10  C   UNL     1     113.329 130.118 136.798  0.00  0.00    +0.000 A 
ATOM     11  C   UNL     1     114.113 128.260 135.893  0.00  0.00    +0.000 A 
ATOM     12  C   UNL     1     113.477 127.097 136.564  0.00  0.00    +0.000 A 
ATOM     13  C   UNL     1     114.020 127.409 135.976  0.00  0.00    +0.000 A 
ENDROOT
BRANCH  12  15
ATOM     14  O   UNL     1     113.093 123.838 136.907  0.00  0.00    +0.000 OA
ATOM     15  C   UNL     1     113.382 126.282 136.650  0.00  0.00    +0.000 A 
ATOM     16  C   UNL     1     112.694 125.917 136.378  0.00  0.00    +0.000 A 
ATOM     17  C   UNL     1     113.973 125.832 137.008  0.00  0.00    +0.000 A 
ATOM     18  C   UNL     1     112.597 125.103 136.463  0.00  0.00    +0.000 A 
ATOM     19  C   UNL     1     113.877 125.018 137.093  0.00  0.00    +0.000 A 
ATOM     20  C   UNL     1     113.189 124.652 136.821  0.00  0.00    +0.000 A 
BRANCH  18  21
ATOM     21  O   UNL     1     111.909 124.737 136.191  0.00  0.00    +0.000 OA
BRANCH  21  22
ATOM     22  S   UNL     1     111.189 125.139 136.220  0.00  0.00    +0.000 S 
ATOM     23  O   UNL     1     110.470 125.542 136.248  0.00  0.00    +0.000 OA
ATOM     24  O   UNL     1     111.115 124.950 137.019  0.00  0.00    +0.000 OA
ATOM     25  O   UNL     1     111.263 125.329 135.420  0.00  0.00    +0.000 OA
ENDBRANCH  21  22
ENDBRANCH  18  21
ENDBRANCH  12  15
BRANCH   5  26
ATOM     26  O   UNL     1     112.193 128.704 138.012  0.00  0.00    +0.000 OA
BRANCH  26  35
ATOM     27  O   UNL     1     111.100 128.907 137.113  0.00  0.00    +0.000 OA
ATOM     28  O   UNL     1     109.524 128.113 138.849  0.00  0.00    +0.000 OA
ATOM     29  O   UNL     1     108.958 128.581 137.372  0.00  0.00    +0.000 OA
ATOM     30  O   UNL     1     111.142 128.175 139.169  0.00  0.00    +0.000 OA
ATOM     31  C   UNL     1     110.050 128.378 138.270  0.00  0.00    +0.000 C 
ATOM     32  C   UNL     1     109.767 128.611 137.532  0.00  0.00    +0.000 C 
ATOM     33  C   UNL     1     110.859 128.409 138.431  0.00  0.00    +0.000 C 
ATOM     34  C   UNL     1     110.292 128.876 136.953  0.00  0.00    +0.000 C 
ATOM     35  C   UNL     1     111.384 128.673 137.852  0.00  0.00    +0.000 C 
BRANCH  34  37
ATOM     36  O   UNL     1     110.202 128.671 135.542  0.00  0.00    +0.000 OA
ATOM     37  C   UNL     1     110.009 129.110 136.215  0.00  0.00    +0.000 C 
ENDBRANCH  34  37
ENDBRANCH  26  35
ENDBRANCH   5  26
TORSDOF 6
ENDMDL
MODEL 8
REMARK VINA RESULT:      -9.1      1.794      3.728
REMARK  Name = 74977934
REMARK  6 active torsions:
REMARK  status: ('A' for Active; 'I' for Inactive)
REMARK    1  A    between atoms: S_1  and  O_12
REMARK    2  A    between atoms: O_3  and  C_21
REMARK    3  A    between atoms: O_3  and  C_23
REMARK    4  A    between atoms: O_12  and  C_35
REMARK    5  A    between atoms: C_20  and  C_22
REMARK    6  A    between atoms: C_30  and  C_32
REMARK                            x       y       z     vdW  Elec       q    Type
REMARK                         _______ _______ _______ _____ _____    ______ ____
ROOT
ATOM      1  O   UNL     1     111.964 127.104 136.051  0.00  0.00    +0.000 OA
ATOM      2  O   UNL     1     111.446 129.546 134.612  0.00  0.00    +0.000 OA
ATOM      3  O   UNL     1     114.081 129.024 135.591  0.00  0.00    +0.000 OA
ATOM      4  O   UNL     1     114.380 127.813 136.317  0.00  0.00    +0.000 OA
ATOM      5  C   UNL     1     111.716 128.339 135.327  0.00  0.00    +0.000 A 
ATOM      6  C   UNL     1     112.246 127.849 135.729  0.00  0.00    +0.000 A 
ATOM      7  C   UNL     1     111.976 129.056 135.014  0.00  0.00    +0.000 A 
ATOM      8  C   UNL     1     113.033 128.078 135.817  0.00  0.00    +0.000 A 
ATOM      9  C   UNL     1     113.292 128.796 135.503  0.00  0.00    +0.000 A 
ATOM     10  C   UNL     1     112.763 129.285 135.102  0.00  0.00    +0.000 A 
ATOM     11  C   UNL     1     113.594 127.577 136.233  0.00  0.00    +0.000 A 
ATOM     12  C   UNL     1     112.510 126.590 136.471  0.00  0.00    +0.000 A 
ATOM     13  C   UNL     1     113.330 126.828 136.563  0.00  0.00    +0.000 A 
ENDROOT
BRANCH  12  15
ATOM     14  O   UNL     1     111.463 123.722 137.723  0.00  0.00    +0.000 OA
ATOM     15  C   UNL     1     112.248 125.873 136.784  0.00  0.00    +0.000 A 
ATOM     16  C   UNL     1     111.816 125.862 137.486  0.00  0.00    +0.000 A 
ATOM     17  C   UNL     1     112.419 125.166 136.395  0.00  0.00    +0.000 A 
ATOM     18  C   UNL     1     111.554 125.146 137.800  0.00  0.00    +0.000 A 
ATOM     19  C   UNL     1     112.158 124.449 136.708  0.00  0.00    +0.000 A 
ATOM     20  C   UNL     1     111.725 124.438 137.410  0.00  0.00    +0.000 A 
BRANCH  18  21
ATOM     21  O   UNL     1     111.121 125.136 138.502  0.00  0.00    +0.000 OA
BRANCH  21  22
ATOM     22  S   UNL     1     110.848 125.843 138.828  0.00  0.00    +0.000 S 
ATOM     23  O   UNL     1     110.574 126.549 139.155  0.00  0.00    +0.000 OA
ATOM     24  O   UNL     1     110.185 125.813 138.338  0.00  0.00    +0.000 OA
ATOM     25  O   UNL     1     111.510 125.872 139.319  0.00  0.00    +0.000 OA
ENDBRANCH  21  22
ENDBRANCH  18  21
ENDBRANCH  12  15
BRANCH   5  26
ATOM     26  O   UNL     1     110.929 128.111 135.240  0.00  0.00    +0.000 OA
BRANCH  26  35
ATOM     27  O   UNL     1     110.562 128.919 136.359  0.00  0.00    +0.000 OA
ATOM     28  O   UNL     1     108.170 128.492 135.883  0.00  0.00    +0.000 OA
ATOM     29  O   UNL     1     108.601 129.442 137.161  0.00  0.00    +0.000 OA
ATOM     30  O   UNL     1     109.335 127.826 134.923  0.00  0.00    +0.000 OA
ATOM     31  C   UNL     1     108.968 128.634 136.042  0.00  0.00    +0.000 C 
ATOM     32  C   UNL     1     109.182 129.110 136.680  0.00  0.00    +0.000 C 
ATOM     33  C   UNL     1     109.550 128.301 135.561  0.00  0.00    +0.000 C 
ATOM     34  C   UNL     1     109.979 129.252 136.839  0.00  0.00    +0.000 C 
ATOM     35  C   UNL     1     110.347 128.443 135.720  0.00  0.00    +0.000 C 
BRANCH  34  37
ATOM     36  O   UNL     1     110.626 129.406 138.104  0.00  0.00    +0.000 OA
ATOM     37  C   UNL     1     110.195 129.728 137.478  0.00  0.00    +0.000 C 
ENDBRANCH  34  37
ENDBRANCH  26  35
ENDBRANCH   5  26
TORSDOF 6
ENDMDL
MODEL 9
REMARK VINA RESULT:      -9.1      9.991     12.870
REMARK  Name = 74977934
REMARK  6 active torsions:
REMARK  status: ('A' for Active; 'I' for Inactive)
REMARK    1  A    between atoms: S_1  and  O_12
REMARK    2  A    between atoms: O_3  and  C_21
REMARK    3  A    between atoms: O_3  and  C_23
REMARK    4  A    between atoms: O_12  and  C_35
REMARK    5  A    between atoms: C_20  and  C_22
REMARK    6  A    between atoms: C_30  and  C_32
REMARK                            x       y       z     vdW  Elec       q    Type
REMARK                         _______ _______ _______ _____ _____    ______ ____
ROOT
ATOM      1  O   UNL     1     105.336 125.621 147.769  0.00  0.00    +0.000 OA
ATOM      2  O   UNL     1     107.826 126.622 146.723  0.00  0.00    +0.000 OA
ATOM      3  O   UNL     1     107.860 124.513 148.652  0.00  0.00    +0.000 OA
ATOM      4  O   UNL     1     106.634 123.984 149.200  0.00  0.00    +0.000 OA
ATOM      5  C   UNL     1     106.598 126.117 147.250  0.00  0.00    +0.000 A 
ATOM      6  C   UNL     1     106.194 125.596 147.747  0.00  0.00    +0.000 A 
ATOM      7  C   UNL     1     107.422 126.102 147.220  0.00  0.00    +0.000 A 
ATOM      8  C   UNL     1     106.614 125.062 148.214  0.00  0.00    +0.000 A 
ATOM      9  C   UNL     1     107.439 125.048 148.184  0.00  0.00    +0.000 A 
ATOM     10  C   UNL     1     107.843 125.567 147.687  0.00  0.00    +0.000 A 
ATOM     11  C   UNL     1     106.205 124.515 148.736  0.00  0.00    +0.000 A 
ATOM     12  C   UNL     1     104.909 125.082 148.285  0.00  0.00    +0.000 A 
ATOM     13  C   UNL     1     105.346 124.525 148.772  0.00  0.00    +0.000 A 
ENDROOT
BRANCH  12  15
ATOM     14  O   UNL     1     101.612 125.148 148.395  0.00  0.00    +0.000 OA
ATOM     15  C   UNL     1     104.084 125.098 148.313  0.00  0.00    +0.000 A 
ATOM     16  C   UNL     1     103.644 124.715 147.730  0.00  0.00    +0.000 A 
ATOM     17  C   UNL     1     103.700 125.498 148.923  0.00  0.00    +0.000 A 
ATOM     18  C   UNL     1     102.820 124.731 147.757  0.00  0.00    +0.000 A 
ATOM     19  C   UNL     1     102.875 125.515 148.951  0.00  0.00    +0.000 A 
ATOM     20  C   UNL     1     102.435 125.131 148.368  0.00  0.00    +0.000 A 
BRANCH  18  21
ATOM     21  O   UNL     1     102.380 124.347 147.174  0.00  0.00    +0.000 OA
BRANCH  21  22
ATOM     22  S   UNL     1     102.741 123.790 146.684  0.00  0.00    +0.000 S 
ATOM     23  O   UNL     1     103.102 123.234 146.194  0.00  0.00    +0.000 OA
ATOM     24  O   UNL     1     102.574 123.198 147.234  0.00  0.00    +0.000 OA
ATOM     25  O   UNL     1     102.908 124.383 146.134  0.00  0.00    +0.000 OA
ENDBRANCH  21  22
ENDBRANCH  18  21
ENDBRANCH  12  15
BRANCH   5  26
ATOM     26  O   UNL     1     106.178 126.650 146.783  0.00  0.00    +0.000 OA
BRANCH  26  35
ATOM     27  O   UNL     1     106.239 125.740 145.683  0.00  0.00    +0.000 OA
ATOM     28  O   UNL     1     105.126 127.412 144.236  0.00  0.00    +0.000 OA
ATOM     29  O   UNL     1     105.558 125.944 143.620  0.00  0.00    +0.000 OA
ATOM     30  O   UNL     1     105.437 127.765 145.819  0.00  0.00    +0.000 OA
ATOM     31  C   UNL     1     105.497 126.854 144.719  0.00  0.00    +0.000 C 
ATOM     32  C   UNL     1     105.713 126.121 144.410  0.00  0.00    +0.000 C 
ATOM     33  C   UNL     1     105.652 127.032 145.510  0.00  0.00    +0.000 C 
ATOM     34  C   UNL     1     106.084 125.564 144.893  0.00  0.00    +0.000 C 
ATOM     35  C   UNL     1     106.023 126.474 145.992  0.00  0.00    +0.000 C 
BRANCH  34  37
ATOM     36  O   UNL     1     105.954 124.141 144.880  0.00  0.00    +0.000 OA
ATOM     37  C   UNL     1     106.300 124.829 144.585  0.00  0.00    +0.000 C 
ENDBRANCH  34  37
ENDBRANCH  26  35
ENDBRANCH   5  26
TORSDOF 6
ENDMDL
MODEL 10
REMARK VINA RESULT:      -9.0      1.311      2.635
REMARK  Name = 74977934
REMARK  6 active torsions:
REMARK  status: ('A' for Active; 'I' for Inactive)
REMARK    1  A    between atoms: S_1  and  O_12
REMARK    2  A    between atoms: O_3  and  C_21
REMARK    3  A    between atoms: O_3  and  C_23
REMARK    4  A    between atoms: O_12  and  C_35
REMARK    5  A    between atoms: C_20  and  C_22
REMARK    6  A    between atoms: C_30  and  C_32
REMARK                            x       y       z     vdW  Elec       q    Type
REMARK                         _______ _______ _______ _____ _____    ______ ____
ROOT
ATOM      1  O   UNL     1     112.210 127.115 135.977  0.00  0.00    +0.000 OA
ATOM      2  O   UNL     1     111.756 124.323 136.523  0.00  0.00    +0.000 OA
ATOM      3  O   UNL     1     109.881 125.762 134.916  0.00  0.00    +0.000 OA
ATOM      4  O   UNL     1     110.072 127.162 134.620  0.00  0.00    +0.000 OA
ATOM      5  C   UNL     1     111.969 125.708 136.245  0.00  0.00    +0.000 A 
ATOM      6  C   UNL     1     111.728 126.410 135.884  0.00  0.00    +0.000 A 
ATOM      7  C   UNL     1     111.514 125.025 136.162  0.00  0.00    +0.000 A 
ATOM      8  C   UNL     1     111.032 126.428 135.441  0.00  0.00    +0.000 A 
ATOM      9  C   UNL     1     110.577 125.744 135.359  0.00  0.00    +0.000 A 
ATOM     10  C   UNL     1     110.818 125.043 135.720  0.00  0.00    +0.000 A 
ATOM     11  C   UNL     1     110.770 127.152 135.061  0.00  0.00    +0.000 A 
ATOM     12  C   UNL     1     111.964 127.849 135.603  0.00  0.00    +0.000 A 
ATOM     13  C   UNL     1     111.239 127.868 135.142  0.00  0.00    +0.000 A 
ENDROOT
BRANCH  12  15
ATOM     14  O   UNL     1     113.789 130.577 135.939  0.00  0.00    +0.000 OA
ATOM     15  C   UNL     1     112.420 128.531 135.687  0.00  0.00    +0.000 A 
ATOM     16  C   UNL     1     112.338 129.003 136.359  0.00  0.00    +0.000 A 
ATOM     17  C   UNL     1     112.959 128.742 135.100  0.00  0.00    +0.000 A 
ATOM     18  C   UNL     1     112.793 129.685 136.444  0.00  0.00    +0.000 A 
ATOM     19  C   UNL     1     113.415 129.425 135.183  0.00  0.00    +0.000 A 
ATOM     20  C   UNL     1     113.333 129.896 135.855  0.00  0.00    +0.000 A 
BRANCH  18  21
ATOM     21  O   UNL     1     112.711 130.157 137.116  0.00  0.00    +0.000 OA
BRANCH  21  22
ATOM     22  S   UNL     1     112.401 129.835 137.809  0.00  0.00    +0.000 S 
ATOM     23  O   UNL     1     112.090 129.514 138.503  0.00  0.00    +0.000 OA
ATOM     24  O   UNL     1     111.659 130.142 137.620  0.00  0.00    +0.000 OA
ATOM     25  O   UNL     1     113.143 129.528 137.999  0.00  0.00    +0.000 OA
ENDBRANCH  21  22
ENDBRANCH  18  21
ENDBRANCH  12  15
BRANCH   5  26
ATOM     26  O   UNL     1     112.664 125.690 136.687  0.00  0.00    +0.000 OA
BRANCH  26  35
ATOM     27  O   UNL     1     111.914 125.890 137.887  0.00  0.00    +0.000 OA
ATOM     28  O   UNL     1     114.022 126.156 139.159  0.00  0.00    +0.000 OA
ATOM     29  O   UNL     1     112.569 126.268 139.934  0.00  0.00    +0.000 OA
ATOM     30  O   UNL     1     114.068 125.867 137.535  0.00  0.00    +0.000 OA
ATOM     31  C   UNL     1     113.319 126.067 138.735  0.00  0.00    +0.000 C 
ATOM     32  C   UNL     1     112.593 126.123 139.123  0.00  0.00    +0.000 C 
ATOM     33  C   UNL     1     113.343 125.923 137.923  0.00  0.00    +0.000 C 
ATOM     34  C   UNL     1     111.891 126.035 138.699  0.00  0.00    +0.000 C 
ATOM     35  C   UNL     1     112.641 125.834 137.499  0.00  0.00    +0.000 C 
BRANCH  34  37
ATOM     36  O   UNL     1     110.739 125.406 139.263  0.00  0.00    +0.000 OA
ATOM     37  C   UNL     1     111.165 126.090 139.086  0.00  0.00    +0.000 C 
ENDBRANCH  34  37
ENDBRANCH  26  35
ENDBRANCH   5  26
TORSDOF 6
ENDMDL
