MODEL 1
REMARK VINA RESULT:      -8.0      0.000      0.000
REMARK  Name = 338286
REMARK  3 active torsions:
REMARK  status: ('A' for Active; 'I' for Inactive)
REMARK    1  A    between atoms: O_2  and  C_12
REMARK    2  A    between atoms: O_3  and  C_14
REMARK    3  A    between atoms: C_6  and  C_7
REMARK                            x       y       z     vdW  Elec       q    Type
REMARK                         _______ _______ _______ _____ _____    ______ ____
ROOT
ATOM      1  O   UNL     1     112.207 124.207 136.868  0.00  0.00    +0.000 OA
ATOM      2  O   UNL     1     115.049 124.403 137.469  0.00  0.00    +0.000 OA
ATOM      3  C   UNL     1     111.524 125.292 136.237  0.00  0.00    +0.000 C 
ATOM      4  C   UNL     1     111.514 124.534 136.560  0.00  0.00    +0.000 C 
ATOM      5  C   UNL     1     112.919 125.398 136.528  0.00  0.00    +0.000 A 
ATOM      6  C   UNL     1     112.227 125.725 136.221  0.00  0.00    +0.000 C 
ATOM      7  C   UNL     1     112.909 124.639 136.852  0.00  0.00    +0.000 A 
ATOM      8  C   UNL     1     113.645 125.858 136.506  0.00  0.00    +0.000 A 
ATOM      9  C   UNL     1     113.624 124.287 137.175  0.00  0.00    +0.000 A 
ATOM     10  C   UNL     1     114.358 124.732 137.161  0.00  0.00    +0.000 A 
ATOM     11  C   UNL     1     114.369 125.523 136.824  0.00  0.00    +0.000 A 
ENDROOT
BRANCH   3  13
ATOM     12  O   UNL     1     108.757 126.601 135.004  0.00  0.00    +0.000 OA
ATOM     13  C   UNL     1     110.832 125.620 135.929  0.00  0.00    +0.000 A 
ATOM     14  C   UNL     1     110.350 126.090 136.406  0.00  0.00    +0.000 A 
ATOM     15  C   UNL     1     110.622 125.476 135.144  0.00  0.00    +0.000 A 
ATOM     16  C   UNL     1     109.659 126.417 136.097  0.00  0.00    +0.000 A 
ATOM     17  C   UNL     1     109.930 125.804 134.836  0.00  0.00    +0.000 A 
ATOM     18  C   UNL     1     109.449 126.274 135.313  0.00  0.00    +0.000 A 
BRANCH  14  19
ATOM     19  O   UNL     1     110.560 126.233 137.190  0.00  0.00    +0.000 OA
ATOM     20  C   UNL     1     109.991 126.184 137.785  0.00  0.00    +0.000 C 
ENDBRANCH  14  19
BRANCH  16  21
ATOM     21  O   UNL     1     109.177 126.887 136.574  0.00  0.00    +0.000 OA
ATOM     22  C   UNL     1     108.935 127.631 136.311  0.00  0.00    +0.000 C 
ENDBRANCH  16  21
ENDBRANCH   3  13
TORSDOF 3
ENDMDL
MODEL 2
REMARK VINA RESULT:      -7.8     11.587     12.813
REMARK  Name = 338286
REMARK  3 active torsions:
REMARK  status: ('A' for Active; 'I' for Inactive)
REMARK    1  A    between atoms: O_2  and  C_12
REMARK    2  A    between atoms: O_3  and  C_14
REMARK    3  A    between atoms: C_6  and  C_7
REMARK                            x       y       z     vdW  Elec       q    Type
REMARK                         _______ _______ _______ _____ _____    ______ ____
ROOT
ATOM      1  O   UNL     1     105.982 125.370 146.397  0.00  0.00    +0.000 OA
ATOM      2  O   UNL     1     108.594 125.273 147.681  0.00  0.00    +0.000 OA
ATOM      3  C   UNL     1     104.827 124.860 147.066  0.00  0.00    +0.000 C 
ATOM      4  C   UNL     1     105.171 125.217 146.407  0.00  0.00    +0.000 C 
ATOM      5  C   UNL     1     106.105 124.808 147.704  0.00  0.00    +0.000 A 
ATOM      6  C   UNL     1     105.295 124.654 147.715  0.00  0.00    +0.000 C 
ATOM      7  C   UNL     1     106.449 125.165 147.045  0.00  0.00    +0.000 A 
ATOM      8  C   UNL     1     106.581 124.589 148.386  0.00  0.00    +0.000 A 
ATOM      9  C   UNL     1     107.292 125.330 147.022  0.00  0.00    +0.000 A 
ATOM     10  C   UNL     1     107.784 125.119 147.695  0.00  0.00    +0.000 A 
ATOM     11  C   UNL     1     107.426 124.746 148.381  0.00  0.00    +0.000 A 
ENDROOT
BRANCH   3  13
ATOM     12  O   UNL     1     101.585 124.249 147.112  0.00  0.00    +0.000 OA
ATOM     13  C   UNL     1     104.017 124.707 147.077  0.00  0.00    +0.000 A 
ATOM     14  C   UNL     1     103.717 124.041 146.692  0.00  0.00    +0.000 A 
ATOM     15  C   UNL     1     103.506 125.220 147.474  0.00  0.00    +0.000 A 
ATOM     16  C   UNL     1     102.906 123.889 146.704  0.00  0.00    +0.000 A 
ATOM     17  C   UNL     1     102.696 125.067 147.485  0.00  0.00    +0.000 A 
ATOM     18  C   UNL     1     102.396 124.401 147.100  0.00  0.00    +0.000 A 
BRANCH  14  19
ATOM     19  O   UNL     1     104.227 123.529 146.296  0.00  0.00    +0.000 OA
ATOM     20  C   UNL     1     104.008 123.212 145.567  0.00  0.00    +0.000 C 
ENDBRANCH  14  19
BRANCH  16  21
ATOM     21  O   UNL     1     102.606 123.224 146.319  0.00  0.00    +0.000 OA
ATOM     22  C   UNL     1     102.052 122.743 146.697  0.00  0.00    +0.000 C 
ENDBRANCH  16  21
ENDBRANCH   3  13
TORSDOF 3
ENDMDL
MODEL 3
REMARK VINA RESULT:      -7.8      7.127      8.615
REMARK  Name = 338286
REMARK  3 active torsions:
REMARK  status: ('A' for Active; 'I' for Inactive)
REMARK    1  A    between atoms: O_2  and  C_12
REMARK    2  A    between atoms: O_3  and  C_14
REMARK    3  A    between atoms: C_6  and  C_7
REMARK                            x       y       z     vdW  Elec       q    Type
REMARK                         _______ _______ _______ _____ _____    ______ ____
ROOT
ATOM      1  O   UNL     1     102.767 123.634 138.326  0.00  0.00    +0.000 OA
ATOM      2  O   UNL     1     102.457 122.913 135.522  0.00  0.00    +0.000 OA
ATOM      3  C   UNL     1     104.065 123.691 138.919  0.00  0.00    +0.000 C 
ATOM      4  C   UNL     1     103.247 123.771 138.983  0.00  0.00    +0.000 C 
ATOM      5  C   UNL     1     103.923 123.337 137.542  0.00  0.00    +0.000 A 
ATOM      6  C   UNL     1     104.404 123.474 138.198  0.00  0.00    +0.000 C 
ATOM      7  C   UNL     1     103.104 123.417 137.606  0.00  0.00    +0.000 A 
ATOM      8  C   UNL     1     104.287 123.111 136.797  0.00  0.00    +0.000 A 
ATOM      9  C   UNL     1     102.593 123.276 136.929  0.00  0.00    +0.000 A 
ATOM     10  C   UNL     1     102.940 123.050 136.177  0.00  0.00    +0.000 A 
ATOM     11  C   UNL     1     103.792 122.967 136.110  0.00  0.00    +0.000 A 
ENDROOT
BRANCH   3  13
ATOM     12  O   UNL     1     105.989 124.237 141.544  0.00  0.00    +0.000 OA
ATOM     13  C   UNL     1     104.546 123.828 139.575  0.00  0.00    +0.000 A 
ATOM     14  C   UNL     1     104.827 124.588 139.730  0.00  0.00    +0.000 A 
ATOM     15  C   UNL     1     104.747 123.204 140.077  0.00  0.00    +0.000 A 
ATOM     16  C   UNL     1     105.308 124.724 140.387  0.00  0.00    +0.000 A 
ATOM     17  C   UNL     1     105.227 123.341 140.733  0.00  0.00    +0.000 A 
ATOM     18  C   UNL     1     105.508 124.101 140.888  0.00  0.00    +0.000 A 
BRANCH  14  19
ATOM     19  O   UNL     1     104.627 125.211 139.229  0.00  0.00    +0.000 OA
ATOM     20  C   UNL     1     104.328 125.913 139.542  0.00  0.00    +0.000 C 
ENDBRANCH  14  19
BRANCH  16  21
ATOM     21  O   UNL     1     105.589 125.484 140.541  0.00  0.00    +0.000 OA
ATOM     22  C   UNL     1     106.377 125.597 140.760  0.00  0.00    +0.000 C 
ENDBRANCH  16  21
ENDBRANCH   3  13
TORSDOF 3
ENDMDL
MODEL 4
REMARK VINA RESULT:      -7.5      2.471      4.036
REMARK  Name = 338286
REMARK  3 active torsions:
REMARK  status: ('A' for Active; 'I' for Inactive)
REMARK    1  A    between atoms: O_2  and  C_12
REMARK    2  A    between atoms: O_3  and  C_14
REMARK    3  A    between atoms: C_6  and  C_7
REMARK                            x       y       z     vdW  Elec       q    Type
REMARK                         _______ _______ _______ _____ _____    ______ ____
ROOT
ATOM      1  O   UNL     1     113.180 128.333 137.410  0.00  0.00    +0.000 OA
ATOM      2  O   UNL     1     113.877 130.904 136.232  0.00  0.00    +0.000 OA
ATOM      3  C   UNL     1     113.455 127.118 136.710  0.00  0.00    +0.000 C 
ATOM      4  C   UNL     1     113.156 127.509 137.372  0.00  0.00    +0.000 C 
ATOM      5  C   UNL     1     113.800 128.375 136.124  0.00  0.00    +0.000 A 
ATOM      6  C   UNL     1     113.777 127.552 136.085  0.00  0.00    +0.000 C 
ATOM      7  C   UNL     1     113.502 128.766 136.786  0.00  0.00    +0.000 A 
ATOM      8  C   UNL     1     114.138 128.815 135.467  0.00  0.00    +0.000 A 
ATOM      9  C   UNL     1     113.521 129.624 136.838  0.00  0.00    +0.000 A 
ATOM     10  C   UNL     1     113.855 130.080 136.191  0.00  0.00    +0.000 A 
ATOM     11  C   UNL     1     114.166 129.673 135.501  0.00  0.00    +0.000 A 
ENDROOT
BRANCH   3  13
ATOM     12  O   UNL     1     113.365 123.823 136.554  0.00  0.00    +0.000 OA
ATOM     13  C   UNL     1     113.432 126.295 136.671  0.00  0.00    +0.000 A 
ATOM     14  C   UNL     1     112.718 125.908 136.520  0.00  0.00    +0.000 A 
ATOM     15  C   UNL     1     114.123 125.857 136.782  0.00  0.00    +0.000 A 
ATOM     16  C   UNL     1     112.697 125.084 136.481  0.00  0.00    +0.000 A 
ATOM     17  C   UNL     1     114.100 125.034 136.743  0.00  0.00    +0.000 A 
ATOM     18  C   UNL     1     113.387 124.647 136.593  0.00  0.00    +0.000 A 
BRANCH  14  19
ATOM     19  O   UNL     1     112.029 126.345 136.409  0.00  0.00    +0.000 OA
ATOM     20  C   UNL     1     111.509 126.148 135.799  0.00  0.00    +0.000 C 
ENDBRANCH  14  19
BRANCH  16  21
ATOM     21  O   UNL     1     111.983 124.698 136.331  0.00  0.00    +0.000 OA
ATOM     22  C   UNL     1     111.740 124.076 136.816  0.00  0.00    +0.000 C 
ENDBRANCH  16  21
ENDBRANCH   3  13
TORSDOF 3
ENDMDL
MODEL 5
REMARK VINA RESULT:      -7.5      2.793      3.676
REMARK  Name = 338286
REMARK  3 active torsions:
REMARK  status: ('A' for Active; 'I' for Inactive)
REMARK    1  A    between atoms: O_2  and  C_12
REMARK    2  A    between atoms: O_3  and  C_14
REMARK    3  A    between atoms: C_6  and  C_7
REMARK                            x       y       z     vdW  Elec       q    Type
REMARK                         _______ _______ _______ _____ _____    ______ ____
ROOT
ATOM      1  O   UNL     1     112.322 126.295 136.319  0.00  0.00    +0.000 OA
ATOM      2  O   UNL     1     113.022 123.535 136.933  0.00  0.00    +0.000 OA
ATOM      3  C   UNL     1     113.300 127.331 136.428  0.00  0.00    +0.000 C 
ATOM      4  C   UNL     1     112.530 127.091 136.254  0.00  0.00    +0.000 C 
ATOM      5  C   UNL     1     113.653 125.979 136.731  0.00  0.00    +0.000 A 
ATOM      6  C   UNL     1     113.862 126.775 136.666  0.00  0.00    +0.000 C 
ATOM      7  C   UNL     1     112.883 125.739 136.557  0.00  0.00    +0.000 A 
ATOM      8  C   UNL     1     114.247 125.410 136.980  0.00  0.00    +0.000 A 
ATOM      9  C   UNL     1     112.654 124.913 136.621  0.00  0.00    +0.000 A 
ATOM     10  C   UNL     1     113.234 124.330 136.869  0.00  0.00    +0.000 A 
ATOM     11  C   UNL     1     114.036 124.580 137.049  0.00  0.00    +0.000 A 
ENDROOT
BRANCH   3  13
ATOM     12  O   UNL     1     114.139 130.512 136.167  0.00  0.00    +0.000 OA
ATOM     13  C   UNL     1     113.510 128.126 136.363  0.00  0.00    +0.000 A 
ATOM     14  C   UNL     1     113.293 128.659 136.954  0.00  0.00    +0.000 A 
ATOM     15  C   UNL     1     113.936 128.388 135.707  0.00  0.00    +0.000 A 
ATOM     16  C   UNL     1     113.503 129.455 136.888  0.00  0.00    +0.000 A 
ATOM     17  C   UNL     1     114.145 129.183 135.642  0.00  0.00    +0.000 A 
ATOM     18  C   UNL     1     113.929 129.716 136.233  0.00  0.00    +0.000 A 
BRANCH  14  19
ATOM     19  O   UNL     1     112.867 128.397 137.609  0.00  0.00    +0.000 OA
ATOM     20  C   UNL     1     113.080 128.648 138.366  0.00  0.00    +0.000 C 
ENDBRANCH  14  19
BRANCH  16  21
ATOM     21  O   UNL     1     113.286 129.988 137.479  0.00  0.00    +0.000 OA
ATOM     22  C   UNL     1     112.898 130.689 137.281  0.00  0.00    +0.000 C 
ENDBRANCH  16  21
ENDBRANCH   3  13
TORSDOF 3
ENDMDL
MODEL 6
REMARK VINA RESULT:      -7.5     11.439     13.270
REMARK  Name = 338286
REMARK  3 active torsions:
REMARK  status: ('A' for Active; 'I' for Inactive)
REMARK    1  A    between atoms: O_2  and  C_12
REMARK    2  A    between atoms: O_3  and  C_14
REMARK    3  A    between atoms: C_6  and  C_7
REMARK                            x       y       z     vdW  Elec       q    Type
REMARK                         _______ _______ _______ _____ _____    ______ ____
ROOT
ATOM      1  O   UNL     1     103.355 125.091 147.073  0.00  0.00    +0.000 OA
ATOM      2  O   UNL     1     101.274 123.284 146.134  0.00  0.00    +0.000 OA
ATOM      3  C   UNL     1     104.734 124.749 146.920  0.00  0.00    +0.000 C 
ATOM      4  C   UNL     1     104.153 125.275 147.177  0.00  0.00    +0.000 C 
ATOM      5  C   UNL     1     103.719 123.856 146.456  0.00  0.00    +0.000 A 
ATOM      6  C   UNL     1     104.517 124.038 146.559  0.00  0.00    +0.000 C 
ATOM      7  C   UNL     1     103.138 124.382 146.713  0.00  0.00    +0.000 A 
ATOM      8  C   UNL     1     103.506 123.113 146.079  0.00  0.00    +0.000 A 
ATOM      9  C   UNL     1     102.304 124.203 146.611  0.00  0.00    +0.000 A 
ATOM     10  C   UNL     1     102.072 123.465 146.237  0.00  0.00    +0.000 A 
ATOM     11  C   UNL     1     102.677 122.917 145.969  0.00  0.00    +0.000 A 
ENDROOT
BRANCH   3  13
ATOM     12  O   UNL     1     107.926 125.480 147.330  0.00  0.00    +0.000 OA
ATOM     13  C   UNL     1     105.532 124.931 147.023  0.00  0.00    +0.000 A 
ATOM     14  C   UNL     1     105.892 124.809 147.755  0.00  0.00    +0.000 A 
ATOM     15  C   UNL     1     105.969 125.238 146.393  0.00  0.00    +0.000 A 
ATOM     16  C   UNL     1     106.690 124.992 147.857  0.00  0.00    +0.000 A 
ATOM     17  C   UNL     1     106.767 125.420 146.496  0.00  0.00    +0.000 A 
ATOM     18  C   UNL     1     107.127 125.297 147.228  0.00  0.00    +0.000 A 
BRANCH  14  19
ATOM     19  O   UNL     1     105.455 124.503 148.383  0.00  0.00    +0.000 OA
ATOM     20  C   UNL     1     105.545 124.819 149.140  0.00  0.00    +0.000 C 
ENDBRANCH  14  19
BRANCH  16  21
ATOM     21  O   UNL     1     107.051 124.869 148.588  0.00  0.00    +0.000 OA
ATOM     22  C   UNL     1     107.823 124.580 148.625  0.00  0.00    +0.000 C 
ENDBRANCH  16  21
ENDBRANCH   3  13
TORSDOF 3
ENDMDL
MODEL 7
REMARK VINA RESULT:      -7.5      2.853      4.100
REMARK  Name = 338286
REMARK  3 active torsions:
REMARK  status: ('A' for Active; 'I' for Inactive)
REMARK    1  A    between atoms: O_2  and  C_12
REMARK    2  A    between atoms: O_3  and  C_14
REMARK    3  A    between atoms: C_6  and  C_7
REMARK                            x       y       z     vdW  Elec       q    Type
REMARK                         _______ _______ _______ _____ _____    ______ ____
ROOT
ATOM      1  O   UNL     1     113.192 127.908 138.583  0.00  0.00    +0.000 OA
ATOM      2  O   UNL     1     113.712 129.164 141.158  0.00  0.00    +0.000 OA
ATOM      3  C   UNL     1     113.357 126.499 138.419  0.00  0.00    +0.000 C 
ATOM      4  C   UNL     1     113.161 127.236 138.105  0.00  0.00    +0.000 C 
ATOM      5  C   UNL     1     113.615 127.106 139.686  0.00  0.00    +0.000 A 
ATOM      6  C   UNL     1     113.584 126.434 139.210  0.00  0.00    +0.000 C 
ATOM      7  C   UNL     1     113.418 127.844 139.373  0.00  0.00    +0.000 A 
ATOM      8  C   UNL     1     113.853 127.026 140.508  0.00  0.00    +0.000 A 
ATOM      9  C   UNL     1     113.447 128.552 139.860  0.00  0.00    +0.000 A 
ATOM     10  C   UNL     1     113.682 128.490 140.683  0.00  0.00    +0.000 A 
ATOM     11  C   UNL     1     113.886 127.722 141.010  0.00  0.00    +0.000 A 
ENDROOT
BRANCH   3  13
ATOM     12  O   UNL     1     113.237 123.807 136.513  0.00  0.00    +0.000 OA
ATOM     13  C   UNL     1     113.326 125.826 137.942  0.00  0.00    +0.000 A 
ATOM     14  C   UNL     1     112.598 125.493 137.745  0.00  0.00    +0.000 A 
ATOM     15  C   UNL     1     114.025 125.486 137.664  0.00  0.00    +0.000 A 
ATOM     16  C   UNL     1     112.568 124.820 137.268  0.00  0.00    +0.000 A 
ATOM     17  C   UNL     1     113.994 124.814 137.187  0.00  0.00    +0.000 A 
ATOM     18  C   UNL     1     113.266 124.480 136.989  0.00  0.00    +0.000 A 
BRANCH  14  19
ATOM     19  O   UNL     1     111.900 125.832 138.023  0.00  0.00    +0.000 OA
ATOM     20  C   UNL     1     111.295 125.352 138.312  0.00  0.00    +0.000 C 
ENDBRANCH  14  19
BRANCH  16  21
ATOM     21  O   UNL     1     111.840 124.487 137.070  0.00  0.00    +0.000 OA
ATOM     22  C   UNL     1     111.650 124.350 136.279  0.00  0.00    +0.000 C 
ENDBRANCH  16  21
ENDBRANCH   3  13
TORSDOF 3
ENDMDL
MODEL 8
REMARK VINA RESULT:      -7.4      9.630     11.282
REMARK  Name = 338286
REMARK  3 active torsions:
REMARK  status: ('A' for Active; 'I' for Inactive)
REMARK    1  A    between atoms: O_2  and  C_12
REMARK    2  A    between atoms: O_3  and  C_14
REMARK    3  A    between atoms: C_6  and  C_7
REMARK                            x       y       z     vdW  Elec       q    Type
REMARK                         _______ _______ _______ _____ _____    ______ ____
ROOT
ATOM      1  O   UNL     1     105.771 124.920 147.651  0.00  0.00    +0.000 OA
ATOM      2  O   UNL     1     107.770 124.118 149.612  0.00  0.00    +0.000 OA
ATOM      3  C   UNL     1     106.159 125.619 146.467  0.00  0.00    +0.000 C 
ATOM      4  C   UNL     1     105.571 125.283 146.938  0.00  0.00    +0.000 C 
ATOM      5  C   UNL     1     107.147 125.230 147.424  0.00  0.00    +0.000 A 
ATOM      6  C   UNL     1     106.948 125.593 146.710  0.00  0.00    +0.000 C 
ATOM      7  C   UNL     1     106.559 124.893 147.894  0.00  0.00    +0.000 A 
ATOM      8  C   UNL     1     107.972 125.208 147.666  0.00  0.00    +0.000 A 
ATOM      9  C   UNL     1     106.754 124.512 148.640  0.00  0.00    +0.000 A 
ATOM     10  C   UNL     1     107.573 124.482 148.898  0.00  0.00    +0.000 A 
ATOM     11  C   UNL     1     108.186 124.832 148.408  0.00  0.00    +0.000 A 
ENDROOT
BRANCH   3  13
ATOM     12  O   UNL     1     105.363 127.074 143.614  0.00  0.00    +0.000 OA
ATOM     13  C   UNL     1     105.960 125.982 145.754  0.00  0.00    +0.000 A 
ATOM     14  C   UNL     1     105.918 125.536 145.061  0.00  0.00    +0.000 A 
ATOM     15  C   UNL     1     105.803 126.792 145.734  0.00  0.00    +0.000 A 
ATOM     16  C   UNL     1     105.719 125.900 144.348  0.00  0.00    +0.000 A 
ATOM     17  C   UNL     1     105.604 127.155 145.020  0.00  0.00    +0.000 A 
ATOM     18  C   UNL     1     105.562 126.709 144.327  0.00  0.00    +0.000 A 
BRANCH  14  19
ATOM     19  O   UNL     1     106.075 124.727 145.082  0.00  0.00    +0.000 OA
ATOM     20  C   UNL     1     105.576 124.200 144.690  0.00  0.00    +0.000 C 
ENDBRANCH  14  19
BRANCH  16  21
ATOM     21  O   UNL     1     105.677 125.454 143.655  0.00  0.00    +0.000 OA
ATOM     22  C   UNL     1     106.113 125.679 142.992  0.00  0.00    +0.000 C 
ENDBRANCH  16  21
ENDBRANCH   3  13
TORSDOF 3
ENDMDL
MODEL 9
REMARK VINA RESULT:      -7.4      1.654      2.372
REMARK  Name = 338286
REMARK  3 active torsions:
REMARK  status: ('A' for Active; 'I' for Inactive)
REMARK    1  A    between atoms: O_2  and  C_12
REMARK    2  A    between atoms: O_3  and  C_14
REMARK    3  A    between atoms: C_6  and  C_7
REMARK                            x       y       z     vdW  Elec       q    Type
REMARK                         _______ _______ _______ _____ _____    ______ ____
ROOT
ATOM      1  O   UNL     1     110.827 125.121 135.324  0.00  0.00    +0.000 OA
ATOM      2  O   UNL     1     112.411 123.325 136.981  0.00  0.00    +0.000 OA
ATOM      3  C   UNL     1     110.222 126.285 135.892  0.00  0.00    +0.000 C 
ATOM      4  C   UNL     1     110.367 125.801 135.240  0.00  0.00    +0.000 C 
ATOM      5  C   UNL     1     110.998 125.409 136.713  0.00  0.00    +0.000 A 
ATOM      6  C   UNL     1     110.538 126.089 136.630  0.00  0.00    +0.000 C 
ATOM      7  C   UNL     1     111.142 124.925 136.060  0.00  0.00    +0.000 A 
ATOM      8  C   UNL     1     111.322 125.215 137.486  0.00  0.00    +0.000 A 
ATOM      9  C   UNL     1     111.620 124.214 136.135  0.00  0.00    +0.000 A 
ATOM     10  C   UNL     1     111.951 124.005 136.900  0.00  0.00    +0.000 A 
ATOM     11  C   UNL     1     111.801 124.509 137.579  0.00  0.00    +0.000 A 
ENDROOT
BRANCH   3  13
ATOM     12  O   UNL     1     108.381 129.003 135.559  0.00  0.00    +0.000 OA
ATOM     13  C   UNL     1     109.763 126.964 135.809  0.00  0.00    +0.000 A 
ATOM     14  C   UNL     1     110.114 127.675 135.581  0.00  0.00    +0.000 A 
ATOM     15  C   UNL     1     108.950 126.933 135.953  0.00  0.00    +0.000 A 
ATOM     16  C   UNL     1     109.653 128.355 135.498  0.00  0.00    +0.000 A 
ATOM     17  C   UNL     1     108.490 127.612 135.870  0.00  0.00    +0.000 A 
ATOM     18  C   UNL     1     108.842 128.323 135.642  0.00  0.00    +0.000 A 
BRANCH  14  19
ATOM     19  O   UNL     1     110.925 127.707 135.437  0.00  0.00    +0.000 OA
ATOM     20  C   UNL     1     111.211 128.112 134.778  0.00  0.00    +0.000 C 
ENDBRANCH  14  19
BRANCH  16  21
ATOM     21  O   UNL     1     110.004 129.066 135.270  0.00  0.00    +0.000 OA
ATOM     22  C   UNL     1     109.877 129.750 135.714  0.00  0.00    +0.000 C 
ENDBRANCH  16  21
ENDBRANCH   3  13
TORSDOF 3
ENDMDL
MODEL 10
REMARK VINA RESULT:      -7.4      3.266      4.460
REMARK  Name = 338286
REMARK  3 active torsions:
REMARK  status: ('A' for Active; 'I' for Inactive)
REMARK    1  A    between atoms: O_2  and  C_12
REMARK    2  A    between atoms: O_3  and  C_14
REMARK    3  A    between atoms: C_6  and  C_7
REMARK                            x       y       z     vdW  Elec       q    Type
REMARK                         _______ _______ _______ _____ _____    ______ ____
ROOT
ATOM      1  O   UNL     1     112.362 125.716 138.351  0.00  0.00    +0.000 OA
ATOM      2  O   UNL     1     113.229 123.804 136.334  0.00  0.00    +0.000 OA
ATOM      3  C   UNL     1     113.307 126.585 138.978  0.00  0.00    +0.000 C 
ATOM      4  C   UNL     1     112.531 126.318 138.890  0.00  0.00    +0.000 C 
ATOM      5  C   UNL     1     113.742 125.650 137.989  0.00  0.00    +0.000 A 
ATOM      6  C   UNL     1     113.913 126.251 138.528  0.00  0.00    +0.000 C 
ATOM      7  C   UNL     1     112.966 125.382 137.901  0.00  0.00    +0.000 A 
ATOM      8  C   UNL     1     114.381 125.309 137.526  0.00  0.00    +0.000 A 
ATOM      9  C   UNL     1     112.776 124.756 137.343  0.00  0.00    +0.000 A 
ATOM     10  C   UNL     1     113.402 124.405 136.872  0.00  0.00    +0.000 A 
ATOM     11  C   UNL     1     114.210 124.683 136.964  0.00  0.00    +0.000 A 
ENDROOT
BRANCH   3  13
ATOM     12  O   UNL     1     113.992 128.988 141.134  0.00  0.00    +0.000 OA
ATOM     13  C   UNL     1     113.478 127.186 139.517  0.00  0.00    +0.000 A 
ATOM     14  C   UNL     1     113.283 127.968 139.338  0.00  0.00    +0.000 A 
ATOM     15  C   UNL     1     113.844 127.005 140.234  0.00  0.00    +0.000 A 
ATOM     16  C   UNL     1     113.455 128.568 139.878  0.00  0.00    +0.000 A 
ATOM     17  C   UNL     1     114.015 127.606 140.773  0.00  0.00    +0.000 A 
ATOM     18  C   UNL     1     113.820 128.388 140.594  0.00  0.00    +0.000 A 
BRANCH  14  19
ATOM     19  O   UNL     1     112.918 128.148 138.622  0.00  0.00    +0.000 OA
ATOM     20  C   UNL     1     113.176 128.794 138.178  0.00  0.00    +0.000 C 
ENDBRANCH  14  19
BRANCH  16  21
ATOM     21  O   UNL     1     113.260 129.350 139.699  0.00  0.00    +0.000 OA
ATOM     22  C   UNL     1     112.820 129.798 140.234  0.00  0.00    +0.000 C 
ENDBRANCH  16  21
ENDBRANCH   3  13
TORSDOF 3
ENDMDL
