MODEL 1
REMARK VINA RESULT:     -10.3      0.000      0.000
REMARK  Name = 44259272
REMARK  3 active torsions:
REMARK  status: ('A' for Active; 'I' for Inactive)
REMARK    1  A    between atoms: O_2  and  C_16
REMARK    2  A    between atoms: O_2  and  C_18
REMARK    3  A    between atoms: C_21  and  C_24
REMARK                            x       y       z     vdW  Elec       q    Type
REMARK                         _______ _______ _______ _____ _____    ______ ____
ROOT
ATOM      1  O   UNL     1     105.953 122.739 140.698  0.00  0.00    +0.000 OA
ATOM      2  C   UNL     1     105.622 124.126 140.606  0.00  0.00    +0.000 A 
ATOM      3  C   UNL     1     105.552 123.355 140.323  0.00  0.00    +0.000 A 
ATOM      4  C   UNL     1     105.221 124.742 140.231  0.00  0.00    +0.000 A 
ATOM      5  C   UNL     1     104.679 123.815 139.289  0.00  0.00    +0.000 A 
ATOM      6  C   UNL     1     105.080 123.199 139.664  0.00  0.00    +0.000 A 
ATOM      7  C   UNL     1     104.750 124.586 139.573  0.00  0.00    +0.000 A 
ENDROOT
BRANCH   5  13
ATOM      8  O   UNL     1     104.556 123.540 137.892  0.00  0.00    +0.000 OA
ATOM      9  O   UNL     1     103.038 123.742 139.447  0.00  0.00    +0.000 OA
ATOM     10  O   UNL     1     102.095 123.430 138.130  0.00  0.00    +0.000 OA
ATOM     11  O   UNL     1     101.943 123.151 136.723  0.00  0.00    +0.000 OA
ATOM     12  O   UNL     1     104.326 122.979 135.043  0.00  0.00    +0.000 OA
ATOM     13  C   UNL     1     104.208 123.659 138.630  0.00  0.00    +0.000 A 
ATOM     14  C   UNL     1     103.265 123.347 137.313  0.00  0.00    +0.000 A 
ATOM     15  C   UNL     1     104.085 123.384 137.233  0.00  0.00    +0.000 A 
ATOM     16  C   UNL     1     103.387 123.623 138.710  0.00  0.00    +0.000 A 
ATOM     17  C   UNL     1     102.915 123.467 138.050  0.00  0.00    +0.000 A 
ATOM     18  C   UNL     1     102.762 123.186 136.634  0.00  0.00    +0.000 A 
ATOM     19  C   UNL     1     104.460 123.261 136.470  0.00  0.00    +0.000 A 
ATOM     20  C   UNL     1     103.974 123.098 135.780  0.00  0.00    +0.000 A 
ATOM     21  C   UNL     1     103.119 123.060 135.863  0.00  0.00    +0.000 A 
ENDBRANCH   5  13
BRANCH   2  22
ATOM     22  O   UNL     1     106.094 124.282 141.266  0.00  0.00    +0.000 OA
BRANCH  22  31
ATOM     23  O   UNL     1     107.097 124.980 140.525  0.00  0.00    +0.000 OA
ATOM     24  O   UNL     1     107.593 126.372 142.511  0.00  0.00    +0.000 OA
ATOM     25  O   UNL     1     106.425 125.210 142.589  0.00  0.00    +0.000 OA
ATOM     26  O   UNL     1     108.431 126.606 141.109  0.00  0.00    +0.000 OA
ATOM     27  O   UNL     1     108.100 125.679 139.785  0.00  0.00    +0.000 OA
ATOM     28  C   UNL     1     107.428 125.908 141.849  0.00  0.00    +0.000 C 
ATOM     29  C   UNL     1     106.844 125.327 141.888  0.00  0.00    +0.000 C 
ATOM     30  C   UNL     1     107.847 126.025 141.148  0.00  0.00    +0.000 C 
ATOM     31  C   UNL     1     106.678 124.863 141.226  0.00  0.00    +0.000 C 
ATOM     32  C   UNL     1     107.681 125.561 140.486  0.00  0.00    +0.000 C 
ENDBRANCH  22  31
ENDBRANCH   2  22
TORSDOF 3
ENDMDL
MODEL 2
REMARK VINA RESULT:     -10.1      7.660      9.149
REMARK  Name = 44259272
REMARK  3 active torsions:
REMARK  status: ('A' for Active; 'I' for Inactive)
REMARK    1  A    between atoms: O_2  and  C_16
REMARK    2  A    between atoms: O_2  and  C_18
REMARK    3  A    between atoms: C_21  and  C_24
REMARK                            x       y       z     vdW  Elec       q    Type
REMARK                         _______ _______ _______ _____ _____    ______ ____
ROOT
ATOM      1  O   UNL     1     113.730 127.037 141.505  0.00  0.00    +0.000 OA
ATOM      2  C   UNL     1     113.211 128.058 140.651  0.00  0.00    +0.000 A 
ATOM      3  C   UNL     1     113.452 127.278 140.767  0.00  0.00    +0.000 A 
ATOM      4  C   UNL     1     112.933 128.299 139.913  0.00  0.00    +0.000 A 
ATOM      5  C   UNL     1     113.135 126.979 139.405  0.00  0.00    +0.000 A 
ATOM      6  C   UNL     1     113.414 126.738 140.143  0.00  0.00    +0.000 A 
ATOM      7  C   UNL     1     112.895 127.760 139.291  0.00  0.00    +0.000 A 
ENDROOT
BRANCH   5  13
ATOM      8  O   UNL     1     113.762 126.304 138.313  0.00  0.00    +0.000 OA
ATOM      9  O   UNL     1     111.730 126.170 139.099  0.00  0.00    +0.000 OA
ATOM     10  O   UNL     1     111.654 125.090 137.854  0.00  0.00    +0.000 OA
ATOM     11  O   UNL     1     112.262 124.395 136.746  0.00  0.00    +0.000 OA
ATOM     12  O   UNL     1     115.056 124.938 136.090  0.00  0.00    +0.000 OA
ATOM     13  C   UNL     1     113.097 126.440 138.783  0.00  0.00    +0.000 A 
ATOM     14  C   UNL     1     113.021 125.360 137.537  0.00  0.00    +0.000 A 
ATOM     15  C   UNL     1     113.724 125.764 137.690  0.00  0.00    +0.000 A 
ATOM     16  C   UNL     1     112.395 126.035 138.630  0.00  0.00    +0.000 A 
ATOM     17  C   UNL     1     112.357 125.495 138.007  0.00  0.00    +0.000 A 
ATOM     18  C   UNL     1     112.969 124.795 136.891  0.00  0.00    +0.000 A 
ATOM     19  C   UNL     1     114.423 125.632 137.208  0.00  0.00    +0.000 A 
ATOM     20  C   UNL     1     114.390 125.071 136.558  0.00  0.00    +0.000 A 
ATOM     21  C   UNL     1     113.657 124.650 136.399  0.00  0.00    +0.000 A 
ENDBRANCH   5  13
BRANCH   2  22
ATOM     22  O   UNL     1     113.249 128.598 141.275  0.00  0.00    +0.000 OA
BRANCH  22  31
ATOM     23  O   UNL     1     114.374 129.327 140.779  0.00  0.00    +0.000 OA
ATOM     24  O   UNL     1     113.416 131.421 141.686  0.00  0.00    +0.000 OA
ATOM     25  O   UNL     1     112.611 129.994 141.879  0.00  0.00    +0.000 OA
ATOM     26  O   UNL     1     114.860 131.452 140.888  0.00  0.00    +0.000 OA
ATOM     27  O   UNL     1     115.499 130.056 140.284  0.00  0.00    +0.000 OA
ATOM     28  C   UNL     1     113.736 130.723 141.384  0.00  0.00    +0.000 C 
ATOM     29  C   UNL     1     113.333 130.010 141.480  0.00  0.00    +0.000 C 
ATOM     30  C   UNL     1     114.458 130.738 140.985  0.00  0.00    +0.000 C 
ATOM     31  C   UNL     1     113.652 129.311 141.178  0.00  0.00    +0.000 C 
ATOM     32  C   UNL     1     114.777 130.041 140.683  0.00  0.00    +0.000 C 
ENDBRANCH  22  31
ENDBRANCH   2  22
TORSDOF 3
ENDMDL
MODEL 3
REMARK VINA RESULT:      -9.9      5.066      8.125
REMARK  Name = 44259272
REMARK  3 active torsions:
REMARK  status: ('A' for Active; 'I' for Inactive)
REMARK    1  A    between atoms: O_2  and  C_16
REMARK    2  A    between atoms: O_2  and  C_18
REMARK    3  A    between atoms: C_21  and  C_24
REMARK                            x       y       z     vdW  Elec       q    Type
REMARK                         _______ _______ _______ _____ _____    ______ ____
ROOT
ATOM      1  O   UNL     1     105.509 124.509 143.763  0.00  0.00    +0.000 OA
ATOM      2  C   UNL     1     105.679 125.899 144.051  0.00  0.00    +0.000 A 
ATOM      3  C   UNL     1     105.665 125.113 144.303  0.00  0.00    +0.000 A 
ATOM      4  C   UNL     1     105.834 126.503 144.591  0.00  0.00    +0.000 A 
ATOM      5  C   UNL     1     105.962 125.536 145.636  0.00  0.00    +0.000 A 
ATOM      6  C   UNL     1     105.807 124.932 145.096  0.00  0.00    +0.000 A 
ATOM      7  C   UNL     1     105.976 126.321 145.383  0.00  0.00    +0.000 A 
ENDROOT
BRANCH   5  13
ATOM      8  O   UNL     1     105.471 125.248 146.946  0.00  0.00    +0.000 OA
ATOM      9  O   UNL     1     107.511 125.385 146.183  0.00  0.00    +0.000 OA
ATOM     10  O   UNL     1     107.795 125.022 147.767  0.00  0.00    +0.000 OA
ATOM     11  O   UNL     1     107.326 124.729 149.099  0.00  0.00    +0.000 OA
ATOM     12  O   UNL     1     104.452 124.664 149.611  0.00  0.00    +0.000 OA
ATOM     13  C   UNL     1     106.104 125.355 146.427  0.00  0.00    +0.000 A 
ATOM     14  C   UNL     1     106.387 124.991 148.012  0.00  0.00    +0.000 A 
ATOM     15  C   UNL     1     105.613 125.067 147.738  0.00  0.00    +0.000 A 
ATOM     16  C   UNL     1     106.878 125.279 146.701  0.00  0.00    +0.000 A 
ATOM     17  C   UNL     1     107.020 125.097 147.494  0.00  0.00    +0.000 A 
ATOM     18  C   UNL     1     106.549 124.802 148.835  0.00  0.00    +0.000 A 
ATOM     19  C   UNL     1     104.945 124.959 148.269  0.00  0.00    +0.000 A 
ATOM     20  C   UNL     1     105.086 124.769 149.095  0.00  0.00    +0.000 A 
ATOM     21  C   UNL     1     105.894 124.691 149.380  0.00  0.00    +0.000 A 
ENDBRANCH   5  13
BRANCH   2  22
ATOM     22  O   UNL     1     105.537 126.080 143.258  0.00  0.00    +0.000 OA
BRANCH  22  31
ATOM     23  O   UNL     1     106.874 126.439 142.901  0.00  0.00    +0.000 OA
ATOM     24  O   UNL     1     106.003 128.290 141.507  0.00  0.00    +0.000 OA
ATOM     25  O   UNL     1     104.957 127.314 142.329  0.00  0.00    +0.000 OA
ATOM     26  O   UNL     1     107.629 128.032 141.614  0.00  0.00    +0.000 OA
ATOM     27  O   UNL     1     108.209 126.798 142.543  0.00  0.00    +0.000 OA
ATOM     28  C   UNL     1     106.293 127.672 141.972  0.00  0.00    +0.000 C 
ATOM     29  C   UNL     1     105.770 127.185 142.382  0.00  0.00    +0.000 C 
ATOM     30  C   UNL     1     107.106 127.543 142.025  0.00  0.00    +0.000 C 
ATOM     31  C   UNL     1     106.060 126.568 142.847  0.00  0.00    +0.000 C 
ATOM     32  C   UNL     1     107.396 126.927 142.489  0.00  0.00    +0.000 C 
ENDBRANCH  22  31
ENDBRANCH   2  22
TORSDOF 3
ENDMDL
MODEL 4
REMARK VINA RESULT:      -9.9      6.303      8.231
REMARK  Name = 44259272
REMARK  3 active torsions:
REMARK  status: ('A' for Active; 'I' for Inactive)
REMARK    1  A    between atoms: O_2  and  C_16
REMARK    2  A    between atoms: O_2  and  C_18
REMARK    3  A    between atoms: C_21  and  C_24
REMARK                            x       y       z     vdW  Elec       q    Type
REMARK                         _______ _______ _______ _____ _____    ______ ____
ROOT
ATOM      1  O   UNL     1     109.230 127.364 138.102  0.00  0.00    +0.000 OA
ATOM      2  C   UNL     1     109.575 127.708 136.759  0.00  0.00    +0.000 A 
ATOM      3  C   UNL     1     109.701 127.251 137.434  0.00  0.00    +0.000 A 
ATOM      4  C   UNL     1     110.046 127.595 136.091  0.00  0.00    +0.000 A 
ATOM      5  C   UNL     1     110.770 126.569 136.774  0.00  0.00    +0.000 A 
ATOM      6  C   UNL     1     110.299 126.682 137.442  0.00  0.00    +0.000 A 
ATOM      7  C   UNL     1     110.643 127.027 136.098  0.00  0.00    +0.000 A 
ENDROOT
BRANCH   5  13
ATOM      8  O   UNL     1     112.092 126.167 137.138  0.00  0.00    +0.000 OA
ATOM      9  O   UNL     1     110.515 125.097 136.075  0.00  0.00    +0.000 OA
ATOM     10  O   UNL     1     111.709 123.958 136.090  0.00  0.00    +0.000 OA
ATOM     11  O   UNL     1     113.039 123.528 136.446  0.00  0.00    +0.000 OA
ATOM     12  O   UNL     1     114.789 125.366 137.890  0.00  0.00    +0.000 OA
ATOM     13  C   UNL     1     111.367 126.001 136.781  0.00  0.00    +0.000 A 
ATOM     14  C   UNL     1     112.561 124.862 136.797  0.00  0.00    +0.000 A 
ATOM     15  C   UNL     1     112.689 125.599 137.146  0.00  0.00    +0.000 A 
ATOM     16  C   UNL     1     111.239 125.264 136.432  0.00  0.00    +0.000 A 
ATOM     17  C   UNL     1     111.837 124.695 136.439  0.00  0.00    +0.000 A 
ATOM     18  C   UNL     1     113.175 124.260 136.798  0.00  0.00    +0.000 A 
ATOM     19  C   UNL     1     113.439 125.785 137.521  0.00  0.00    +0.000 A 
ATOM     20  C   UNL     1     114.065 125.196 137.532  0.00  0.00    +0.000 A 
ATOM     21  C   UNL     1     113.932 124.429 137.168  0.00  0.00    +0.000 A 
ENDBRANCH   5  13
BRANCH   2  22
ATOM     22  O   UNL     1     108.977 128.277 136.751  0.00  0.00    +0.000 OA
BRANCH  22  31
ATOM     23  O   UNL     1     109.831 129.423 136.782  0.00  0.00    +0.000 OA
ATOM     24  O   UNL     1     108.283 130.615 135.261  0.00  0.00    +0.000 OA
ATOM     25  O   UNL     1     107.946 129.071 135.738  0.00  0.00    +0.000 OA
ATOM     26  O   UNL     1     109.652 131.364 135.798  0.00  0.00    +0.000 OA
ATOM     27  O   UNL     1     110.683 130.569 136.812  0.00  0.00    +0.000 OA
ATOM     28  C   UNL     1     108.799 130.217 135.768  0.00  0.00    +0.000 C 
ATOM     29  C   UNL     1     108.630 129.446 136.006  0.00  0.00    +0.000 C 
ATOM     30  C   UNL     1     109.484 130.592 136.037  0.00  0.00    +0.000 C 
ATOM     31  C   UNL     1     109.147 129.048 136.513  0.00  0.00    +0.000 C 
ATOM     32  C   UNL     1     109.999 130.195 136.543  0.00  0.00    +0.000 C 
ENDBRANCH  22  31
ENDBRANCH   2  22
TORSDOF 3
ENDMDL
MODEL 5
REMARK VINA RESULT:      -9.6      5.271      6.797
REMARK  Name = 44259272
REMARK  3 active torsions:
REMARK  status: ('A' for Active; 'I' for Inactive)
REMARK    1  A    between atoms: O_2  and  C_16
REMARK    2  A    between atoms: O_2  and  C_18
REMARK    3  A    between atoms: C_21  and  C_24
REMARK                            x       y       z     vdW  Elec       q    Type
REMARK                         _______ _______ _______ _____ _____    ______ ____
ROOT
ATOM      1  O   UNL     1     107.576 127.793 144.496  0.00  0.00    +0.000 OA
ATOM      2  C   UNL     1     106.521 126.853 144.711  0.00  0.00    +0.000 A 
ATOM      3  C   UNL     1     106.811 127.528 144.336  0.00  0.00    +0.000 A 
ATOM      4  C   UNL     1     105.756 126.588 144.551  0.00  0.00    +0.000 A 
ATOM      5  C   UNL     1     105.571 127.673 143.640  0.00  0.00    +0.000 A 
ATOM      6  C   UNL     1     106.336 127.938 143.800  0.00  0.00    +0.000 A 
ATOM      7  C   UNL     1     105.282 126.998 144.016  0.00  0.00    +0.000 A 
ENDROOT
BRANCH   5  13
ATOM      8  O   UNL     1     104.655 128.733 143.357  0.00  0.00    +0.000 OA
ATOM      9  O   UNL     1     105.503 127.193 142.063  0.00  0.00    +0.000 OA
ATOM     10  O   UNL     1     104.553 128.014 140.991  0.00  0.00    +0.000 OA
ATOM     11  O   UNL     1     103.629 129.075 140.678  0.00  0.00    +0.000 OA
ATOM     12  O   UNL     1     102.791 130.899 142.799  0.00  0.00    +0.000 OA
ATOM     13  C   UNL     1     105.097 128.083 143.104  0.00  0.00    +0.000 A 
ATOM     14  C   UNL     1     104.147 128.903 142.033  0.00  0.00    +0.000 A 
ATOM     15  C   UNL     1     104.181 129.143 142.821  0.00  0.00    +0.000 A 
ATOM     16  C   UNL     1     105.063 127.843 142.316  0.00  0.00    +0.000 A 
ATOM     17  C   UNL     1     104.587 128.254 141.779  0.00  0.00    +0.000 A 
ATOM     18  C   UNL     1     103.656 129.322 141.464  0.00  0.00    +0.000 A 
ATOM     19  C   UNL     1     103.726 129.819 143.097  0.00  0.00    +0.000 A 
ATOM     20  C   UNL     1     103.230 130.250 142.544  0.00  0.00    +0.000 A 
ATOM     21  C   UNL     1     103.195 130.000 141.721  0.00  0.00    +0.000 A 
ENDBRANCH   5  13
BRANCH   2  22
ATOM     22  O   UNL     1     106.996 126.443 145.247  0.00  0.00    +0.000 OA
BRANCH  22  31
ATOM     23  O   UNL     1     106.417 126.900 146.471  0.00  0.00    +0.000 OA
ATOM     24  O   UNL     1     106.490 124.593 147.366  0.00  0.00    +0.000 OA
ATOM     25  O   UNL     1     107.045 124.905 145.844  0.00  0.00    +0.000 OA
ATOM     26  O   UNL     1     105.887 125.818 148.292  0.00  0.00    +0.000 OA
ATOM     27  O   UNL     1     105.839 127.356 147.696  0.00  0.00    +0.000 OA
ATOM     28  C   UNL     1     106.466 125.362 147.068  0.00  0.00    +0.000 C 
ATOM     29  C   UNL     1     106.743 125.518 146.307  0.00  0.00    +0.000 C 
ATOM     30  C   UNL     1     106.164 125.975 147.531  0.00  0.00    +0.000 C 
ATOM     31  C   UNL     1     106.719 126.287 146.008  0.00  0.00    +0.000 C 
ATOM     32  C   UNL     1     106.140 126.743 147.233  0.00  0.00    +0.000 C 
ENDBRANCH  22  31
ENDBRANCH   2  22
TORSDOF 3
ENDMDL
MODEL 6
REMARK VINA RESULT:      -9.6      5.504      7.206
REMARK  Name = 44259272
REMARK  3 active torsions:
REMARK  status: ('A' for Active; 'I' for Inactive)
REMARK    1  A    between atoms: O_2  and  C_16
REMARK    2  A    between atoms: O_2  and  C_18
REMARK    3  A    between atoms: C_21  and  C_24
REMARK                            x       y       z     vdW  Elec       q    Type
REMARK                         _______ _______ _______ _____ _____    ______ ____
ROOT
ATOM      1  O   UNL     1     103.949 127.811 140.802  0.00  0.00    +0.000 OA
ATOM      2  C   UNL     1     104.543 128.199 142.043  0.00  0.00    +0.000 A 
ATOM      3  C   UNL     1     104.096 128.386 141.375  0.00  0.00    +0.000 A 
ATOM      4  C   UNL     1     104.690 128.774 142.616  0.00  0.00    +0.000 A 
ATOM      5  C   UNL     1     103.941 129.724 141.855  0.00  0.00    +0.000 A 
ATOM      6  C   UNL     1     103.795 129.149 141.282  0.00  0.00    +0.000 A 
ATOM      7  C   UNL     1     104.389 129.535 142.522  0.00  0.00    +0.000 A 
ENDROOT
BRANCH   5  13
ATOM      8  O   UNL     1     102.881 130.666 142.029  0.00  0.00    +0.000 OA
ATOM      9  O   UNL     1     104.858 130.889 141.131  0.00  0.00    +0.000 OA
ATOM     10  O   UNL     1     104.257 132.414 140.943  0.00  0.00    +0.000 OA
ATOM     11  O   UNL     1     103.203 133.385 141.106  0.00  0.00    +0.000 OA
ATOM     12  O   UNL     1     100.710 132.573 142.393  0.00  0.00    +0.000 OA
ATOM     13  C   UNL     1     103.641 130.486 141.761  0.00  0.00    +0.000 A 
ATOM     14  C   UNL     1     103.039 132.011 141.573  0.00  0.00    +0.000 A 
ATOM     15  C   UNL     1     102.581 131.428 141.935  0.00  0.00    +0.000 A 
ATOM     16  C   UNL     1     104.099 131.068 141.399  0.00  0.00    +0.000 A 
ATOM     17  C   UNL     1     103.798 131.831 141.305  0.00  0.00    +0.000 A 
ATOM     18  C   UNL     1     102.737 132.809 141.469  0.00  0.00    +0.000 A 
ATOM     19  C   UNL     1     101.788 131.603 142.219  0.00  0.00    +0.000 A 
ATOM     20  C   UNL     1     101.470 132.395 142.124  0.00  0.00    +0.000 A 
ATOM     21  C   UNL     1     101.947 133.003 141.746  0.00  0.00    +0.000 A 
ENDBRANCH   5  13
BRANCH   2  22
ATOM     22  O   UNL     1     104.844 127.436 142.136  0.00  0.00    +0.000 OA
BRANCH  22  31
ATOM     23  O   UNL     1     106.204 127.732 141.812  0.00  0.00    +0.000 OA
ATOM     24  O   UNL     1     106.964 126.176 143.581  0.00  0.00    +0.000 OA
ATOM     25  O   UNL     1     105.351 126.399 143.316  0.00  0.00    +0.000 OA
ATOM     26  O   UNL     1     108.070 126.990 142.667  0.00  0.00    +0.000 OA
ATOM     27  O   UNL     1     107.564 128.027 141.488  0.00  0.00    +0.000 OA
ATOM     28  C   UNL     1     106.710 126.695 142.991  0.00  0.00    +0.000 C 
ATOM     29  C   UNL     1     105.904 126.806 142.859  0.00  0.00    +0.000 C 
ATOM     30  C   UNL     1     107.264 127.102 142.534  0.00  0.00    +0.000 C 
ATOM     31  C   UNL     1     105.651 127.325 142.268  0.00  0.00    +0.000 C 
ATOM     32  C   UNL     1     107.010 127.620 141.945  0.00  0.00    +0.000 C 
ENDBRANCH  22  31
ENDBRANCH   2  22
TORSDOF 3
ENDMDL
MODEL 7
REMARK VINA RESULT:      -9.6      7.913      9.132
REMARK  Name = 44259272
REMARK  3 active torsions:
REMARK  status: ('A' for Active; 'I' for Inactive)
REMARK    1  A    between atoms: O_2  and  C_16
REMARK    2  A    between atoms: O_2  and  C_18
REMARK    3  A    between atoms: C_21  and  C_24
REMARK                            x       y       z     vdW  Elec       q    Type
REMARK                         _______ _______ _______ _____ _____    ______ ____
ROOT
ATOM      1  O   UNL     1     112.259 129.093 134.615  0.00  0.00    +0.000 OA
ATOM      2  C   UNL     1     111.441 129.045 135.786  0.00  0.00    +0.000 A 
ATOM      3  C   UNL     1     111.974 128.682 135.272  0.00  0.00    +0.000 A 
ATOM      4  C   UNL     1     111.156 128.635 136.443  0.00  0.00    +0.000 A 
ATOM      5  C   UNL     1     111.937 127.497 136.071  0.00  0.00    +0.000 A 
ATOM      6  C   UNL     1     112.222 127.908 135.415  0.00  0.00    +0.000 A 
ATOM      7  C   UNL     1     111.404 127.861 136.585  0.00  0.00    +0.000 A 
ENDROOT
BRANCH   5  13
ATOM      8  O   UNL     1     112.926 126.583 136.547  0.00  0.00    +0.000 OA
ATOM      9  O   UNL     1     110.951 126.231 135.687  0.00  0.00    +0.000 OA
ATOM     10  O   UNL     1     111.447 124.684 135.971  0.00  0.00    +0.000 OA
ATOM     11  O   UNL     1     112.429 123.739 136.445  0.00  0.00    +0.000 OA
ATOM     12  O   UNL     1     114.954 124.734 137.523  0.00  0.00    +0.000 OA
ATOM     13  C   UNL     1     112.185 126.724 136.213  0.00  0.00    +0.000 A 
ATOM     14  C   UNL     1     112.681 125.176 136.497  0.00  0.00    +0.000 A 
ATOM     15  C   UNL     1     113.174 125.809 136.690  0.00  0.00    +0.000 A 
ATOM     16  C   UNL     1     111.692 126.091 136.021  0.00  0.00    +0.000 A 
ATOM     17  C   UNL     1     111.940 125.317 136.163  0.00  0.00    +0.000 A 
ATOM     18  C   UNL     1     112.928 124.365 136.641  0.00  0.00    +0.000 A 
ATOM     19  C   UNL     1     113.948 125.675 137.038  0.00  0.00    +0.000 A 
ATOM     20  C   UNL     1     114.212 124.872 137.189  0.00  0.00    +0.000 A 
ATOM     21  C   UNL     1     113.698 124.212 136.988  0.00  0.00    +0.000 A 
ENDBRANCH   5  13
BRANCH   2  22
ATOM     22  O   UNL     1     111.193 129.820 135.644  0.00  0.00    +0.000 OA
BRANCH  22  31
ATOM     23  O   UNL     1     111.864 130.446 136.739  0.00  0.00    +0.000 OA
ATOM     24  O   UNL     1     109.891 131.892 137.120  0.00  0.00    +0.000 OA
ATOM     25  O   UNL     1     109.878 130.783 135.898  0.00  0.00    +0.000 OA
ATOM     26  O   UNL     1     111.219 132.036 138.088  0.00  0.00    +0.000 OA
ATOM     27  O   UNL     1     112.534 131.072 137.834  0.00  0.00    +0.000 OA
ATOM     28  C   UNL     1     110.549 131.410 136.993  0.00  0.00    +0.000 C 
ATOM     29  C   UNL     1     110.542 130.856 136.382  0.00  0.00    +0.000 C 
ATOM     30  C   UNL     1     111.213 131.482 137.477  0.00  0.00    +0.000 C 
ATOM     31  C   UNL     1     111.200 130.373 136.255  0.00  0.00    +0.000 C 
ATOM     32  C   UNL     1     111.870 131.000 137.350  0.00  0.00    +0.000 C 
ENDBRANCH  22  31
ENDBRANCH   2  22
TORSDOF 3
ENDMDL
MODEL 8
REMARK VINA RESULT:      -9.4      6.718      7.985
REMARK  Name = 44259272
REMARK  3 active torsions:
REMARK  status: ('A' for Active; 'I' for Inactive)
REMARK    1  A    between atoms: O_2  and  C_16
REMARK    2  A    between atoms: O_2  and  C_18
REMARK    3  A    between atoms: C_21  and  C_24
REMARK                            x       y       z     vdW  Elec       q    Type
REMARK                         _______ _______ _______ _____ _____    ______ ____
ROOT
ATOM      1  O   UNL     1     110.782 125.563 134.612  0.00  0.00    +0.000 OA
ATOM      2  C   UNL     1     110.867 125.625 136.037  0.00  0.00    +0.000 A 
ATOM      3  C   UNL     1     110.653 125.969 135.318  0.00  0.00    +0.000 A 
ATOM      4  C   UNL     1     110.738 126.031 136.744  0.00  0.00    +0.000 A 
ATOM      5  C   UNL     1     110.183 127.127 136.013  0.00  0.00    +0.000 A 
ATOM      6  C   UNL     1     110.311 126.720 135.306  0.00  0.00    +0.000 A 
ATOM      7  C   UNL     1     110.396 126.782 136.731  0.00  0.00    +0.000 A 
ENDROOT
BRANCH   5  13
ATOM      8  O   UNL     1     110.315 128.548 136.077  0.00  0.00    +0.000 OA
ATOM      9  O   UNL     1     108.550 127.286 135.836  0.00  0.00    +0.000 OA
ATOM     10  O   UNL     1     107.865 128.787 135.811  0.00  0.00    +0.000 OA
ATOM     11  O   UNL     1     107.971 130.225 135.872  0.00  0.00    +0.000 OA
ATOM     12  O   UNL     1     110.603 131.443 136.209  0.00  0.00    +0.000 OA
ATOM     13  C   UNL     1     109.841 127.877 136.001  0.00  0.00    +0.000 A 
ATOM     14  C   UNL     1     109.156 129.378 135.976  0.00  0.00    +0.000 A 
ATOM     15  C   UNL     1     109.973 129.298 136.064  0.00  0.00    +0.000 A 
ATOM     16  C   UNL     1     109.024 127.956 135.912  0.00  0.00    +0.000 A 
ATOM     17  C   UNL     1     108.682 128.708 135.900  0.00  0.00    +0.000 A 
ATOM     18  C   UNL     1     108.787 130.155 135.961  0.00  0.00    +0.000 A 
ATOM     19  C   UNL     1     110.477 129.990 136.144  0.00  0.00    +0.000 A 
ATOM     20  C   UNL     1     110.127 130.774 136.132  0.00  0.00    +0.000 A 
ATOM     21  C   UNL     1     109.276 130.857 136.040  0.00  0.00    +0.000 A 
ENDBRANCH   5  13
BRANCH   2  22
ATOM     22  O   UNL     1     111.209 124.874 136.049  0.00  0.00    +0.000 OA
BRANCH  22  31
ATOM     23  O   UNL     1     112.535 125.368 136.246  0.00  0.00    +0.000 OA
ATOM     24  O   UNL     1     113.135 123.282 137.437  0.00  0.00    +0.000 OA
ATOM     25  O   UNL     1     111.608 123.484 136.843  0.00  0.00    +0.000 OA
ATOM     26  O   UNL     1     114.261 124.471 137.237  0.00  0.00    +0.000 OA
ATOM     27  O   UNL     1     113.862 125.861 136.444  0.00  0.00    +0.000 OA
ATOM     28  C   UNL     1     112.935 123.978 137.040  0.00  0.00    +0.000 C 
ATOM     29  C   UNL     1     112.172 124.078 136.743  0.00  0.00    +0.000 C 
ATOM     30  C   UNL     1     113.498 124.572 136.940  0.00  0.00    +0.000 C 
ATOM     31  C   UNL     1     111.972 124.774 136.346  0.00  0.00    +0.000 C 
ATOM     32  C   UNL     1     113.298 125.267 136.543  0.00  0.00    +0.000 C 
ENDBRANCH  22  31
ENDBRANCH   2  22
TORSDOF 3
ENDMDL
MODEL 9
REMARK VINA RESULT:      -9.4      5.591      7.008
REMARK  Name = 44259272
REMARK  3 active torsions:
REMARK  status: ('A' for Active; 'I' for Inactive)
REMARK    1  A    between atoms: O_2  and  C_16
REMARK    2  A    between atoms: O_2  and  C_18
REMARK    3  A    between atoms: C_21  and  C_24
REMARK                            x       y       z     vdW  Elec       q    Type
REMARK                         _______ _______ _______ _____ _____    ______ ____
ROOT
ATOM      1  O   UNL     1     106.036 124.243 144.729  0.00  0.00    +0.000 OA
ATOM      2  C   UNL     1     105.847 125.271 145.703  0.00  0.00    +0.000 A 
ATOM      3  C   UNL     1     105.964 125.042 144.919  0.00  0.00    +0.000 A 
ATOM      4  C   UNL     1     105.775 126.071 145.893  0.00  0.00    +0.000 A 
ATOM      5  C   UNL     1     105.937 126.413 144.515  0.00  0.00    +0.000 A 
ATOM      6  C   UNL     1     106.009 125.614 144.325  0.00  0.00    +0.000 A 
ATOM      7  C   UNL     1     105.820 126.641 145.300  0.00  0.00    +0.000 A 
ENDROOT
BRANCH   5  13
ATOM      8  O   UNL     1     105.294 127.251 143.553  0.00  0.00    +0.000 OA
ATOM      9  O   UNL     1     107.403 127.020 144.064  0.00  0.00    +0.000 OA
ATOM     10  O   UNL     1     107.493 128.162 142.877  0.00  0.00    +0.000 OA
ATOM     11  O   UNL     1     106.870 129.018 141.898  0.00  0.00    +0.000 OA
ATOM     12  O   UNL     1     103.966 128.952 141.597  0.00  0.00    +0.000 OA
ATOM     13  C   UNL     1     105.982 126.984 143.922  0.00  0.00    +0.000 A 
ATOM     14  C   UNL     1     106.072 128.125 142.734  0.00  0.00    +0.000 A 
ATOM     15  C   UNL     1     105.339 127.822 142.960  0.00  0.00    +0.000 A 
ATOM     16  C   UNL     1     106.715 127.287 143.696  0.00  0.00    +0.000 A 
ATOM     17  C   UNL     1     106.760 127.859 143.102  0.00  0.00    +0.000 A 
ATOM     18  C   UNL     1     106.133 128.721 142.116  0.00  0.00    +0.000 A 
ATOM     19  C   UNL     1     104.615 128.092 142.583  0.00  0.00    +0.000 A 
ATOM     20  C   UNL     1     104.655 128.687 141.964  0.00  0.00    +0.000 A 
ATOM     21  C   UNL     1     105.420 129.003 141.729  0.00  0.00    +0.000 A 
ENDBRANCH   5  13
BRANCH   2  22
ATOM     22  O   UNL     1     105.802 124.700 146.297  0.00  0.00    +0.000 OA
BRANCH  22  31
ATOM     23  O   UNL     1     107.073 124.970 146.891  0.00  0.00    +0.000 OA
ATOM     24  O   UNL     1     106.115 124.546 149.134  0.00  0.00    +0.000 OA
ATOM     25  O   UNL     1     105.163 124.417 147.792  0.00  0.00    +0.000 OA
ATOM     26  O   UNL     1     107.706 124.957 148.980  0.00  0.00    +0.000 OA
ATOM     27  O   UNL     1     108.344 125.240 147.485  0.00  0.00    +0.000 OA
ATOM     28  C   UNL     1     106.435 124.687 148.386  0.00  0.00    +0.000 C 
ATOM     29  C   UNL     1     105.958 124.623 147.715  0.00  0.00    +0.000 C 
ATOM     30  C   UNL     1     107.230 124.893 148.309  0.00  0.00    +0.000 C 
ATOM     31  C   UNL     1     106.278 124.764 146.967  0.00  0.00    +0.000 C 
ATOM     32  C   UNL     1     107.549 125.034 147.562  0.00  0.00    +0.000 C 
ENDBRANCH  22  31
ENDBRANCH   2  22
TORSDOF 3
ENDMDL
MODEL 10
REMARK VINA RESULT:      -9.3      6.434      8.102
REMARK  Name = 44259272
REMARK  3 active torsions:
REMARK  status: ('A' for Active; 'I' for Inactive)
REMARK    1  A    between atoms: O_2  and  C_16
REMARK    2  A    between atoms: O_2  and  C_18
REMARK    3  A    between atoms: C_21  and  C_24
REMARK                            x       y       z     vdW  Elec       q    Type
REMARK                         _______ _______ _______ _____ _____    ______ ____
ROOT
ATOM      1  O   UNL     1     107.763 128.615 135.725  0.00  0.00    +0.000 OA
ATOM      2  C   UNL     1     109.042 129.223 135.533  0.00  0.00    +0.000 A 
ATOM      3  C   UNL     1     108.586 128.559 135.712  0.00  0.00    +0.000 A 
ATOM      4  C   UNL     1     109.865 129.168 135.520  0.00  0.00    +0.000 A 
ATOM      5  C   UNL     1     109.778 127.785 135.868  0.00  0.00    +0.000 A 
ATOM      6  C   UNL     1     108.954 127.840 135.880  0.00  0.00    +0.000 A 
ATOM      7  C   UNL     1     110.232 128.449 135.688  0.00  0.00    +0.000 A 
ENDROOT
BRANCH   5  13
ATOM      8  O   UNL     1     110.329 126.867 136.815  0.00  0.00    +0.000 OA
ATOM      9  O   UNL     1     110.146 126.742 134.643  0.00  0.00    +0.000 OA
ATOM     10  O   UNL     1     110.882 125.303 134.978  0.00  0.00    +0.000 OA
ATOM     11  O   UNL     1     111.444 124.360 135.913  0.00  0.00    +0.000 OA
ATOM     12  O   UNL     1     111.447 125.010 138.759  0.00  0.00    +0.000 OA
ATOM     13  C   UNL     1     110.145 127.066 136.035  0.00  0.00    +0.000 A 
ATOM     14  C   UNL     1     110.880 125.627 136.370  0.00  0.00    +0.000 A 
ATOM     15  C   UNL     1     110.696 126.148 136.982  0.00  0.00    +0.000 A 
ATOM     16  C   UNL     1     110.329 126.545 135.423  0.00  0.00    +0.000 A 
ATOM     17  C   UNL     1     110.697 125.825 135.590  0.00  0.00    +0.000 A 
ATOM     18  C   UNL     1     111.264 124.874 136.531  0.00  0.00    +0.000 A 
ATOM     19  C   UNL     1     110.882 125.953 137.798  0.00  0.00    +0.000 A 
ATOM     20  C   UNL     1     111.265 125.206 137.979  0.00  0.00    +0.000 A 
ATOM     21  C   UNL     1     111.457 124.662 137.340  0.00  0.00    +0.000 A 
ENDBRANCH   5  13
BRANCH   2  22
ATOM     22  O   UNL     1     108.674 129.943 135.365  0.00  0.00    +0.000 OA
BRANCH  22  31
ATOM     23  O   UNL     1     108.861 130.567 136.637  0.00  0.00    +0.000 OA
ATOM     24  O   UNL     1     109.380 132.708 135.507  0.00  0.00    +0.000 OA
ATOM     25  O   UNL     1     109.020 131.370 134.612  0.00  0.00    +0.000 OA
ATOM     26  O   UNL     1     109.394 132.620 137.155  0.00  0.00    +0.000 OA
ATOM     27  O   UNL     1     109.048 131.193 137.908  0.00  0.00    +0.000 OA
ATOM     28  C   UNL     1     109.207 131.994 135.884  0.00  0.00    +0.000 C 
ATOM     29  C   UNL     1     109.027 131.326 135.436  0.00  0.00    +0.000 C 
ATOM     30  C   UNL     1     109.214 131.950 136.708  0.00  0.00    +0.000 C 
ATOM     31  C   UNL     1     108.854 130.612 135.813  0.00  0.00    +0.000 C 
ATOM     32  C   UNL     1     109.041 131.237 137.084  0.00  0.00    +0.000 C 
ENDBRANCH  22  31
ENDBRANCH   2  22
TORSDOF 3
ENDMDL
