MODEL 1
REMARK VINA RESULT:      -9.6      0.000      0.000
REMARK  Name = null
REMARK  3 active torsions:
REMARK  status: ('A' for Active; 'I' for Inactive)
REMARK    1  A    between atoms: C_6  and  C_7
REMARK    2  A    between atoms: C_14  and  C_20
REMARK    3  A    between atoms: C_24  and  C_26
REMARK                            x       y       z     vdW  Elec       q    Type
REMARK                         _______ _______ _______ _____ _____    ______ ____
ROOT
ATOM      1  C   UNL     1     111.200 125.589 136.321  0.00  0.00    +0.000 A 
ATOM      2  C   UNL     1     111.199 124.768 136.225  0.00  0.00    +0.000 A 
ATOM      3  C   UNL     1     111.871 124.330 136.419  0.00  0.00    +0.000 A 
ATOM      4  O   UNL     1     111.870 123.511 136.323  0.00  0.00    +0.000 OA
ATOM      5  C   UNL     1     112.543 124.710 136.708  0.00  0.00    +0.000 A 
ATOM      6  C   UNL     1     112.544 125.531 136.804  0.00  0.00    +0.000 A 
ATOM      7  O   UNL     1     111.872 125.969 136.611  0.00  0.00    +0.000 OA
ATOM      8  C   UNL     1     113.216 125.911 137.093  0.00  0.00    +0.000 A 
ATOM      9  C   UNL     1     113.887 125.473 137.286  0.00  0.00    +0.000 A 
ATOM     10  C   UNL     1     113.886 124.652 137.190  0.00  0.00    +0.000 A 
ATOM     11  C   UNL     1     113.214 124.272 136.901  0.00  0.00    +0.000 A 
ATOM     12  O   UNL     1     113.213 123.453 136.805  0.00  0.00    +0.000 OA
ATOM     13  O   UNL     1     114.560 125.853 137.575  0.00  0.00    +0.000 OA
ENDROOT
BRANCH   8  14
ATOM     14  C   UNL     1     113.217 126.730 137.189  0.00  0.00    +0.000 C 
ATOM     15  C   UNL     1     113.075 127.059 137.932  0.00  0.00    +0.000 C 
ATOM     16  C   UNL     1     113.076 127.878 138.027  0.00  0.00    +0.000 C 
ATOM     17  C   UNL     1     113.219 128.369 137.381  0.00  0.00    +0.000 C 
ATOM     18  C   UNL     1     113.362 128.040 136.638  0.00  0.00    +0.000 C 
ATOM     19  O   UNL     1     113.361 127.222 136.542  0.00  0.00    +0.000 OA
ATOM     20  O   UNL     1     113.220 129.188 137.477  0.00  0.00    +0.000 OA
ATOM     21  O   UNL     1     112.934 128.206 138.771  0.00  0.00    +0.000 OA
ATOM     22  O   UNL     1     112.932 126.568 138.579  0.00  0.00    +0.000 OA
BRANCH  18  23
ATOM     23  C   UNL     1     113.505 128.531 135.990  0.00  0.00    +0.000 C 
ATOM     24  O   UNL     1     114.156 128.393 135.503  0.00  0.00    +0.000 OA
ENDBRANCH  18  23
ENDBRANCH   8  14
BRANCH   1  30
ATOM     25  C   UNL     1     109.988 126.234 136.715  0.00  0.00    +0.000 A 
ATOM     26  C   UNL     1     109.316 126.673 136.523  0.00  0.00    +0.000 A 
ATOM     27  C   UNL     1     109.185 126.904 135.742  0.00  0.00    +0.000 A 
ATOM     28  C   UNL     1     109.726 126.697 135.153  0.00  0.00    +0.000 A 
ATOM     29  C   UNL     1     110.398 126.258 135.347  0.00  0.00    +0.000 A 
ATOM     30  C   UNL     1     110.528 126.027 136.128  0.00  0.00    +0.000 A 
ATOM     31  O   UNL     1     108.514 127.342 135.548  0.00  0.00    +0.000 OA
ENDBRANCH   1  30
TORSDOF 3
ENDMDL
MODEL 2
REMARK VINA RESULT:      -9.6     11.507     12.616
REMARK  Name = null
REMARK  3 active torsions:
REMARK  status: ('A' for Active; 'I' for Inactive)
REMARK    1  A    between atoms: C_6  and  C_7
REMARK    2  A    between atoms: C_14  and  C_20
REMARK    3  A    between atoms: C_24  and  C_26
REMARK                            x       y       z     vdW  Elec       q    Type
REMARK                         _______ _______ _______ _____ _____    ______ ____
ROOT
ATOM      1  C   UNL     1     104.578 124.780 147.958  0.00  0.00    +0.000 A 
ATOM      2  C   UNL     1     104.841 124.499 148.688  0.00  0.00    +0.000 A 
ATOM      3  C   UNL     1     105.646 124.516 148.870  0.00  0.00    +0.000 A 
ATOM      4  O   UNL     1     105.909 124.235 149.600  0.00  0.00    +0.000 OA
ATOM      5  C   UNL     1     106.188 124.813 148.324  0.00  0.00    +0.000 A 
ATOM      6  C   UNL     1     105.924 125.094 147.593  0.00  0.00    +0.000 A 
ATOM      7  O   UNL     1     105.120 125.078 147.411  0.00  0.00    +0.000 OA
ATOM      8  C   UNL     1     106.465 125.391 147.046  0.00  0.00    +0.000 A 
ATOM      9  C   UNL     1     107.269 125.408 147.229  0.00  0.00    +0.000 A 
ATOM     10  C   UNL     1     107.533 125.127 147.959  0.00  0.00    +0.000 A 
ATOM     11  C   UNL     1     106.992 124.830 148.506  0.00  0.00    +0.000 A 
ATOM     12  O   UNL     1     107.255 124.549 149.236  0.00  0.00    +0.000 OA
ATOM     13  O   UNL     1     107.811 125.705 146.682  0.00  0.00    +0.000 OA
ENDROOT
BRANCH   8  14
ATOM     14  C   UNL     1     106.202 125.672 146.317  0.00  0.00    +0.000 C 
ATOM     15  C   UNL     1     106.240 125.188 145.650  0.00  0.00    +0.000 C 
ATOM     16  C   UNL     1     105.978 125.469 144.921  0.00  0.00    +0.000 C 
ATOM     17  C   UNL     1     105.676 126.234 144.857  0.00  0.00    +0.000 C 
ATOM     18  C   UNL     1     105.638 126.718 145.524  0.00  0.00    +0.000 C 
ATOM     19  O   UNL     1     105.901 126.437 146.253  0.00  0.00    +0.000 OA
ATOM     20  O   UNL     1     105.413 126.515 144.128  0.00  0.00    +0.000 OA
ATOM     21  O   UNL     1     106.016 124.984 144.254  0.00  0.00    +0.000 OA
ATOM     22  O   UNL     1     106.542 124.423 145.713  0.00  0.00    +0.000 OA
BRANCH  18  23
ATOM     23  C   UNL     1     105.336 127.484 145.461  0.00  0.00    +0.000 C 
ATOM     24  O   UNL     1     105.472 128.032 146.062  0.00  0.00    +0.000 OA
ENDBRANCH  18  23
ENDBRANCH   8  14
BRANCH   1  30
ATOM     25  C   UNL     1     103.461 124.133 147.347  0.00  0.00    +0.000 A 
ATOM     26  C   UNL     1     102.657 124.116 147.164  0.00  0.00    +0.000 A 
ATOM     27  C   UNL     1     102.165 124.731 147.411  0.00  0.00    +0.000 A 
ATOM     28  C   UNL     1     102.478 125.363 147.840  0.00  0.00    +0.000 A 
ATOM     29  C   UNL     1     103.283 125.379 148.022  0.00  0.00    +0.000 A 
ATOM     30  C   UNL     1     103.774 124.764 147.775  0.00  0.00    +0.000 A 
ATOM     31  O   UNL     1     101.361 124.715 147.229  0.00  0.00    +0.000 OA
ENDBRANCH   1  30
TORSDOF 3
ENDMDL
MODEL 3
REMARK VINA RESULT:      -9.6      1.102      3.304
REMARK  Name = null
REMARK  3 active torsions:
REMARK  status: ('A' for Active; 'I' for Inactive)
REMARK    1  A    between atoms: C_6  and  C_7
REMARK    2  A    between atoms: C_14  and  C_20
REMARK    3  A    between atoms: C_24  and  C_26
REMARK                            x       y       z     vdW  Elec       q    Type
REMARK                         _______ _______ _______ _____ _____    ______ ____
ROOT
ATOM      1  C   UNL     1     113.350 127.000 136.496  0.00  0.00    +0.000 A 
ATOM      2  C   UNL     1     114.107 126.672 136.508  0.00  0.00    +0.000 A 
ATOM      3  C   UNL     1     114.202 125.858 136.603  0.00  0.00    +0.000 A 
ATOM      4  O   UNL     1     114.959 125.530 136.615  0.00  0.00    +0.000 OA
ATOM      5  C   UNL     1     113.541 125.371 136.684  0.00  0.00    +0.000 A 
ATOM      6  C   UNL     1     112.783 125.699 136.672  0.00  0.00    +0.000 A 
ATOM      7  O   UNL     1     112.688 126.513 136.578  0.00  0.00    +0.000 OA
ATOM      8  C   UNL     1     112.123 125.213 136.753  0.00  0.00    +0.000 A 
ATOM      9  C   UNL     1     112.218 124.400 136.847  0.00  0.00    +0.000 A 
ATOM     10  C   UNL     1     112.976 124.071 136.860  0.00  0.00    +0.000 A 
ATOM     11  C   UNL     1     113.637 124.558 136.778  0.00  0.00    +0.000 A 
ATOM     12  O   UNL     1     114.394 124.230 136.791  0.00  0.00    +0.000 OA
ATOM     13  O   UNL     1     111.557 123.913 136.929  0.00  0.00    +0.000 OA
ENDROOT
BRANCH   8  14
ATOM     14  C   UNL     1     111.366 125.541 136.741  0.00  0.00    +0.000 C 
ATOM     15  C   UNL     1     110.976 125.706 137.448  0.00  0.00    +0.000 C 
ATOM     16  C   UNL     1     110.219 126.034 137.436  0.00  0.00    +0.000 C 
ATOM     17  C   UNL     1     109.851 126.196 136.716  0.00  0.00    +0.000 C 
ATOM     18  C   UNL     1     110.241 126.030 136.008  0.00  0.00    +0.000 C 
ATOM     19  O   UNL     1     110.998 125.703 136.020  0.00  0.00    +0.000 OA
ATOM     20  O   UNL     1     109.094 126.524 136.703  0.00  0.00    +0.000 OA
ATOM     21  O   UNL     1     109.829 126.200 138.145  0.00  0.00    +0.000 OA
ATOM     22  O   UNL     1     111.344 125.544 138.169  0.00  0.00    +0.000 OA
BRANCH  18  23
ATOM     23  C   UNL     1     109.874 126.192 135.287  0.00  0.00    +0.000 C 
ATOM     24  O   UNL     1     110.082 125.766 134.612  0.00  0.00    +0.000 OA
ENDBRANCH  18  23
ENDBRANCH   8  14
BRANCH   1  30
ATOM     25  C   UNL     1     113.198 128.302 137.064  0.00  0.00    +0.000 A 
ATOM     26  C   UNL     1     113.103 129.116 136.970  0.00  0.00    +0.000 A 
ATOM     27  C   UNL     1     113.063 129.442 136.213  0.00  0.00    +0.000 A 
ATOM     28  C   UNL     1     113.119 128.953 135.550  0.00  0.00    +0.000 A 
ATOM     29  C   UNL     1     113.215 128.140 135.645  0.00  0.00    +0.000 A 
ATOM     30  C   UNL     1     113.254 127.814 136.402  0.00  0.00    +0.000 A 
ATOM     31  O   UNL     1     112.968 130.256 136.118  0.00  0.00    +0.000 OA
ENDBRANCH   1  30
TORSDOF 3
ENDMDL
MODEL 4
REMARK VINA RESULT:      -9.6      1.330      3.457
REMARK  Name = null
REMARK  3 active torsions:
REMARK  status: ('A' for Active; 'I' for Inactive)
REMARK    1  A    between atoms: C_6  and  C_7
REMARK    2  A    between atoms: C_14  and  C_20
REMARK    3  A    between atoms: C_24  and  C_26
REMARK                            x       y       z     vdW  Elec       q    Type
REMARK                         _______ _______ _______ _____ _____    ______ ____
ROOT
ATOM      1  C   UNL     1     112.099 127.715 135.773  0.00  0.00    +0.000 A 
ATOM      2  C   UNL     1     111.466 127.707 135.242  0.00  0.00    +0.000 A 
ATOM      3  C   UNL     1     111.020 127.020 135.142  0.00  0.00    +0.000 A 
ATOM      4  O   UNL     1     110.388 127.013 134.612  0.00  0.00    +0.000 OA
ATOM      5  C   UNL     1     111.206 126.340 135.572  0.00  0.00    +0.000 A 
ATOM      6  C   UNL     1     111.839 126.348 136.102  0.00  0.00    +0.000 A 
ATOM      7  O   UNL     1     112.285 127.035 136.202  0.00  0.00    +0.000 OA
ATOM      8  C   UNL     1     112.025 125.669 136.531  0.00  0.00    +0.000 A 
ATOM      9  C   UNL     1     111.579 124.982 136.431  0.00  0.00    +0.000 A 
ATOM     10  C   UNL     1     110.946 124.975 135.900  0.00  0.00    +0.000 A 
ATOM     11  C   UNL     1     110.760 125.654 135.471  0.00  0.00    +0.000 A 
ATOM     12  O   UNL     1     110.128 125.647 134.941  0.00  0.00    +0.000 OA
ATOM     13  O   UNL     1     111.765 124.302 136.860  0.00  0.00    +0.000 OA
ENDROOT
BRANCH   8  14
ATOM     14  C   UNL     1     112.657 125.676 137.061  0.00  0.00    +0.000 C 
ATOM     15  C   UNL     1     113.390 125.373 136.834  0.00  0.00    +0.000 C 
ATOM     16  C   UNL     1     114.021 125.380 137.363  0.00  0.00    +0.000 C 
ATOM     17  C   UNL     1     113.922 125.690 138.121  0.00  0.00    +0.000 C 
ATOM     18  C   UNL     1     113.189 125.994 138.348  0.00  0.00    +0.000 C 
ATOM     19  O   UNL     1     112.557 125.987 137.819  0.00  0.00    +0.000 OA
ATOM     20  O   UNL     1     114.554 125.698 138.651  0.00  0.00    +0.000 OA
ATOM     21  O   UNL     1     114.754 125.076 137.136  0.00  0.00    +0.000 OA
ATOM     22  O   UNL     1     113.490 125.061 136.076  0.00  0.00    +0.000 OA
BRANCH  18  23
ATOM     23  C   UNL     1     113.089 126.305 139.106  0.00  0.00    +0.000 C 
ATOM     24  O   UNL     1     112.394 126.156 139.525  0.00  0.00    +0.000 OA
ENDBRANCH  18  23
ENDBRANCH   8  14
BRANCH   1  30
ATOM     25  C   UNL     1     113.229 128.517 135.429  0.00  0.00    +0.000 A 
ATOM     26  C   UNL     1     113.675 129.204 135.529  0.00  0.00    +0.000 A 
ATOM     27  C   UNL     1     113.436 129.775 136.074  0.00  0.00    +0.000 A 
ATOM     28  C   UNL     1     112.751 129.659 136.520  0.00  0.00    +0.000 A 
ATOM     29  C   UNL     1     112.306 128.972 136.419  0.00  0.00    +0.000 A 
ATOM     30  C   UNL     1     112.545 128.401 135.873  0.00  0.00    +0.000 A 
ATOM     31  O   UNL     1     113.882 130.462 136.175  0.00  0.00    +0.000 OA
ENDBRANCH   1  30
TORSDOF 3
ENDMDL
MODEL 5
REMARK VINA RESULT:      -9.5      1.465      3.412
REMARK  Name = null
REMARK  3 active torsions:
REMARK  status: ('A' for Active; 'I' for Inactive)
REMARK    1  A    between atoms: C_6  and  C_7
REMARK    2  A    between atoms: C_14  and  C_20
REMARK    3  A    between atoms: C_24  and  C_26
REMARK                            x       y       z     vdW  Elec       q    Type
REMARK                         _______ _______ _______ _____ _____    ______ ____
ROOT
ATOM      1  C   UNL     1     112.290 125.984 136.362  0.00  0.00    +0.000 A 
ATOM      2  C   UNL     1     111.807 125.359 136.120  0.00  0.00    +0.000 A 
ATOM      3  C   UNL     1     111.158 125.506 135.632  0.00  0.00    +0.000 A 
ATOM      4  O   UNL     1     110.675 124.883 135.390  0.00  0.00    +0.000 OA
ATOM      5  C   UNL     1     110.990 126.276 135.387  0.00  0.00    +0.000 A 
ATOM      6  C   UNL     1     111.473 126.901 135.630  0.00  0.00    +0.000 A 
ATOM      7  O   UNL     1     112.123 126.754 136.117  0.00  0.00    +0.000 OA
ATOM      8  C   UNL     1     111.306 127.670 135.385  0.00  0.00    +0.000 A 
ATOM      9  C   UNL     1     110.657 127.816 134.898  0.00  0.00    +0.000 A 
ATOM     10  C   UNL     1     110.174 127.192 134.655  0.00  0.00    +0.000 A 
ATOM     11  C   UNL     1     110.341 126.423 134.900  0.00  0.00    +0.000 A 
ATOM     12  O   UNL     1     109.859 125.799 134.658  0.00  0.00    +0.000 OA
ATOM     13  O   UNL     1     110.490 128.586 134.653  0.00  0.00    +0.000 OA
ENDROOT
BRANCH   8  14
ATOM     14  C   UNL     1     111.789 128.294 135.627  0.00  0.00    +0.000 C 
ATOM     15  C   UNL     1     111.573 128.754 136.277  0.00  0.00    +0.000 C 
ATOM     16  C   UNL     1     112.055 129.377 136.519  0.00  0.00    +0.000 C 
ATOM     17  C   UNL     1     112.754 129.541 136.112  0.00  0.00    +0.000 C 
ATOM     18  C   UNL     1     112.969 129.081 135.463  0.00  0.00    +0.000 C 
ATOM     19  O   UNL     1     112.487 128.458 135.220  0.00  0.00    +0.000 OA
ATOM     20  O   UNL     1     113.236 130.165 136.355  0.00  0.00    +0.000 OA
ATOM     21  O   UNL     1     111.839 129.838 137.170  0.00  0.00    +0.000 OA
ATOM     22  O   UNL     1     110.874 128.590 136.685  0.00  0.00    +0.000 OA
BRANCH  18  23
ATOM     23  C   UNL     1     113.668 129.245 135.055  0.00  0.00    +0.000 C 
ATOM     24  O   UNL     1     114.272 128.683 135.029  0.00  0.00    +0.000 OA
ENDBRANCH  18  23
ENDBRANCH   8  14
BRANCH   1  30
ATOM     25  C   UNL     1     112.870 125.925 137.666  0.00  0.00    +0.000 A 
ATOM     26  C   UNL     1     113.519 125.779 138.154  0.00  0.00    +0.000 A 
ATOM     27  C   UNL     1     114.238 125.545 137.824  0.00  0.00    +0.000 A 
ATOM     28  C   UNL     1     114.308 125.457 137.005  0.00  0.00    +0.000 A 
ATOM     29  C   UNL     1     113.658 125.603 136.519  0.00  0.00    +0.000 A 
ATOM     30  C   UNL     1     112.939 125.838 136.849  0.00  0.00    +0.000 A 
ATOM     31  O   UNL     1     114.888 125.398 138.310  0.00  0.00    +0.000 OA
ENDBRANCH   1  30
TORSDOF 3
ENDMDL
MODEL 6
REMARK VINA RESULT:      -9.3      1.565      3.892
REMARK  Name = null
REMARK  3 active torsions:
REMARK  status: ('A' for Active; 'I' for Inactive)
REMARK    1  A    between atoms: C_6  and  C_7
REMARK    2  A    between atoms: C_14  and  C_20
REMARK    3  A    between atoms: C_24  and  C_26
REMARK                            x       y       z     vdW  Elec       q    Type
REMARK                         _______ _______ _______ _____ _____    ______ ____
ROOT
ATOM      1  C   UNL     1     110.214 126.682 136.175  0.00  0.00    +0.000 A 
ATOM      2  C   UNL     1     109.389 126.645 136.137  0.00  0.00    +0.000 A 
ATOM      3  C   UNL     1     108.949 127.338 136.055  0.00  0.00    +0.000 A 
ATOM      4  O   UNL     1     108.126 127.302 136.018  0.00  0.00    +0.000 OA
ATOM      5  C   UNL     1     109.332 128.068 136.010  0.00  0.00    +0.000 A 
ATOM      6  C   UNL     1     110.156 128.105 136.047  0.00  0.00    +0.000 A 
ATOM      7  O   UNL     1     110.596 127.412 136.130  0.00  0.00    +0.000 OA
ATOM      8  C   UNL     1     110.538 128.834 136.002  0.00  0.00    +0.000 A 
ATOM      9  C   UNL     1     110.098 129.526 135.920  0.00  0.00    +0.000 A 
ATOM     10  C   UNL     1     109.274 129.490 135.882  0.00  0.00    +0.000 A 
ATOM     11  C   UNL     1     108.892 128.761 135.927  0.00  0.00    +0.000 A 
ATOM     12  O   UNL     1     108.068 128.724 135.890  0.00  0.00    +0.000 OA
ATOM     13  O   UNL     1     110.481 130.256 135.875  0.00  0.00    +0.000 OA
ENDROOT
BRANCH   8  14
ATOM     14  C   UNL     1     111.362 128.871 136.039  0.00  0.00    +0.000 C 
ATOM     15  C   UNL     1     111.804 128.931 135.346  0.00  0.00    +0.000 C 
ATOM     16  C   UNL     1     112.627 128.968 135.383  0.00  0.00    +0.000 C 
ATOM     17  C   UNL     1     113.008 128.944 136.114  0.00  0.00    +0.000 C 
ATOM     18  C   UNL     1     112.566 128.884 136.807  0.00  0.00    +0.000 C 
ATOM     19  O   UNL     1     111.744 128.847 136.770  0.00  0.00    +0.000 OA
ATOM     20  O   UNL     1     113.832 128.981 136.151  0.00  0.00    +0.000 OA
ATOM     21  O   UNL     1     113.069 129.028 134.689  0.00  0.00    +0.000 OA
ATOM     22  O   UNL     1     111.423 128.955 134.614  0.00  0.00    +0.000 OA
BRANCH  18  23
ATOM     23  C   UNL     1     112.948 128.860 137.539  0.00  0.00    +0.000 C 
ATOM     24  O   UNL     1     112.560 129.129 138.216  0.00  0.00    +0.000 OA
ENDBRANCH  18  23
ENDBRANCH   8  14
BRANCH   1  30
ATOM     25  C   UNL     1     110.857 125.717 137.008  0.00  0.00    +0.000 A 
ATOM     26  C   UNL     1     111.297 125.024 137.091  0.00  0.00    +0.000 A 
ATOM     27  C   UNL     1     111.534 124.604 136.422  0.00  0.00    +0.000 A 
ATOM     28  C   UNL     1     111.331 124.877 135.669  0.00  0.00    +0.000 A 
ATOM     29  C   UNL     1     110.891 125.570 135.588  0.00  0.00    +0.000 A 
ATOM     30  C   UNL     1     110.654 125.990 136.257  0.00  0.00    +0.000 A 
ATOM     31  O   UNL     1     111.975 123.911 136.503  0.00  0.00    +0.000 OA
ENDBRANCH   1  30
TORSDOF 3
ENDMDL
MODEL 7
REMARK VINA RESULT:      -9.2     11.738     13.058
REMARK  Name = null
REMARK  3 active torsions:
REMARK  status: ('A' for Active; 'I' for Inactive)
REMARK    1  A    between atoms: C_6  and  C_7
REMARK    2  A    between atoms: C_14  and  C_20
REMARK    3  A    between atoms: C_24  and  C_26
REMARK                            x       y       z     vdW  Elec       q    Type
REMARK                         _______ _______ _______ _____ _____    ______ ____
ROOT
ATOM      1  C   UNL     1     103.785 126.065 147.882  0.00  0.00    +0.000 A 
ATOM      2  C   UNL     1     103.110 125.685 148.168  0.00  0.00    +0.000 A 
ATOM      3  C   UNL     1     102.849 124.987 147.814  0.00  0.00    +0.000 A 
ATOM      4  O   UNL     1     102.174 124.607 148.099  0.00  0.00    +0.000 OA
ATOM      5  C   UNL     1     103.262 124.668 147.174  0.00  0.00    +0.000 A 
ATOM      6  C   UNL     1     103.937 125.048 146.889  0.00  0.00    +0.000 A 
ATOM      7  O   UNL     1     104.198 125.746 147.243  0.00  0.00    +0.000 OA
ATOM      8  C   UNL     1     104.350 124.730 146.250  0.00  0.00    +0.000 A 
ATOM      9  C   UNL     1     104.089 124.032 145.897  0.00  0.00    +0.000 A 
ATOM     10  C   UNL     1     103.414 123.652 146.182  0.00  0.00    +0.000 A 
ATOM     11  C   UNL     1     103.001 123.971 146.821  0.00  0.00    +0.000 A 
ATOM     12  O   UNL     1     102.326 123.591 147.106  0.00  0.00    +0.000 OA
ATOM     13  O   UNL     1     104.502 123.714 145.257  0.00  0.00    +0.000 OA
ENDROOT
BRANCH   8  14
ATOM     14  C   UNL     1     105.025 125.110 145.965  0.00  0.00    +0.000 C 
ATOM     15  C   UNL     1     105.773 124.860 146.207  0.00  0.00    +0.000 C 
ATOM     16  C   UNL     1     106.447 125.239 145.922  0.00  0.00    +0.000 C 
ATOM     17  C   UNL     1     106.374 125.869 145.394  0.00  0.00    +0.000 C 
ATOM     18  C   UNL     1     105.626 126.119 145.152  0.00  0.00    +0.000 C 
ATOM     19  O   UNL     1     104.952 125.740 145.437  0.00  0.00    +0.000 OA
ATOM     20  O   UNL     1     107.049 126.249 145.109  0.00  0.00    +0.000 OA
ATOM     21  O   UNL     1     107.195 124.989 146.164  0.00  0.00    +0.000 OA
ATOM     22  O   UNL     1     105.846 124.229 146.735  0.00  0.00    +0.000 OA
BRANCH  18  23
ATOM     23  C   UNL     1     105.553 126.749 144.624  0.00  0.00    +0.000 C 
ATOM     24  O   UNL     1     105.157 126.644 143.908  0.00  0.00    +0.000 OA
ENDBRANCH  18  23
ENDBRANCH   8  14
BRANCH   1  30
ATOM     25  C   UNL     1     103.730 127.487 148.002  0.00  0.00    +0.000 A 
ATOM     26  C   UNL     1     103.990 128.186 148.355  0.00  0.00    +0.000 A 
ATOM     27  C   UNL     1     104.568 128.159 148.944  0.00  0.00    +0.000 A 
ATOM     28  C   UNL     1     104.885 127.433 149.178  0.00  0.00    +0.000 A 
ATOM     29  C   UNL     1     104.624 126.736 148.824  0.00  0.00    +0.000 A 
ATOM     30  C   UNL     1     104.046 126.763 148.236  0.00  0.00    +0.000 A 
ATOM     31  O   UNL     1     104.830 128.856 149.298  0.00  0.00    +0.000 OA
ENDBRANCH   1  30
TORSDOF 3
ENDMDL
MODEL 8
REMARK VINA RESULT:      -9.2      1.563      3.790
REMARK  Name = null
REMARK  3 active torsions:
REMARK  status: ('A' for Active; 'I' for Inactive)
REMARK    1  A    between atoms: C_6  and  C_7
REMARK    2  A    between atoms: C_14  and  C_20
REMARK    3  A    between atoms: C_24  and  C_26
REMARK                            x       y       z     vdW  Elec       q    Type
REMARK                         _______ _______ _______ _____ _____    ______ ____
ROOT
ATOM      1  C   UNL     1     111.938 125.567 136.491  0.00  0.00    +0.000 A 
ATOM      2  C   UNL     1     111.584 125.298 135.795  0.00  0.00    +0.000 A 
ATOM      3  C   UNL     1     110.826 125.552 135.593  0.00  0.00    +0.000 A 
ATOM      4  O   UNL     1     110.472 125.283 134.898  0.00  0.00    +0.000 OA
ATOM      5  C   UNL     1     110.420 126.076 136.086  0.00  0.00    +0.000 A 
ATOM      6  C   UNL     1     110.774 126.345 136.781  0.00  0.00    +0.000 A 
ATOM      7  O   UNL     1     111.533 126.091 136.983  0.00  0.00    +0.000 OA
ATOM      8  C   UNL     1     110.369 126.868 137.274  0.00  0.00    +0.000 A 
ATOM      9  C   UNL     1     109.611 127.122 137.072  0.00  0.00    +0.000 A 
ATOM     10  C   UNL     1     109.257 126.852 136.376  0.00  0.00    +0.000 A 
ATOM     11  C   UNL     1     109.662 126.329 135.883  0.00  0.00    +0.000 A 
ATOM     12  O   UNL     1     109.309 126.060 135.188  0.00  0.00    +0.000 OA
ATOM     13  O   UNL     1     109.206 127.646 137.564  0.00  0.00    +0.000 OA
ENDROOT
BRANCH   8  14
ATOM     14  C   UNL     1     110.723 127.138 137.969  0.00  0.00    +0.000 C 
ATOM     15  C   UNL     1     111.103 127.870 137.982  0.00  0.00    +0.000 C 
ATOM     16  C   UNL     1     111.456 128.139 138.676  0.00  0.00    +0.000 C 
ATOM     17  C   UNL     1     111.429 127.677 139.359  0.00  0.00    +0.000 C 
ATOM     18  C   UNL     1     111.049 126.945 139.346  0.00  0.00    +0.000 C 
ATOM     19  O   UNL     1     110.696 126.676 138.651  0.00  0.00    +0.000 OA
ATOM     20  O   UNL     1     111.783 127.946 140.054  0.00  0.00    +0.000 OA
ATOM     21  O   UNL     1     111.836 128.871 138.689  0.00  0.00    +0.000 OA
ATOM     22  O   UNL     1     111.129 128.332 137.299  0.00  0.00    +0.000 OA
BRANCH  18  23
ATOM     23  C   UNL     1     111.022 126.482 140.029  0.00  0.00    +0.000 C 
ATOM     24  O   UNL     1     110.714 125.717 139.997  0.00  0.00    +0.000 OA
ENDBRANCH  18  23
ENDBRANCH   8  14
BRANCH   1  30
ATOM     25  C   UNL     1     112.800 124.592 137.079  0.00  0.00    +0.000 A 
ATOM     26  C   UNL     1     113.559 124.338 137.281  0.00  0.00    +0.000 A 
ATOM     27  C   UNL     1     114.213 124.806 137.098  0.00  0.00    +0.000 A 
ATOM     28  C   UNL     1     114.109 125.528 136.711  0.00  0.00    +0.000 A 
ATOM     29  C   UNL     1     113.350 125.781 136.510  0.00  0.00    +0.000 A 
ATOM     30  C   UNL     1     112.696 125.314 136.693  0.00  0.00    +0.000 A 
ATOM     31  O   UNL     1     114.972 124.553 137.299  0.00  0.00    +0.000 OA
ENDBRANCH   1  30
TORSDOF 3
ENDMDL
MODEL 9
REMARK VINA RESULT:      -9.2      1.746      4.099
REMARK  Name = null
REMARK  3 active torsions:
REMARK  status: ('A' for Active; 'I' for Inactive)
REMARK    1  A    between atoms: C_6  and  C_7
REMARK    2  A    between atoms: C_14  and  C_20
REMARK    3  A    between atoms: C_24  and  C_26
REMARK                            x       y       z     vdW  Elec       q    Type
REMARK                         _______ _______ _______ _____ _____    ______ ____
ROOT
ATOM      1  C   UNL     1     113.397 126.418 138.774  0.00  0.00    +0.000 A 
ATOM      2  C   UNL     1     114.083 126.038 138.514  0.00  0.00    +0.000 A 
ATOM      3  C   UNL     1     114.034 125.450 137.936  0.00  0.00    +0.000 A 
ATOM      4  O   UNL     1     114.719 125.071 137.675  0.00  0.00    +0.000 OA
ATOM      5  C   UNL     1     113.301 125.242 137.618  0.00  0.00    +0.000 A 
ATOM      6  C   UNL     1     112.616 125.622 137.879  0.00  0.00    +0.000 A 
ATOM      7  O   UNL     1     112.664 126.209 138.456  0.00  0.00    +0.000 OA
ATOM      8  C   UNL     1     111.884 125.415 137.561  0.00  0.00    +0.000 A 
ATOM      9  C   UNL     1     111.836 124.828 136.984  0.00  0.00    +0.000 A 
ATOM     10  C   UNL     1     112.521 124.448 136.724  0.00  0.00    +0.000 A 
ATOM     11  C   UNL     1     113.253 124.656 137.041  0.00  0.00    +0.000 A 
ATOM     12  O   UNL     1     113.938 124.276 136.781  0.00  0.00    +0.000 OA
ATOM     13  O   UNL     1     111.103 124.620 136.666  0.00  0.00    +0.000 OA
ENDROOT
BRANCH   8  14
ATOM     14  C   UNL     1     111.199 125.794 137.822  0.00  0.00    +0.000 C 
ATOM     15  C   UNL     1     110.877 126.413 137.382  0.00  0.00    +0.000 C 
ATOM     16  C   UNL     1     110.193 126.792 137.642  0.00  0.00    +0.000 C 
ATOM     17  C   UNL     1     109.829 126.553 138.342  0.00  0.00    +0.000 C 
ATOM     18  C   UNL     1     110.151 125.934 138.782  0.00  0.00    +0.000 C 
ATOM     19  O   UNL     1     110.835 125.555 138.522  0.00  0.00    +0.000 OA
ATOM     20  O   UNL     1     109.145 126.932 138.602  0.00  0.00    +0.000 OA
ATOM     21  O   UNL     1     109.872 127.412 137.201  0.00  0.00    +0.000 OA
ATOM     22  O   UNL     1     111.241 126.653 136.680  0.00  0.00    +0.000 OA
BRANCH  18  23
ATOM     23  C   UNL     1     109.787 125.694 139.483  0.00  0.00    +0.000 C 
ATOM     24  O   UNL     1     110.222 125.291 140.057  0.00  0.00    +0.000 OA
ENDBRANCH  18  23
ENDBRANCH   8  14
BRANCH   1  30
ATOM     25  C   UNL     1     113.443 127.799 139.133  0.00  0.00    +0.000 A 
ATOM     26  C   UNL     1     113.491 128.387 139.710  0.00  0.00    +0.000 A 
ATOM     27  C   UNL     1     113.541 128.178 140.507  0.00  0.00    +0.000 A 
ATOM     28  C   UNL     1     113.543 127.382 140.726  0.00  0.00    +0.000 A 
ATOM     29  C   UNL     1     113.495 126.796 140.148  0.00  0.00    +0.000 A 
ATOM     30  C   UNL     1     113.445 127.004 139.351  0.00  0.00    +0.000 A 
ATOM     31  O   UNL     1     113.589 128.765 141.085  0.00  0.00    +0.000 OA
ENDBRANCH   1  30
TORSDOF 3
ENDMDL
MODEL 10
REMARK VINA RESULT:      -9.0      1.429      1.969
REMARK  Name = null
REMARK  3 active torsions:
REMARK  status: ('A' for Active; 'I' for Inactive)
REMARK    1  A    between atoms: C_6  and  C_7
REMARK    2  A    between atoms: C_14  and  C_20
REMARK    3  A    between atoms: C_24  and  C_26
REMARK                            x       y       z     vdW  Elec       q    Type
REMARK                         _______ _______ _______ _____ _____    ______ ____
ROOT
ATOM      1  C   UNL     1     110.401 127.471 135.541  0.00  0.00    +0.000 A 
ATOM      2  C   UNL     1     110.051 126.769 135.282  0.00  0.00    +0.000 A 
ATOM      3  C   UNL     1     110.430 126.047 135.413  0.00  0.00    +0.000 A 
ATOM      4  O   UNL     1     110.080 125.346 135.155  0.00  0.00    +0.000 OA
ATOM      5  C   UNL     1     111.157 126.026 135.803  0.00  0.00    +0.000 A 
ATOM      6  C   UNL     1     111.506 126.728 136.062  0.00  0.00    +0.000 A 
ATOM      7  O   UNL     1     111.128 127.450 135.930  0.00  0.00    +0.000 OA
ATOM      8  C   UNL     1     112.233 126.707 136.451  0.00  0.00    +0.000 A 
ATOM      9  C   UNL     1     112.610 125.986 136.583  0.00  0.00    +0.000 A 
ATOM     10  C   UNL     1     112.260 125.284 136.324  0.00  0.00    +0.000 A 
ATOM     11  C   UNL     1     111.534 125.305 135.934  0.00  0.00    +0.000 A 
ATOM     12  O   UNL     1     111.185 124.604 135.676  0.00  0.00    +0.000 OA
ATOM     13  O   UNL     1     113.337 125.965 136.972  0.00  0.00    +0.000 OA
ENDROOT
BRANCH   8  14
ATOM     14  C   UNL     1     112.582 127.409 136.710  0.00  0.00    +0.000 C 
ATOM     15  C   UNL     1     112.489 127.652 137.493  0.00  0.00    +0.000 C 
ATOM     16  C   UNL     1     112.838 128.353 137.751  0.00  0.00    +0.000 C 
ATOM     17  C   UNL     1     113.280 128.811 137.227  0.00  0.00    +0.000 C 
ATOM     18  C   UNL     1     113.373 128.568 136.444  0.00  0.00    +0.000 C 
ATOM     19  O   UNL     1     113.024 127.868 136.186  0.00  0.00    +0.000 OA
ATOM     20  O   UNL     1     113.629 129.513 137.486  0.00  0.00    +0.000 OA
ATOM     21  O   UNL     1     112.745 128.596 138.534  0.00  0.00    +0.000 OA
ATOM     22  O   UNL     1     112.047 127.193 138.017  0.00  0.00    +0.000 OA
BRANCH  18  23
ATOM     23  C   UNL     1     113.815 129.027 135.920  0.00  0.00    +0.000 C 
ATOM     24  O   UNL     1     114.052 128.712 135.195  0.00  0.00    +0.000 OA
ENDBRANCH  18  23
ENDBRANCH   8  14
BRANCH   1  30
ATOM     25  C   UNL     1     110.211 128.640 134.744  0.00  0.00    +0.000 A 
ATOM     26  C   UNL     1     109.833 129.362 134.612  0.00  0.00    +0.000 A 
ATOM     27  C   UNL     1     109.268 129.635 135.147  0.00  0.00    +0.000 A 
ATOM     28  C   UNL     1     109.080 129.186 135.814  0.00  0.00    +0.000 A 
ATOM     29  C   UNL     1     109.458 128.465 135.945  0.00  0.00    +0.000 A 
ATOM     30  C   UNL     1     110.024 128.192 135.410  0.00  0.00    +0.000 A 
ATOM     31  O   UNL     1     108.890 130.356 135.017  0.00  0.00    +0.000 OA
ENDBRANCH   1  30
TORSDOF 3
ENDMDL
