MODEL 1
REMARK VINA RESULT:      -8.4      0.000      0.000
REMARK  Name = 44446832
REMARK  2 active torsions:
REMARK  status: ('A' for Active; 'I' for Inactive)
REMARK    1  A    between atoms: O_4  and  C_16
REMARK    2  A    between atoms: C_6  and  C_10
REMARK                            x       y       z     vdW  Elec       q    Type
REMARK                         _______ _______ _______ _____ _____    ______ ____
ROOT
ATOM      1  O   UNL     1     105.487 124.314 147.266  0.00  0.00    +0.000 OA
ATOM      2  O   UNL     1     105.437 125.692 148.958  0.00  0.00    +0.000 OA
ATOM      3  O   UNL     1     103.850 125.696 148.506  0.00  0.00    +0.000 OA
ATOM      4  O   UNL     1     103.378 123.373 145.491  0.00  0.00    +0.000 OA
ATOM      5  C   UNL     1     105.735 124.773 147.906  0.00  0.00    +0.000 C 
ATOM      6  C   UNL     1     105.189 125.234 148.319  0.00  0.00    +0.000 C 
ATOM      7  C   UNL     1     104.396 125.236 148.093  0.00  0.00    +0.000 C 
ATOM      8  C   UNL     1     104.148 124.778 147.454  0.00  0.00    +0.000 A 
ATOM      9  C   UNL     1     104.694 124.317 147.040  0.00  0.00    +0.000 A 
ATOM     10  C   UNL     1     103.319 124.788 147.227  0.00  0.00    +0.000 A 
ATOM     11  C   UNL     1     104.448 123.835 146.372  0.00  0.00    +0.000 A 
ATOM     12  C   UNL     1     103.055 124.313 146.562  0.00  0.00    +0.000 A 
ATOM     13  C   UNL     1     103.623 123.833 146.132  0.00  0.00    +0.000 A 
ENDROOT
BRANCH   5  14
ATOM     14  C   UNL     1     106.528 124.771 148.132  0.00  0.00    +0.000 A 
ATOM     15  C   UNL     1     107.086 125.183 147.683  0.00  0.00    +0.000 A 
ATOM     16  C   UNL     1     106.765 124.357 148.805  0.00  0.00    +0.000 A 
ATOM     17  C   UNL     1     107.879 125.180 147.908  0.00  0.00    +0.000 A 
ATOM     18  C   UNL     1     107.559 124.356 149.030  0.00  0.00    +0.000 A 
ATOM     19  C   UNL     1     108.116 124.766 148.582  0.00  0.00    +0.000 A 
ENDBRANCH   5  14
BRANCH  12  20
ATOM     20  O   UNL     1     102.261 124.317 146.338  0.00  0.00    +0.000 OA
ATOM     21  C   UNL     1     101.671 124.216 146.907  0.00  0.00    +0.000 C 
ENDBRANCH  12  20
TORSDOF 2
ENDMDL
MODEL 2
REMARK VINA RESULT:      -8.0      2.243      2.842
REMARK  Name = 44446832
REMARK  2 active torsions:
REMARK  status: ('A' for Active; 'I' for Inactive)
REMARK    1  A    between atoms: O_4  and  C_16
REMARK    2  A    between atoms: C_6  and  C_10
REMARK                            x       y       z     vdW  Elec       q    Type
REMARK                         _______ _______ _______ _____ _____    ______ ____
ROOT
ATOM      1  O   UNL     1     106.425 124.815 146.648  0.00  0.00    +0.000 OA
ATOM      2  O   UNL     1     107.387 126.605 147.447  0.00  0.00    +0.000 OA
ATOM      3  O   UNL     1     106.962 127.125 145.940  0.00  0.00    +0.000 OA
ATOM      4  O   UNL     1     105.190 124.288 144.064  0.00  0.00    +0.000 OA
ATOM      5  C   UNL     1     106.817 125.326 147.166  0.00  0.00    +0.000 C 
ATOM      6  C   UNL     1     106.996 126.096 146.930  0.00  0.00    +0.000 C 
ATOM      7  C   UNL     1     106.783 126.355 146.176  0.00  0.00    +0.000 C 
ATOM      8  C   UNL     1     106.392 125.846 145.659  0.00  0.00    +0.000 A 
ATOM      9  C   UNL     1     106.213 125.076 145.895  0.00  0.00    +0.000 A 
ATOM     10  C   UNL     1     106.176 126.129 144.876  0.00  0.00    +0.000 A 
ATOM     11  C   UNL     1     105.805 124.536 145.365  0.00  0.00    +0.000 A 
ATOM     12  C   UNL     1     105.768 125.603 144.333  0.00  0.00    +0.000 A 
ATOM     13  C   UNL     1     105.582 124.801 144.579  0.00  0.00    +0.000 A 
ENDROOT
BRANCH   5  14
ATOM     14  C   UNL     1     107.029 125.065 147.919  0.00  0.00    +0.000 A 
ATOM     15  C   UNL     1     107.808 124.839 148.073  0.00  0.00    +0.000 A 
ATOM     16  C   UNL     1     106.463 125.030 148.519  0.00  0.00    +0.000 A 
ATOM     17  C   UNL     1     108.020 124.579 148.826  0.00  0.00    +0.000 A 
ATOM     18  C   UNL     1     106.676 124.769 149.272  0.00  0.00    +0.000 A 
ATOM     19  C   UNL     1     107.454 124.543 149.426  0.00  0.00    +0.000 A 
ENDBRANCH   5  14
BRANCH  12  20
ATOM     20  O   UNL     1     105.557 125.865 143.580  0.00  0.00    +0.000 OA
ATOM     21  C   UNL     1     106.126 126.200 143.086  0.00  0.00    +0.000 C 
ENDBRANCH  12  20
TORSDOF 2
ENDMDL
MODEL 3
REMARK VINA RESULT:      -8.0     12.371     13.070
REMARK  Name = 44446832
REMARK  2 active torsions:
REMARK  status: ('A' for Active; 'I' for Inactive)
REMARK    1  A    between atoms: O_4  and  C_16
REMARK    2  A    between atoms: C_6  and  C_10
REMARK                            x       y       z     vdW  Elec       q    Type
REMARK                         _______ _______ _______ _____ _____    ______ ____
ROOT
ATOM      1  O   UNL     1     111.951 125.467 136.077  0.00  0.00    +0.000 OA
ATOM      2  O   UNL     1     112.625 126.494 137.881  0.00  0.00    +0.000 OA
ATOM      3  O   UNL     1     111.106 127.118 137.715  0.00  0.00    +0.000 OA
ATOM      4  O   UNL     1     109.438 125.605 134.612  0.00  0.00    +0.000 OA
ATOM      5  C   UNL     1     112.429 125.706 136.706  0.00  0.00    +0.000 C 
ATOM      6  C   UNL     1     112.147 126.256 137.253  0.00  0.00    +0.000 C 
ATOM      7  C   UNL     1     111.388 126.568 137.169  0.00  0.00    +0.000 C 
ATOM      8  C   UNL     1     110.911 126.330 136.541  0.00  0.00    +0.000 A 
ATOM      9  C   UNL     1     111.192 125.780 135.994  0.00  0.00    +0.000 A 
ATOM     10  C   UNL     1     110.121 126.662 136.465  0.00  0.00    +0.000 A 
ATOM     11  C   UNL     1     110.704 125.524 135.335  0.00  0.00    +0.000 A 
ATOM     12  C   UNL     1     109.620 126.418 135.812  0.00  0.00    +0.000 A 
ATOM     13  C   UNL     1     109.913 125.845 135.243  0.00  0.00    +0.000 A 
ENDROOT
BRANCH   5  14
ATOM     14  C   UNL     1     113.188 125.394 136.789  0.00  0.00    +0.000 A 
ATOM     15  C   UNL     1     113.297 124.670 137.172  0.00  0.00    +0.000 A 
ATOM     16  C   UNL     1     113.838 125.803 136.489  0.00  0.00    +0.000 A 
ATOM     17  C   UNL     1     114.056 124.358 137.254  0.00  0.00    +0.000 A 
ATOM     18  C   UNL     1     114.597 125.490 136.572  0.00  0.00    +0.000 A 
ATOM     19  C   UNL     1     114.706 124.768 136.954  0.00  0.00    +0.000 A 
ENDBRANCH   5  14
BRANCH  12  20
ATOM     20  O   UNL     1     108.861 126.732 135.731  0.00  0.00    +0.000 OA
ATOM     21  C   UNL     1     108.751 127.550 135.727  0.00  0.00    +0.000 C 
ENDBRANCH  12  20
TORSDOF 2
ENDMDL
MODEL 4
REMARK VINA RESULT:      -7.8     12.917     13.529
REMARK  Name = 44446832
REMARK  2 active torsions:
REMARK  status: ('A' for Active; 'I' for Inactive)
REMARK    1  A    between atoms: O_4  and  C_16
REMARK    2  A    between atoms: C_6  and  C_10
REMARK                            x       y       z     vdW  Elec       q    Type
REMARK                         _______ _______ _______ _____ _____    ______ ____
ROOT
ATOM      1  O   UNL     1     112.516 126.474 136.361  0.00  0.00    +0.000 OA
ATOM      2  O   UNL     1     112.274 124.305 136.394  0.00  0.00    +0.000 OA
ATOM      3  O   UNL     1     110.796 124.775 135.831  0.00  0.00    +0.000 OA
ATOM      4  O   UNL     1     110.686 128.600 135.577  0.00  0.00    +0.000 OA
ATOM      5  C   UNL     1     112.682 125.672 136.466  0.00  0.00    +0.000 C 
ATOM      6  C   UNL     1     112.108 125.106 136.289  0.00  0.00    +0.000 C 
ATOM      7  C   UNL     1     111.369 125.342 136.008  0.00  0.00    +0.000 C 
ATOM      8  C   UNL     1     111.203 126.142 135.903  0.00  0.00    +0.000 A 
ATOM      9  C   UNL     1     111.777 126.709 136.079  0.00  0.00    +0.000 A 
ATOM     10  C   UNL     1     110.430 126.375 135.609  0.00  0.00    +0.000 A 
ATOM     11  C   UNL     1     111.616 127.547 135.974  0.00  0.00    +0.000 A 
ATOM     12  C   UNL     1     110.251 127.208 135.498  0.00  0.00    +0.000 A 
ATOM     13  C   UNL     1     110.848 127.797 135.681  0.00  0.00    +0.000 A 
ENDROOT
BRANCH   5  14
ATOM     14  C   UNL     1     113.421 125.438 136.747  0.00  0.00    +0.000 A 
ATOM     15  C   UNL     1     114.021 125.241 136.215  0.00  0.00    +0.000 A 
ATOM     16  C   UNL     1     113.561 125.401 137.560  0.00  0.00    +0.000 A 
ATOM     17  C   UNL     1     114.760 125.006 136.497  0.00  0.00    +0.000 A 
ATOM     18  C   UNL     1     114.300 125.167 137.840  0.00  0.00    +0.000 A 
ATOM     19  C   UNL     1     114.900 124.969 137.309  0.00  0.00    +0.000 A 
ENDBRANCH   5  14
BRANCH  12  20
ATOM     20  O   UNL     1     109.511 127.440 135.216  0.00  0.00    +0.000 OA
ATOM     21  C   UNL     1     108.831 127.255 135.644  0.00  0.00    +0.000 C 
ENDBRANCH  12  20
TORSDOF 2
ENDMDL
MODEL 5
REMARK VINA RESULT:      -7.8     11.940     12.800
REMARK  Name = 44446832
REMARK  2 active torsions:
REMARK  status: ('A' for Active; 'I' for Inactive)
REMARK    1  A    between atoms: O_4  and  C_16
REMARK    2  A    between atoms: C_6  and  C_10
REMARK                            x       y       z     vdW  Elec       q    Type
REMARK                         _______ _______ _______ _____ _____    ______ ____
ROOT
ATOM      1  O   UNL     1     111.095 125.922 137.000  0.00  0.00    +0.000 OA
ATOM      2  O   UNL     1     111.083 124.689 135.199  0.00  0.00    +0.000 OA
ATOM      3  O   UNL     1     109.839 125.724 134.877  0.00  0.00    +0.000 OA
ATOM      4  O   UNL     1     109.423 128.167 137.804  0.00  0.00    +0.000 OA
ATOM      5  C   UNL     1     111.299 125.338 136.453  0.00  0.00    +0.000 C 
ATOM      6  C   UNL     1     110.880 125.272 135.746  0.00  0.00    +0.000 C 
ATOM      7  C   UNL     1     110.258 125.790 135.585  0.00  0.00    +0.000 C 
ATOM      8  C   UNL     1     110.054 126.373 136.131  0.00  0.00    +0.000 A 
ATOM      9  C   UNL     1     110.473 126.439 136.839  0.00  0.00    +0.000 A 
ATOM     10  C   UNL     1     109.404 126.906 135.952  0.00  0.00    +0.000 A 
ATOM     11  C   UNL     1     110.271 127.043 137.416  0.00  0.00    +0.000 A 
ATOM     12  C   UNL     1     109.188 127.515 136.517  0.00  0.00    +0.000 A 
ATOM     13  C   UNL     1     109.624 127.584 137.254  0.00  0.00    +0.000 A 
ENDROOT
BRANCH   5  14
ATOM     14  C   UNL     1     111.921 124.821 136.615  0.00  0.00    +0.000 A 
ATOM     15  C   UNL     1     112.696 125.038 136.429  0.00  0.00    +0.000 A 
ATOM     16  C   UNL     1     111.769 124.088 136.962  0.00  0.00    +0.000 A 
ATOM     17  C   UNL     1     113.318 124.521 136.590  0.00  0.00    +0.000 A 
ATOM     18  C   UNL     1     112.393 123.572 137.123  0.00  0.00    +0.000 A 
ATOM     19  C   UNL     1     113.166 123.788 136.937  0.00  0.00    +0.000 A 
ENDBRANCH   5  14
BRANCH  12  20
ATOM     20  O   UNL     1     108.565 128.031 136.354  0.00  0.00    +0.000 OA
ATOM     21  C   UNL     1     108.638 128.587 135.749  0.00  0.00    +0.000 C 
ENDBRANCH  12  20
TORSDOF 2
ENDMDL
MODEL 6
REMARK VINA RESULT:      -7.7     10.940     12.363
REMARK  Name = 44446832
REMARK  2 active torsions:
REMARK  status: ('A' for Active; 'I' for Inactive)
REMARK    1  A    between atoms: O_4  and  C_16
REMARK    2  A    between atoms: C_6  and  C_10
REMARK                            x       y       z     vdW  Elec       q    Type
REMARK                         _______ _______ _______ _____ _____    ______ ____
ROOT
ATOM      1  O   UNL     1     113.712 126.253 138.793  0.00  0.00    +0.000 OA
ATOM      2  O   UNL     1     112.300 125.403 137.362  0.00  0.00    +0.000 OA
ATOM      3  O   UNL     1     111.275 125.890 138.559  0.00  0.00    +0.000 OA
ATOM      4  O   UNL     1     113.298 127.496 141.394  0.00  0.00    +0.000 OA
ATOM      5  C   UNL     1     113.412 125.888 138.116  0.00  0.00    +0.000 C 
ATOM      6  C   UNL     1     112.600 125.767 138.038  0.00  0.00    +0.000 C 
ATOM      7  C   UNL     1     112.088 126.011 138.637  0.00  0.00    +0.000 C 
ATOM      8  C   UNL     1     112.387 126.376 139.313  0.00  0.00    +0.000 A 
ATOM      9  C   UNL     1     113.199 126.496 139.391  0.00  0.00    +0.000 A 
ATOM     10  C   UNL     1     111.843 126.625 139.930  0.00  0.00    +0.000 A 
ATOM     11  C   UNL     1     113.524 126.875 140.091  0.00  0.00    +0.000 A 
ATOM     12  C   UNL     1     112.149 127.005 140.637  0.00  0.00    +0.000 A 
ATOM     13  C   UNL     1     112.995 127.131 140.718  0.00  0.00    +0.000 A 
ENDROOT
BRANCH   5  14
ATOM     14  C   UNL     1     113.925 125.644 137.518  0.00  0.00    +0.000 A 
ATOM     15  C   UNL     1     114.312 124.917 137.577  0.00  0.00    +0.000 A 
ATOM     16  C   UNL     1     114.052 126.127 136.860  0.00  0.00    +0.000 A 
ATOM     17  C   UNL     1     114.825 124.674 136.979  0.00  0.00    +0.000 A 
ATOM     18  C   UNL     1     114.565 125.882 136.263  0.00  0.00    +0.000 A 
ATOM     19  C   UNL     1     114.951 125.156 136.322  0.00  0.00    +0.000 A 
ENDBRANCH   5  14
BRANCH  12  20
ATOM     20  O   UNL     1     111.634 127.248 141.234  0.00  0.00    +0.000 OA
ATOM     21  C   UNL     1     110.960 126.804 141.403  0.00  0.00    +0.000 C 
ENDBRANCH  12  20
TORSDOF 2
ENDMDL
MODEL 7
REMARK VINA RESULT:      -7.7     13.106     14.225
REMARK  Name = 44446832
REMARK  2 active torsions:
REMARK  status: ('A' for Active; 'I' for Inactive)
REMARK    1  A    between atoms: O_4  and  C_16
REMARK    2  A    between atoms: C_6  and  C_10
REMARK                            x       y       z     vdW  Elec       q    Type
REMARK                         _______ _______ _______ _____ _____    ______ ____
ROOT
ATOM      1  O   UNL     1     113.853 126.985 136.668  0.00  0.00    +0.000 OA
ATOM      2  O   UNL     1     112.046 127.881 135.833  0.00  0.00    +0.000 OA
ATOM      3  O   UNL     1     111.593 126.297 135.929  0.00  0.00    +0.000 OA
ATOM      4  O   UNL     1     114.483 124.231 137.372  0.00  0.00    +0.000 OA
ATOM      5  C   UNL     1     113.325 127.548 136.374  0.00  0.00    +0.000 C 
ATOM      6  C   UNL     1     112.572 127.318 136.127  0.00  0.00    +0.000 C 
ATOM      7  C   UNL     1     112.346 126.526 136.175  0.00  0.00    +0.000 C 
ATOM      8  C   UNL     1     112.873 125.964 136.470  0.00  0.00    +0.000 A 
ATOM      9  C   UNL     1     113.626 126.193 136.716  0.00  0.00    +0.000 A 
ATOM     10  C   UNL     1     112.625 125.142 136.515  0.00  0.00    +0.000 A 
ATOM     11  C   UNL     1     114.184 125.617 137.025  0.00  0.00    +0.000 A 
ATOM     12  C   UNL     1     113.169 124.552 136.821  0.00  0.00    +0.000 A 
ATOM     13  C   UNL     1     113.954 124.791 137.077  0.00  0.00    +0.000 A 
ENDROOT
BRANCH   5  14
ATOM     14  C   UNL     1     113.552 128.339 136.326  0.00  0.00    +0.000 A 
ATOM     15  C   UNL     1     113.957 128.613 135.660  0.00  0.00    +0.000 A 
ATOM     16  C   UNL     1     113.375 128.858 136.943  0.00  0.00    +0.000 A 
ATOM     17  C   UNL     1     114.184 129.404 135.612  0.00  0.00    +0.000 A 
ATOM     18  C   UNL     1     113.603 129.649 136.894  0.00  0.00    +0.000 A 
ATOM     19  C   UNL     1     114.007 129.923 136.229  0.00  0.00    +0.000 A 
ENDBRANCH   5  14
BRANCH  12  20
ATOM     20  O   UNL     1     112.940 123.761 136.868  0.00  0.00    +0.000 OA
ATOM     21  C   UNL     1     112.151 123.567 137.007  0.00  0.00    +0.000 C 
ENDBRANCH  12  20
TORSDOF 2
ENDMDL
MODEL 8
REMARK VINA RESULT:      -7.7     13.189     14.436
REMARK  Name = 44446832
REMARK  2 active torsions:
REMARK  status: ('A' for Active; 'I' for Inactive)
REMARK    1  A    between atoms: O_4  and  C_16
REMARK    2  A    between atoms: C_6  and  C_10
REMARK                            x       y       z     vdW  Elec       q    Type
REMARK                         _______ _______ _______ _____ _____    ______ ____
ROOT
ATOM      1  O   UNL     1     113.887 127.161 136.269  0.00  0.00    +0.000 OA
ATOM      2  O   UNL     1     112.817 126.660 138.104  0.00  0.00    +0.000 OA
ATOM      3  O   UNL     1     112.601 128.295 138.054  0.00  0.00    +0.000 OA
ATOM      4  O   UNL     1     114.332 129.713 134.940  0.00  0.00    +0.000 OA
ATOM      5  C   UNL     1     113.566 126.721 136.890  0.00  0.00    +0.000 C 
ATOM      6  C   UNL     1     113.137 127.099 137.485  0.00  0.00    +0.000 C 
ATOM      7  C   UNL     1     113.030 127.917 137.459  0.00  0.00    +0.000 C 
ATOM      8  C   UNL     1     113.350 128.356 136.839  0.00  0.00    +0.000 A 
ATOM      9  C   UNL     1     113.779 127.978 136.245  0.00  0.00    +0.000 A 
ATOM     10  C   UNL     1     113.231 129.208 136.824  0.00  0.00    +0.000 A 
ATOM     11  C   UNL     1     114.118 128.425 135.593  0.00  0.00    +0.000 A 
ATOM     12  C   UNL     1     113.563 129.670 136.181  0.00  0.00    +0.000 A 
ATOM     13  C   UNL     1     114.009 129.277 135.562  0.00  0.00    +0.000 A 
ENDROOT
BRANCH   5  14
ATOM     14  C   UNL     1     113.674 125.904 136.915  0.00  0.00    +0.000 A 
ATOM     15  C   UNL     1     114.339 125.587 137.288  0.00  0.00    +0.000 A 
ATOM     16  C   UNL     1     113.119 125.403 136.567  0.00  0.00    +0.000 A 
ATOM     17  C   UNL     1     114.447 124.770 137.313  0.00  0.00    +0.000 A 
ATOM     18  C   UNL     1     113.228 124.585 136.592  0.00  0.00    +0.000 A 
ATOM     19  C   UNL     1     113.892 124.269 136.965  0.00  0.00    +0.000 A 
ENDBRANCH   5  14
BRANCH  12  20
ATOM     20  O   UNL     1     113.454 130.488 136.158  0.00  0.00    +0.000 OA
ATOM     21  C   UNL     1     113.640 130.947 136.817  0.00  0.00    +0.000 C 
ENDBRANCH  12  20
TORSDOF 2
ENDMDL
MODEL 9
REMARK VINA RESULT:      -7.6      1.064      2.215
REMARK  Name = 44446832
REMARK  2 active torsions:
REMARK  status: ('A' for Active; 'I' for Inactive)
REMARK    1  A    between atoms: O_4  and  C_16
REMARK    2  A    between atoms: C_6  and  C_10
REMARK                            x       y       z     vdW  Elec       q    Type
REMARK                         _______ _______ _______ _____ _____    ______ ____
ROOT
ATOM      1  O   UNL     1     105.300 125.564 148.634  0.00  0.00    +0.000 OA
ATOM      2  O   UNL     1     105.678 124.081 147.078  0.00  0.00    +0.000 OA
ATOM      3  O   UNL     1     104.033 124.193 147.010  0.00  0.00    +0.000 OA
ATOM      4  O   UNL     1     102.819 126.735 149.611  0.00  0.00    +0.000 OA
ATOM      5  C   UNL     1     105.700 125.050 148.127  0.00  0.00    +0.000 C 
ATOM      6  C   UNL     1     105.278 124.593 147.585  0.00  0.00    +0.000 C 
ATOM      7  C   UNL     1     104.455 124.650 147.551  0.00  0.00    +0.000 C 
ATOM      8  C   UNL     1     104.055 125.162 148.058  0.00  0.00    +0.000 A 
ATOM      9  C   UNL     1     104.478 125.619 148.600  0.00  0.00    +0.000 A 
ATOM     10  C   UNL     1     103.198 125.212 148.013  0.00  0.00    +0.000 A 
ATOM     11  C   UNL     1     104.072 126.158 149.133  0.00  0.00    +0.000 A 
ATOM     12  C   UNL     1     102.776 125.744 148.538  0.00  0.00    +0.000 A 
ATOM     13  C   UNL     1     103.216 126.220 149.102  0.00  0.00    +0.000 A 
ENDROOT
BRANCH   5  14
ATOM     14  C   UNL     1     106.522 124.995 148.161  0.00  0.00    +0.000 A 
ATOM     15  C   UNL     1     106.882 124.578 148.777  0.00  0.00    +0.000 A 
ATOM     16  C   UNL     1     106.986 125.355 147.581  0.00  0.00    +0.000 A 
ATOM     17  C   UNL     1     107.704 124.523 148.812  0.00  0.00    +0.000 A 
ATOM     18  C   UNL     1     107.808 125.298 147.617  0.00  0.00    +0.000 A 
ATOM     19  C   UNL     1     108.167 124.883 148.232  0.00  0.00    +0.000 A 
ENDBRANCH   5  14
BRANCH  12  20
ATOM     20  O   UNL     1     101.954 125.798 148.502  0.00  0.00    +0.000 OA
ATOM     21  C   UNL     1     101.493 125.117 148.560  0.00  0.00    +0.000 C 
ENDBRANCH  12  20
TORSDOF 2
ENDMDL
MODEL 10
REMARK VINA RESULT:      -7.6      0.955      2.006
REMARK  Name = 44446832
REMARK  2 active torsions:
REMARK  status: ('A' for Active; 'I' for Inactive)
REMARK    1  A    between atoms: O_4  and  C_16
REMARK    2  A    between atoms: C_6  and  C_10
REMARK                            x       y       z     vdW  Elec       q    Type
REMARK                         _______ _______ _______ _____ _____    ______ ____
ROOT
ATOM      1  O   UNL     1     103.969 124.685 147.731  0.00  0.00    +0.000 OA
ATOM      2  O   UNL     1     105.413 124.239 146.156  0.00  0.00    +0.000 OA
ATOM      3  O   UNL     1     104.012 123.728 145.449  0.00  0.00    +0.000 OA
ATOM      4  O   UNL     1     101.085 124.301 147.858  0.00  0.00    +0.000 OA
ATOM      5  C   UNL     1     104.684 124.621 147.323  0.00  0.00    +0.000 C 
ATOM      6  C   UNL     1     104.698 124.302 146.562  0.00  0.00    +0.000 C 
ATOM      7  C   UNL     1     103.997 124.047 146.209  0.00  0.00    +0.000 C 
ATOM      8  C   UNL     1     103.283 124.110 146.616  0.00  0.00    +0.000 A 
ATOM      9  C   UNL     1     103.269 124.429 147.377  0.00  0.00    +0.000 A 
ATOM     10  C   UNL     1     102.560 123.840 146.237  0.00  0.00    +0.000 A 
ATOM     11  C   UNL     1     102.530 124.500 147.811  0.00  0.00    +0.000 A 
ATOM     12  C   UNL     1     101.813 123.904 146.656  0.00  0.00    +0.000 A 
ATOM     13  C   UNL     1     101.798 124.236 147.448  0.00  0.00    +0.000 A 
ENDROOT
BRANCH   5  14
ATOM     14  C   UNL     1     105.384 124.877 147.677  0.00  0.00    +0.000 A 
ATOM     15  C   UNL     1     105.639 125.655 147.570  0.00  0.00    +0.000 A 
ATOM     16  C   UNL     1     105.828 124.356 148.138  0.00  0.00    +0.000 A 
ATOM     17  C   UNL     1     106.339 125.910 147.924  0.00  0.00    +0.000 A 
ATOM     18  C   UNL     1     106.528 124.613 148.491  0.00  0.00    +0.000 A 
ATOM     19  C   UNL     1     106.783 125.389 148.385  0.00  0.00    +0.000 A 
ENDBRANCH   5  14
BRANCH  12  20
ATOM     20  O   UNL     1     101.114 123.648 146.300  0.00  0.00    +0.000 OA
ATOM     21  C   UNL     1     101.094 122.924 145.905  0.00  0.00    +0.000 C 
ENDBRANCH  12  20
TORSDOF 2
ENDMDL
