MODEL 1
REMARK VINA RESULT:      -7.7      0.000      0.000
REMARK  Name = 44259699
REMARK  6 active torsions:
REMARK  status: ('A' for Active; 'I' for Inactive)
REMARK    1  A    between atoms: O_2  and  C_16
REMARK    2  A    between atoms: O_2  and  C_23
REMARK    3  A    between atoms: O_3  and  C_11
REMARK    4  A    between atoms: O_6  and  C_22
REMARK    5  A    between atoms: C_10  and  C_13
REMARK    6  A    between atoms: C_23  and  C_24
REMARK                            x       y       z     vdW  Elec       q    Type
REMARK                         _______ _______ _______ _____ _____    ______ ____
ROOT
ATOM      1  O   UNL     1     105.540 125.885 141.478  0.00  0.00    +0.000 OA
ATOM      2  O   UNL     1     107.870 126.971 142.796  0.00  0.00    +0.000 OA
ATOM      3  O   UNL     1     107.982 125.862 141.881  0.00  0.00    +0.000 OA
ATOM      4  C   UNL     1     106.692 126.423 142.130  0.00  0.00    +0.000 A 
ATOM      5  C   UNL     1     105.878 126.431 141.996  0.00  0.00    +0.000 A 
ATOM      6  C   UNL     1     106.016 125.332 141.093  0.00  0.00    +0.000 A 
ATOM      7  C   UNL     1     106.830 125.324 141.227  0.00  0.00    +0.000 A 
ATOM      8  C   UNL     1     107.168 125.870 141.746  0.00  0.00    +0.000 A 
ATOM      9  C   UNL     1     107.056 126.987 142.669  0.00  0.00    +0.000 A 
ATOM     10  C   UNL     1     105.371 127.002 142.391  0.00  0.00    +0.000 A 
ATOM     11  C   UNL     1     105.717 127.573 142.932  0.00  0.00    +0.000 A 
ATOM     12  C   UNL     1     106.565 127.565 143.072  0.00  0.00    +0.000 A 
ENDROOT
BRANCH   6  14
ATOM     13  O   UNL     1     104.804 122.787 140.624  0.00  0.00    +0.000 OA
ATOM     14  C   UNL     1     105.679 124.786 140.575  0.00  0.00    +0.000 A 
ATOM     15  C   UNL     1     105.410 124.060 140.859  0.00  0.00    +0.000 A 
ATOM     16  C   UNL     1     105.609 124.967 139.773  0.00  0.00    +0.000 A 
ATOM     17  C   UNL     1     105.072 123.513 140.340  0.00  0.00    +0.000 A 
ATOM     18  C   UNL     1     105.272 124.421 139.255  0.00  0.00    +0.000 A 
ATOM     19  C   UNL     1     105.003 123.695 139.538  0.00  0.00    +0.000 A 
BRANCH  19  20
ATOM     20  O   UNL     1     104.666 123.149 139.021  0.00  0.00    +0.000 OA
ATOM     21  C   UNL     1     104.407 123.393 138.276  0.00  0.00    +0.000 C 
ENDBRANCH  19  20
ENDBRANCH   6  14
BRANCH   7  22
ATOM     22  O   UNL     1     107.307 124.771 140.844  0.00  0.00    +0.000 OA
ATOM     23  C   UNL     1     108.128 124.825 140.898  0.00  0.00    +0.000 C 
ENDBRANCH   7  22
BRANCH  11  24
ATOM     24  O   UNL     1     105.238 128.125 143.315  0.00  0.00    +0.000 OA
BRANCH  24  25
ATOM     25  C   UNL     1     104.781 128.651 142.873  0.00  0.00    +0.000 C 
BRANCH  25  26
ATOM     26  C   UNL     1     104.384 129.269 143.250  0.00  0.00    +0.000 C 
ATOM     27  C   UNL     1     103.834 129.721 142.833  0.00  0.00    +0.000 C 
ATOM     28  C   UNL     1     103.438 130.339 143.210  0.00  0.00    +0.000 C 
ATOM     29  C   UNL     1     103.682 129.556 142.040  0.00  0.00    +0.000 C 
ENDBRANCH  25  26
ENDBRANCH  24  25
ENDBRANCH  11  24
TORSDOF 6
ENDMDL
MODEL 2
REMARK VINA RESULT:      -7.7      7.639      9.551
REMARK  Name = 44259699
REMARK  6 active torsions:
REMARK  status: ('A' for Active; 'I' for Inactive)
REMARK    1  A    between atoms: O_2  and  C_16
REMARK    2  A    between atoms: O_2  and  C_23
REMARK    3  A    between atoms: O_3  and  C_11
REMARK    4  A    between atoms: O_6  and  C_22
REMARK    5  A    between atoms: C_10  and  C_13
REMARK    6  A    between atoms: C_23  and  C_24
REMARK                            x       y       z     vdW  Elec       q    Type
REMARK                         _______ _______ _______ _____ _____    ______ ____
ROOT
ATOM      1  O   UNL     1     111.361 129.103 136.240  0.00  0.00    +0.000 OA
ATOM      2  O   UNL     1     114.088 129.954 136.668  0.00  0.00    +0.000 OA
ATOM      3  O   UNL     1     112.998 130.897 136.717  0.00  0.00    +0.000 OA
ATOM      4  C   UNL     1     112.710 129.523 136.451  0.00  0.00    +0.000 A 
ATOM      5  C   UNL     1     112.164 128.925 136.292  0.00  0.00    +0.000 A 
ATOM      6  C   UNL     1     111.102 129.879 136.347  0.00  0.00    +0.000 A 
ATOM      7  C   UNL     1     111.648 130.477 136.506  0.00  0.00    +0.000 A 
ATOM      8  C   UNL     1     112.452 130.299 136.558  0.00  0.00    +0.000 A 
ATOM      9  C   UNL     1     113.551 129.350 136.508  0.00  0.00    +0.000 A 
ATOM     10  C   UNL     1     112.421 128.112 136.179  0.00  0.00    +0.000 A 
ATOM     11  C   UNL     1     113.257 127.921 136.232  0.00  0.00    +0.000 A 
ATOM     12  C   UNL     1     113.825 128.544 136.398  0.00  0.00    +0.000 A 
ENDROOT
BRANCH   6  14
ATOM     13  O   UNL     1     108.515 130.021 137.554  0.00  0.00    +0.000 OA
ATOM     14  C   UNL     1     110.299 130.057 136.295  0.00  0.00    +0.000 A 
ATOM     15  C   UNL     1     109.809 129.950 136.950  0.00  0.00    +0.000 A 
ATOM     16  C   UNL     1     109.984 130.343 135.588  0.00  0.00    +0.000 A 
ATOM     17  C   UNL     1     109.005 130.128 136.898  0.00  0.00    +0.000 A 
ATOM     18  C   UNL     1     109.181 130.521 135.536  0.00  0.00    +0.000 A 
ATOM     19  C   UNL     1     108.691 130.414 136.191  0.00  0.00    +0.000 A 
BRANCH  19  20
ATOM     20  O   UNL     1     107.887 130.592 136.140  0.00  0.00    +0.000 OA
ATOM     21  C   UNL     1     107.639 131.260 135.723  0.00  0.00    +0.000 C 
ENDBRANCH  19  20
ENDBRANCH   6  14
BRANCH   7  22
ATOM     22  O   UNL     1     111.390 131.253 136.613  0.00  0.00    +0.000 OA
ATOM     23  C   UNL     1     111.818 131.768 137.096  0.00  0.00    +0.000 C 
ENDBRANCH   7  22
BRANCH  11  24
ATOM     24  O   UNL     1     113.512 127.143 136.125  0.00  0.00    +0.000 OA
BRANCH  24  25
ATOM     25  C   UNL     1     113.690 126.673 136.780  0.00  0.00    +0.000 C 
BRANCH  25  26
ATOM     26  C   UNL     1     114.055 125.941 136.675  0.00  0.00    +0.000 C 
ATOM     27  C   UNL     1     114.203 125.457 137.325  0.00  0.00    +0.000 C 
ATOM     28  C   UNL     1     114.568 124.724 137.220  0.00  0.00    +0.000 C 
ATOM     29  C   UNL     1     113.986 125.705 138.082  0.00  0.00    +0.000 C 
ENDBRANCH  25  26
ENDBRANCH  24  25
ENDBRANCH  11  24
TORSDOF 6
ENDMDL
MODEL 3
REMARK VINA RESULT:      -7.7      7.246      8.436
REMARK  Name = 44259699
REMARK  6 active torsions:
REMARK  status: ('A' for Active; 'I' for Inactive)
REMARK    1  A    between atoms: O_2  and  C_16
REMARK    2  A    between atoms: O_2  and  C_23
REMARK    3  A    between atoms: O_3  and  C_11
REMARK    4  A    between atoms: O_6  and  C_22
REMARK    5  A    between atoms: C_10  and  C_13
REMARK    6  A    between atoms: C_23  and  C_24
REMARK                            x       y       z     vdW  Elec       q    Type
REMARK                         _______ _______ _______ _____ _____    ______ ____
ROOT
ATOM      1  O   UNL     1     111.293 127.358 136.492  0.00  0.00    +0.000 OA
ATOM      2  O   UNL     1     111.880 124.535 136.326  0.00  0.00    +0.000 OA
ATOM      3  O   UNL     1     110.831 125.125 135.531  0.00  0.00    +0.000 OA
ATOM      4  C   UNL     1     111.584 125.962 136.410  0.00  0.00    +0.000 A 
ATOM      5  C   UNL     1     111.739 126.707 136.731  0.00  0.00    +0.000 A 
ATOM      6  C   UNL     1     110.694 127.267 135.932  0.00  0.00    +0.000 A 
ATOM      7  C   UNL     1     110.540 126.522 135.612  0.00  0.00    +0.000 A 
ATOM      8  C   UNL     1     110.985 125.869 135.851  0.00  0.00    +0.000 A 
ATOM      9  C   UNL     1     112.041 125.275 136.651  0.00  0.00    +0.000 A 
ATOM     10  C   UNL     1     112.360 126.816 137.314  0.00  0.00    +0.000 A 
ATOM     11  C   UNL     1     112.827 126.141 137.567  0.00  0.00    +0.000 A 
ATOM     12  C   UNL     1     112.667 125.365 137.233  0.00  0.00    +0.000 A 
ENDROOT
BRANCH   6  14
ATOM     13  O   UNL     1     108.337 128.868 136.151  0.00  0.00    +0.000 OA
ATOM     14  C   UNL     1     110.249 127.918 135.693  0.00  0.00    +0.000 A 
ATOM     15  C   UNL     1     109.516 128.067 136.042  0.00  0.00    +0.000 A 
ATOM     16  C   UNL     1     110.536 128.422 135.106  0.00  0.00    +0.000 A 
ATOM     17  C   UNL     1     109.070 128.719 135.803  0.00  0.00    +0.000 A 
ATOM     18  C   UNL     1     110.091 129.073 134.867  0.00  0.00    +0.000 A 
ATOM     19  C   UNL     1     109.358 129.222 135.215  0.00  0.00    +0.000 A 
BRANCH  19  20
ATOM     20  O   UNL     1     108.912 129.874 134.977  0.00  0.00    +0.000 OA
ATOM     21  C   UNL     1     109.282 130.515 134.612  0.00  0.00    +0.000 C 
ENDBRANCH  19  20
ENDBRANCH   6  14
BRANCH   7  22
ATOM     22  O   UNL     1     109.941 126.429 135.053  0.00  0.00    +0.000 OA
ATOM     23  C   UNL     1     109.870 125.720 134.638  0.00  0.00    +0.000 C 
ENDBRANCH   7  22
BRANCH  11  24
ATOM     24  O   UNL     1     113.426 126.236 138.127  0.00  0.00    +0.000 OA
BRANCH  24  25
ATOM     25  C   UNL     1     113.238 126.458 138.899  0.00  0.00    +0.000 C 
BRANCH  25  26
ATOM     26  C   UNL     1     113.836 126.673 139.424  0.00  0.00    +0.000 C 
ATOM     27  C   UNL     1     113.652 126.869 140.203  0.00  0.00    +0.000 C 
ATOM     28  C   UNL     1     114.250 127.085 140.728  0.00  0.00    +0.000 C 
ATOM     29  C   UNL     1     112.867 126.850 140.458  0.00  0.00    +0.000 C 
ENDBRANCH  25  26
ENDBRANCH  24  25
ENDBRANCH  11  24
TORSDOF 6
ENDMDL
MODEL 4
REMARK VINA RESULT:      -7.6      3.188      6.169
REMARK  Name = 44259699
REMARK  6 active torsions:
REMARK  status: ('A' for Active; 'I' for Inactive)
REMARK    1  A    between atoms: O_2  and  C_16
REMARK    2  A    between atoms: O_2  and  C_23
REMARK    3  A    between atoms: O_3  and  C_11
REMARK    4  A    between atoms: O_6  and  C_22
REMARK    5  A    between atoms: C_10  and  C_13
REMARK    6  A    between atoms: C_23  and  C_24
REMARK                            x       y       z     vdW  Elec       q    Type
REMARK                         _______ _______ _______ _____ _____    ______ ____
ROOT
ATOM      1  O   UNL     1     103.714 129.969 142.275  0.00  0.00    +0.000 OA
ATOM      2  O   UNL     1     104.513 127.510 140.986  0.00  0.00    +0.000 OA
ATOM      3  O   UNL     1     103.562 128.400 140.367  0.00  0.00    +0.000 OA
ATOM      4  C   UNL     1     104.110 128.753 141.639  0.00  0.00    +0.000 A 
ATOM      5  C   UNL     1     104.160 129.276 142.275  0.00  0.00    +0.000 A 
ATOM      6  C   UNL     1     103.216 130.141 141.639  0.00  0.00    +0.000 A 
ATOM      7  C   UNL     1     103.166 129.618 141.003  0.00  0.00    +0.000 A 
ATOM      8  C   UNL     1     103.613 128.923 141.003  0.00  0.00    +0.000 A 
ATOM      9  C   UNL     1     104.570 128.027 141.626  0.00  0.00    +0.000 A 
ATOM     10  C   UNL     1     104.675 129.110 142.943  0.00  0.00    +0.000 A 
ATOM     11  C   UNL     1     105.142 128.389 142.948  0.00  0.00    +0.000 A 
ATOM     12  C   UNL     1     105.089 127.844 142.285  0.00  0.00    +0.000 A 
ENDROOT
BRANCH   6  14
ATOM     13  O   UNL     1     102.949 132.912 140.995  0.00  0.00    +0.000 OA
ATOM     14  C   UNL     1     102.770 130.834 141.639  0.00  0.00    +0.000 A 
ATOM     15  C   UNL     1     103.083 131.526 141.317  0.00  0.00    +0.000 A 
ATOM     16  C   UNL     1     102.010 130.836 141.961  0.00  0.00    +0.000 A 
ATOM     17  C   UNL     1     102.636 132.220 141.317  0.00  0.00    +0.000 A 
ATOM     18  C   UNL     1     101.563 131.529 141.961  0.00  0.00    +0.000 A 
ATOM     19  C   UNL     1     101.877 132.221 141.639  0.00  0.00    +0.000 A 
BRANCH  19  20
ATOM     20  O   UNL     1     101.430 132.915 141.639  0.00  0.00    +0.000 OA
ATOM     21  C   UNL     1     100.722 132.950 142.061  0.00  0.00    +0.000 C 
ENDBRANCH  19  20
ENDBRANCH   6  14
BRANCH   7  22
ATOM     22  O   UNL     1     102.669 129.788 140.367  0.00  0.00    +0.000 OA
ATOM     23  C   UNL     1     102.437 129.186 139.852  0.00  0.00    +0.000 C 
ENDBRANCH   7  22
BRANCH  11  24
ATOM     24  O   UNL     1     105.639 128.221 143.585  0.00  0.00    +0.000 OA
BRANCH  24  25
ATOM     25  C   UNL     1     105.376 127.731 144.195  0.00  0.00    +0.000 C 
BRANCH  25  26
ATOM     26  C   UNL     1     105.725 127.777 144.941  0.00  0.00    +0.000 C 
ATOM     27  C   UNL     1     105.669 127.141 145.463  0.00  0.00    +0.000 C 
ATOM     28  C   UNL     1     106.018 127.187 146.209  0.00  0.00    +0.000 C 
ATOM     29  C   UNL     1     105.264 126.458 145.239  0.00  0.00    +0.000 C 
ENDBRANCH  25  26
ENDBRANCH  24  25
ENDBRANCH  11  24
TORSDOF 6
ENDMDL
MODEL 5
REMARK VINA RESULT:      -7.5      7.792     10.027
REMARK  Name = 44259699
REMARK  6 active torsions:
REMARK  status: ('A' for Active; 'I' for Inactive)
REMARK    1  A    between atoms: O_2  and  C_16
REMARK    2  A    between atoms: O_2  and  C_23
REMARK    3  A    between atoms: O_3  and  C_11
REMARK    4  A    between atoms: O_6  and  C_22
REMARK    5  A    between atoms: C_10  and  C_13
REMARK    6  A    between atoms: C_23  and  C_24
REMARK                            x       y       z     vdW  Elec       q    Type
REMARK                         _______ _______ _______ _____ _____    ______ ____
ROOT
ATOM      1  O   UNL     1     113.302 128.733 138.032  0.00  0.00    +0.000 OA
ATOM      2  O   UNL     1     111.809 128.971 135.570  0.00  0.00    +0.000 OA
ATOM      3  O   UNL     1     111.990 130.105 136.443  0.00  0.00    +0.000 OA
ATOM      4  C   UNL     1     112.564 128.850 136.815  0.00  0.00    +0.000 A 
ATOM      5  C   UNL     1     113.001 128.393 137.344  0.00  0.00    +0.000 A 
ATOM      6  C   UNL     1     113.166 129.532 138.191  0.00  0.00    +0.000 A 
ATOM      7  C   UNL     1     112.729 129.989 137.662  0.00  0.00    +0.000 A 
ATOM      8  C   UNL     1     112.427 129.648 136.973  0.00  0.00    +0.000 A 
ATOM      9  C   UNL     1     112.244 128.507 136.093  0.00  0.00    +0.000 A 
ATOM     10  C   UNL     1     113.149 127.560 137.190  0.00  0.00    +0.000 A 
ATOM     11  C   UNL     1     112.838 127.200 136.475  0.00  0.00    +0.000 A 
ATOM     12  C   UNL     1     112.382 127.676 135.923  0.00  0.00    +0.000 A 
ENDROOT
BRANCH   6  14
ATOM     13  O   UNL     1     112.920 130.108 140.980  0.00  0.00    +0.000 OA
ATOM     14  C   UNL     1     113.467 129.872 138.879  0.00  0.00    +0.000 A 
ATOM     15  C   UNL     1     113.043 129.820 139.585  0.00  0.00    +0.000 A 
ATOM     16  C   UNL     1     114.192 130.266 138.862  0.00  0.00    +0.000 A 
ATOM     17  C   UNL     1     113.344 130.161 140.274  0.00  0.00    +0.000 A 
ATOM     18  C   UNL     1     114.493 130.607 139.550  0.00  0.00    +0.000 A 
ATOM     19  C   UNL     1     114.069 130.554 140.256  0.00  0.00    +0.000 A 
BRANCH  19  20
ATOM     20  O   UNL     1     114.369 130.895 140.944  0.00  0.00    +0.000 OA
ATOM     21  C   UNL     1     115.145 131.177 140.960  0.00  0.00    +0.000 C 
ENDBRANCH  19  20
ENDBRANCH   6  14
BRANCH   7  22
ATOM     22  O   UNL     1     112.593 130.787 137.820  0.00  0.00    +0.000 OA
ATOM     23  C   UNL     1     111.966 131.179 137.455  0.00  0.00    +0.000 C 
ENDBRANCH   7  22
BRANCH  11  24
ATOM     24  O   UNL     1     112.975 126.401 136.319  0.00  0.00    +0.000 OA
BRANCH  24  25
ATOM     25  C   UNL     1     112.467 125.828 136.624  0.00  0.00    +0.000 C 
BRANCH  25  26
ATOM     26  C   UNL     1     112.609 125.029 136.475  0.00  0.00    +0.000 C 
ATOM     27  C   UNL     1     112.113 124.454 136.797  0.00  0.00    +0.000 C 
ATOM     28  C   UNL     1     112.256 123.655 136.648  0.00  0.00    +0.000 C 
ATOM     29  C   UNL     1     111.475 124.678 137.269  0.00  0.00    +0.000 C 
ENDBRANCH  25  26
ENDBRANCH  24  25
ENDBRANCH  11  24
TORSDOF 6
ENDMDL
MODEL 6
REMARK VINA RESULT:      -7.5      6.977      8.337
REMARK  Name = 44259699
REMARK  6 active torsions:
REMARK  status: ('A' for Active; 'I' for Inactive)
REMARK    1  A    between atoms: O_2  and  C_16
REMARK    2  A    between atoms: O_2  and  C_23
REMARK    3  A    between atoms: O_3  and  C_11
REMARK    4  A    between atoms: O_6  and  C_22
REMARK    5  A    between atoms: C_10  and  C_13
REMARK    6  A    between atoms: C_23  and  C_24
REMARK                            x       y       z     vdW  Elec       q    Type
REMARK                         _______ _______ _______ _____ _____    ______ ____
ROOT
ATOM      1  O   UNL     1     111.675 126.990 136.949  0.00  0.00    +0.000 OA
ATOM      2  O   UNL     1     110.506 125.346 134.882  0.00  0.00    +0.000 OA
ATOM      3  O   UNL     1     111.131 124.754 136.038  0.00  0.00    +0.000 OA
ATOM      4  C   UNL     1     111.097 126.178 135.926  0.00  0.00    +0.000 A 
ATOM      5  C   UNL     1     111.278 126.923 136.230  0.00  0.00    +0.000 A 
ATOM      6  C   UNL     1     111.891 126.311 137.366  0.00  0.00    +0.000 A 
ATOM      7  C   UNL     1     111.710 125.566 137.063  0.00  0.00    +0.000 A 
ATOM      8  C   UNL     1     111.312 125.499 136.342  0.00  0.00    +0.000 A 
ATOM      9  C   UNL     1     110.683 126.095 135.177  0.00  0.00    +0.000 A 
ATOM     10  C   UNL     1     111.058 127.638 135.806  0.00  0.00    +0.000 A 
ATOM     11  C   UNL     1     110.645 127.575 135.055  0.00  0.00    +0.000 A 
ATOM     12  C   UNL     1     110.456 126.798 134.739  0.00  0.00    +0.000 A 
ENDROOT
BRANCH   6  14
ATOM     13  O   UNL     1     111.832 126.500 140.217  0.00  0.00    +0.000 OA
ATOM     14  C   UNL     1     112.288 126.378 138.086  0.00  0.00    +0.000 A 
ATOM     15  C   UNL     1     111.861 126.405 138.791  0.00  0.00    +0.000 A 
ATOM     16  C   UNL     1     113.112 126.416 138.101  0.00  0.00    +0.000 A 
ATOM     17  C   UNL     1     112.259 126.472 139.512  0.00  0.00    +0.000 A 
ATOM     18  C   UNL     1     113.509 126.482 138.821  0.00  0.00    +0.000 A 
ATOM     19  C   UNL     1     113.082 126.510 139.526  0.00  0.00    +0.000 A 
BRANCH  19  20
ATOM     20  O   UNL     1     113.479 126.577 140.246  0.00  0.00    +0.000 OA
ATOM     21  C   UNL     1     114.248 126.876 140.267  0.00  0.00    +0.000 C 
ENDBRANCH  19  20
ENDBRANCH   6  14
BRANCH   7  22
ATOM     22  O   UNL     1     111.925 124.887 137.478  0.00  0.00    +0.000 OA
ATOM     23  C   UNL     1     111.767 124.141 137.163  0.00  0.00    +0.000 C 
ENDBRANCH   7  22
BRANCH  11  24
ATOM     24  O   UNL     1     110.430 128.255 134.641  0.00  0.00    +0.000 OA
BRANCH  24  25
ATOM     25  C   UNL     1     109.975 128.837 135.010  0.00  0.00    +0.000 C 
BRANCH  25  26
ATOM     26  C   UNL     1     109.888 129.578 134.658  0.00  0.00    +0.000 C 
ATOM     27  C   UNL     1     109.358 130.125 134.972  0.00  0.00    +0.000 C 
ATOM     28  C   UNL     1     109.271 130.866 134.620  0.00  0.00    +0.000 C 
ATOM     29  C   UNL     1     108.913 129.931 135.640  0.00  0.00    +0.000 C 
ENDBRANCH  25  26
ENDBRANCH  24  25
ENDBRANCH  11  24
TORSDOF 6
ENDMDL
MODEL 7
REMARK VINA RESULT:      -7.5      7.853      9.982
REMARK  Name = 44259699
REMARK  6 active torsions:
REMARK  status: ('A' for Active; 'I' for Inactive)
REMARK    1  A    between atoms: O_2  and  C_16
REMARK    2  A    between atoms: O_2  and  C_23
REMARK    3  A    between atoms: O_3  and  C_11
REMARK    4  A    between atoms: O_6  and  C_22
REMARK    5  A    between atoms: C_10  and  C_13
REMARK    6  A    between atoms: C_23  and  C_24
REMARK                            x       y       z     vdW  Elec       q    Type
REMARK                         _______ _______ _______ _____ _____    ______ ____
ROOT
ATOM      1  O   UNL     1     112.003 129.161 136.942  0.00  0.00    +0.000 OA
ATOM      2  O   UNL     1     114.487 128.309 135.739  0.00  0.00    +0.000 OA
ATOM      3  O   UNL     1     114.296 129.674 136.163  0.00  0.00    +0.000 OA
ATOM      4  C   UNL     1     113.231 128.739 136.347  0.00  0.00    +0.000 A 
ATOM      5  C   UNL     1     112.467 128.568 136.607  0.00  0.00    +0.000 A 
ATOM      6  C   UNL     1     112.303 129.926 137.019  0.00  0.00    +0.000 A 
ATOM      7  C   UNL     1     113.067 130.097 136.759  0.00  0.00    +0.000 A 
ATOM      8  C   UNL     1     113.532 129.503 136.423  0.00  0.00    +0.000 A 
ATOM      9  C   UNL     1     113.725 128.129 135.995  0.00  0.00    +0.000 A 
ATOM     10  C   UNL     1     112.143 127.775 136.533  0.00  0.00    +0.000 A 
ATOM     11  C   UNL     1     112.622 127.153 136.184  0.00  0.00    +0.000 A 
ATOM     12  C   UNL     1     113.418 127.331 135.913  0.00  0.00    +0.000 A 
ENDROOT
BRANCH   6  14
ATOM     13  O   UNL     1     111.272 131.251 139.332  0.00  0.00    +0.000 OA
ATOM     14  C   UNL     1     111.839 130.520 137.354  0.00  0.00    +0.000 A 
ATOM     15  C   UNL     1     111.788 130.588 138.175  0.00  0.00    +0.000 A 
ATOM     16  C   UNL     1     111.427 131.045 136.870  0.00  0.00    +0.000 A 
ATOM     17  C   UNL     1     111.324 131.183 138.511  0.00  0.00    +0.000 A 
ATOM     18  C   UNL     1     110.963 131.639 137.206  0.00  0.00    +0.000 A 
ATOM     19  C   UNL     1     110.912 131.707 138.026  0.00  0.00    +0.000 A 
BRANCH  19  20
ATOM     20  O   UNL     1     110.448 132.301 138.363  0.00  0.00    +0.000 OA
ATOM     21  C   UNL     1     110.086 132.864 137.880  0.00  0.00    +0.000 C 
ENDBRANCH  19  20
ENDBRANCH   6  14
BRANCH   7  22
ATOM     22  O   UNL     1     113.368 130.862 136.835  0.00  0.00    +0.000 OA
ATOM     23  C   UNL     1     114.182 130.989 136.811  0.00  0.00    +0.000 C 
ENDBRANCH   7  22
BRANCH  11  24
ATOM     24  O   UNL     1     112.319 126.389 136.109  0.00  0.00    +0.000 OA
BRANCH  24  25
ATOM     25  C   UNL     1     112.657 125.768 136.535  0.00  0.00    +0.000 C 
BRANCH  25  26
ATOM     26  C   UNL     1     112.296 125.026 136.539  0.00  0.00    +0.000 C 
ATOM     27  C   UNL     1     112.691 124.376 136.857  0.00  0.00    +0.000 C 
ATOM     28  C   UNL     1     112.330 123.634 136.860  0.00  0.00    +0.000 C 
ATOM     29  C   UNL     1     113.448 124.468 137.172  0.00  0.00    +0.000 C 
ENDBRANCH  25  26
ENDBRANCH  24  25
ENDBRANCH  11  24
TORSDOF 6
ENDMDL
MODEL 8
REMARK VINA RESULT:      -7.5      8.009      9.642
REMARK  Name = 44259699
REMARK  6 active torsions:
REMARK  status: ('A' for Active; 'I' for Inactive)
REMARK    1  A    between atoms: O_2  and  C_16
REMARK    2  A    between atoms: O_2  and  C_23
REMARK    3  A    between atoms: O_3  and  C_11
REMARK    4  A    between atoms: O_6  and  C_22
REMARK    5  A    between atoms: C_10  and  C_13
REMARK    6  A    between atoms: C_23  and  C_24
REMARK                            x       y       z     vdW  Elec       q    Type
REMARK                         _______ _______ _______ _____ _____    ______ ____
ROOT
ATOM      1  O   UNL     1     112.696 128.830 138.447  0.00  0.00    +0.000 OA
ATOM      2  O   UNL     1     114.095 127.795 140.752  0.00  0.00    +0.000 OA
ATOM      3  O   UNL     1     113.879 129.211 140.587  0.00  0.00    +0.000 OA
ATOM      4  C   UNL     1     113.388 128.317 139.586  0.00  0.00    +0.000 A 
ATOM      5  C   UNL     1     112.993 128.190 138.873  0.00  0.00    +0.000 A 
ATOM      6  C   UNL     1     112.792 129.598 138.733  0.00  0.00    +0.000 A 
ATOM      7  C   UNL     1     113.187 129.725 139.446  0.00  0.00    +0.000 A 
ATOM      8  C   UNL     1     113.485 129.084 139.873  0.00  0.00    +0.000 A 
ATOM      9  C   UNL     1     113.703 127.658 140.040  0.00  0.00    +0.000 A 
ATOM     10  C   UNL     1     112.886 127.395 138.564  0.00  0.00    +0.000 A 
ATOM     11  C   UNL     1     113.194 126.724 139.003  0.00  0.00    +0.000 A 
ATOM     12  C   UNL     1     113.605 126.857 139.747  0.00  0.00    +0.000 A 
ENDROOT
BRANCH   6  14
ATOM     13  O   UNL     1     113.126 131.604 136.725  0.00  0.00    +0.000 OA
ATOM     14  C   UNL     1     112.495 130.238 138.307  0.00  0.00    +0.000 A 
ATOM     15  C   UNL     1     112.959 130.600 137.729  0.00  0.00    +0.000 A 
ATOM     16  C   UNL     1     111.733 130.517 138.458  0.00  0.00    +0.000 A 
ATOM     17  C   UNL     1     112.662 131.241 137.303  0.00  0.00    +0.000 A 
ATOM     18  C   UNL     1     111.436 131.157 138.032  0.00  0.00    +0.000 A 
ATOM     19  C   UNL     1     111.900 131.519 137.454  0.00  0.00    +0.000 A 
BRANCH  19  20
ATOM     20  O   UNL     1     111.603 132.159 137.027  0.00  0.00    +0.000 OA
ATOM     21  C   UNL     1     110.853 132.457 137.200  0.00  0.00    +0.000 C 
ENDBRANCH  19  20
ENDBRANCH   6  14
BRANCH   7  22
ATOM     22  O   UNL     1     113.284 130.492 139.734  0.00  0.00    +0.000 OA
ATOM     23  C   UNL     1     113.776 130.632 140.381  0.00  0.00    +0.000 C 
ENDBRANCH   7  22
BRANCH  11  24
ATOM     24  O   UNL     1     113.096 125.958 138.714  0.00  0.00    +0.000 OA
BRANCH  24  25
ATOM     25  C   UNL     1     113.565 125.689 138.092  0.00  0.00    +0.000 C 
BRANCH  25  26
ATOM     26  C   UNL     1     113.292 125.085 137.600  0.00  0.00    +0.000 C 
ATOM     27  C   UNL     1     113.820 124.676 137.115  0.00  0.00    +0.000 C 
ATOM     28  C   UNL     1     113.547 124.073 136.624  0.00  0.00    +0.000 C 
ATOM     29  C   UNL     1     114.621 124.872 137.122  0.00  0.00    +0.000 C 
ENDBRANCH  25  26
ENDBRANCH  24  25
ENDBRANCH  11  24
TORSDOF 6
ENDMDL
MODEL 9
REMARK VINA RESULT:      -7.5      8.048     10.093
REMARK  Name = 44259699
REMARK  6 active torsions:
REMARK  status: ('A' for Active; 'I' for Inactive)
REMARK    1  A    between atoms: O_2  and  C_16
REMARK    2  A    between atoms: O_2  and  C_23
REMARK    3  A    between atoms: O_3  and  C_11
REMARK    4  A    between atoms: O_6  and  C_22
REMARK    5  A    between atoms: C_10  and  C_13
REMARK    6  A    between atoms: C_23  and  C_24
REMARK                            x       y       z     vdW  Elec       q    Type
REMARK                         _______ _______ _______ _____ _____    ______ ____
ROOT
ATOM      1  O   UNL     1     112.286 127.642 135.726  0.00  0.00    +0.000 OA
ATOM      2  O   UNL     1     109.512 127.290 135.001  0.00  0.00    +0.000 OA
ATOM      3  O   UNL     1     110.122 128.597 134.995  0.00  0.00    +0.000 OA
ATOM      4  C   UNL     1     110.914 127.467 135.368  0.00  0.00    +0.000 A 
ATOM      5  C   UNL     1     111.635 127.149 135.612  0.00  0.00    +0.000 A 
ATOM      6  C   UNL     1     112.216 128.454 135.598  0.00  0.00    +0.000 A 
ATOM      7  C   UNL     1     111.495 128.772 135.354  0.00  0.00    +0.000 A 
ATOM      8  C   UNL     1     110.843 128.279 135.239  0.00  0.00    +0.000 A 
ATOM      9  C   UNL     1     110.228 126.963 135.245  0.00  0.00    +0.000 A 
ATOM     10  C   UNL     1     111.721 126.304 135.749  0.00  0.00    +0.000 A 
ATOM     11  C   UNL     1     111.046 125.785 135.631  0.00  0.00    +0.000 A 
ATOM     12  C   UNL     1     110.295 126.117 135.377  0.00  0.00    +0.000 A 
ENDROOT
BRANCH   6  14
ATOM     13  O   UNL     1     113.822 130.070 137.322  0.00  0.00    +0.000 OA
ATOM     14  C   UNL     1     112.867 128.947 135.712  0.00  0.00    +0.000 A 
ATOM     15  C   UNL     1     113.019 129.262 136.460  0.00  0.00    +0.000 A 
ATOM     16  C   UNL     1     113.366 129.127 135.080  0.00  0.00    +0.000 A 
ATOM     17  C   UNL     1     113.670 129.756 136.575  0.00  0.00    +0.000 A 
ATOM     18  C   UNL     1     114.016 129.620 135.195  0.00  0.00    +0.000 A 
ATOM     19  C   UNL     1     114.168 129.935 135.942  0.00  0.00    +0.000 A 
BRANCH  19  20
ATOM     20  O   UNL     1     114.819 130.429 136.058  0.00  0.00    +0.000 OA
ATOM     21  C   UNL     1     115.303 130.628 135.420  0.00  0.00    +0.000 C 
ENDBRANCH  19  20
ENDBRANCH   6  14
BRANCH   7  22
ATOM     22  O   UNL     1     111.424 129.584 135.225  0.00  0.00    +0.000 OA
ATOM     23  C   UNL     1     110.678 129.934 135.192  0.00  0.00    +0.000 C 
ENDBRANCH   7  22
BRANCH  11  24
ATOM     24  O   UNL     1     111.119 124.974 135.761  0.00  0.00    +0.000 OA
BRANCH  24  25
ATOM     25  C   UNL     1     111.681 124.690 136.293  0.00  0.00    +0.000 C 
BRANCH  25  26
ATOM     26  C   UNL     1     111.583 123.949 136.642  0.00  0.00    +0.000 C 
ATOM     27  C   UNL     1     112.231 123.553 136.962  0.00  0.00    +0.000 C 
ATOM     28  C   UNL     1     112.132 122.812 137.310  0.00  0.00    +0.000 C 
ATOM     29  C   UNL     1     112.980 123.899 136.934  0.00  0.00    +0.000 C 
ENDBRANCH  25  26
ENDBRANCH  24  25
ENDBRANCH  11  24
TORSDOF 6
ENDMDL
MODEL 10
REMARK VINA RESULT:      -7.4      1.683      5.143
REMARK  Name = 44259699
REMARK  6 active torsions:
REMARK  status: ('A' for Active; 'I' for Inactive)
REMARK    1  A    between atoms: O_2  and  C_16
REMARK    2  A    between atoms: O_2  and  C_23
REMARK    3  A    between atoms: O_3  and  C_11
REMARK    4  A    between atoms: O_6  and  C_22
REMARK    5  A    between atoms: C_10  and  C_13
REMARK    6  A    between atoms: C_23  and  C_24
REMARK                            x       y       z     vdW  Elec       q    Type
REMARK                         _______ _______ _______ _____ _____    ______ ____
ROOT
ATOM      1  O   UNL     1     106.089 125.494 140.814  0.00  0.00    +0.000 OA
ATOM      2  O   UNL     1     104.731 123.094 141.673  0.00  0.00    +0.000 OA
ATOM      3  O   UNL     1     105.287 124.018 142.631  0.00  0.00    +0.000 OA
ATOM      4  C   UNL     1     105.418 124.307 141.238  0.00  0.00    +0.000 A 
ATOM      5  C   UNL     1     105.685 124.799 140.632  0.00  0.00    +0.000 A 
ATOM      6  C   UNL     1     106.227 125.698 141.602  0.00  0.00    +0.000 A 
ATOM      7  C   UNL     1     105.960 125.206 142.207  0.00  0.00    +0.000 A 
ATOM      8  C   UNL     1     105.554 124.510 142.025  0.00  0.00    +0.000 A 
ATOM      9  C   UNL     1     104.994 123.579 141.062  0.00  0.00    +0.000 A 
ATOM     10  C   UNL     1     105.548 124.598 139.807  0.00  0.00    +0.000 A 
ATOM     11  C   UNL     1     105.127 123.875 139.612  0.00  0.00    +0.000 A 
ATOM     12  C   UNL     1     104.849 123.362 140.243  0.00  0.00    +0.000 A 
ENDROOT
BRANCH   6  14
ATOM     13  O   UNL     1     108.682 127.077 142.090  0.00  0.00    +0.000 OA
ATOM     14  C   UNL     1     106.631 126.393 141.783  0.00  0.00    +0.000 A 
ATOM     15  C   UNL     1     107.454 126.387 141.846  0.00  0.00    +0.000 A 
ATOM     16  C   UNL     1     106.214 127.095 141.903  0.00  0.00    +0.000 A 
ATOM     17  C   UNL     1     107.859 127.083 142.028  0.00  0.00    +0.000 A 
ATOM     18  C   UNL     1     106.619 127.790 142.085  0.00  0.00    +0.000 A 
ATOM     19  C   UNL     1     107.441 127.784 142.148  0.00  0.00    +0.000 A 
BRANCH  19  20
ATOM     20  O   UNL     1     107.846 128.479 142.330  0.00  0.00    +0.000 OA
ATOM     21  C   UNL     1     107.449 129.203 142.320  0.00  0.00    +0.000 C 
ENDBRANCH  19  20
ENDBRANCH   6  14
BRANCH   7  22
ATOM     22  O   UNL     1     106.096 125.409 142.995  0.00  0.00    +0.000 OA
ATOM     23  C   UNL     1     105.854 124.903 143.600  0.00  0.00    +0.000 C 
ENDBRANCH   7  22
BRANCH  11  24
ATOM     24  O   UNL     1     104.992 123.674 138.823  0.00  0.00    +0.000 OA
BRANCH  24  25
ATOM     25  C   UNL     1     104.226 123.698 138.518  0.00  0.00    +0.000 C 
BRANCH  25  26
ATOM     26  C   UNL     1     104.078 123.426 137.753  0.00  0.00    +0.000 C 
ATOM     27  C   UNL     1     103.309 123.426 137.456  0.00  0.00    +0.000 C 
ATOM     28  C   UNL     1     103.162 123.154 136.691  0.00  0.00    +0.000 C 
ATOM     29  C   UNL     1     102.687 123.697 137.924  0.00  0.00    +0.000 C 
ENDBRANCH  25  26
ENDBRANCH  24  25
ENDBRANCH  11  24
TORSDOF 6
ENDMDL
