MODEL 1
REMARK VINA RESULT:     -10.4      0.000      0.000
REMARK  Name = 74977792
REMARK  7 active torsions:
REMARK  status: ('A' for Active; 'I' for Inactive)
REMARK    1  A    between atoms: O_6  and  C_27
REMARK    2  A    between atoms: O_6  and  C_36
REMARK    3  A    between atoms: O_12  and  C_29
REMARK    4  A    between atoms: C_18  and  C_21
REMARK    5  A    between atoms: C_20  and  C_26
REMARK    6  A    between atoms: C_25  and  C_30
REMARK    7  A    between atoms: C_34  and  C_38
REMARK                            x       y       z     vdW  Elec       q    Type
REMARK                         _______ _______ _______ _____ _____    ______ ____
ROOT
ATOM      1  O   UNL     1     111.377 127.205 136.109  0.00  0.00    +0.000 OA
ATOM      2  O   UNL     1     111.794 124.346 135.939  0.00  0.00    +0.000 OA
ATOM      3  O   UNL     1     110.559 124.903 135.443  0.00  0.00    +0.000 OA
ATOM      4  C   UNL     1     112.601 126.593 136.593  0.00  0.00    +0.000 A 
ATOM      5  C   UNL     1     111.860 126.506 136.242  0.00  0.00    +0.000 A 
ATOM      6  C   UNL     1     113.074 125.930 136.726  0.00  0.00    +0.000 A 
ATOM      7  C   UNL     1     111.591 125.757 136.024  0.00  0.00    +0.000 A 
ATOM      8  C   UNL     1     112.805 125.180 136.508  0.00  0.00    +0.000 A 
ATOM      9  C   UNL     1     112.063 125.094 136.157  0.00  0.00    +0.000 A 
ATOM     10  C   UNL     1     110.603 127.121 135.744  0.00  0.00    +0.000 A 
ATOM     11  C   UNL     1     110.821 125.655 135.658  0.00  0.00    +0.000 A 
ATOM     12  C   UNL     1     110.323 126.342 135.517  0.00  0.00    +0.000 A 
ENDROOT
BRANCH   4  19
ATOM     13  O   UNL     1     113.259 127.817 136.260  0.00  0.00    +0.000 OA
ATOM     14  O   UNL     1     112.364 127.139 138.132  0.00  0.00    +0.000 OA
ATOM     15  O   UNL     1     112.902 128.635 138.568  0.00  0.00    +0.000 OA
ATOM     16  O   UNL     1     113.678 129.588 137.466  0.00  0.00    +0.000 OA
ATOM     17  C   UNL     1     112.752 127.614 137.580  0.00  0.00    +0.000 C 
ATOM     18  C   UNL     1     113.021 128.363 137.799  0.00  0.00    +0.000 C 
ATOM     19  C   UNL     1     112.870 127.341 136.811  0.00  0.00    +0.000 C 
ATOM     20  C   UNL     1     113.409 128.839 137.247  0.00  0.00    +0.000 C 
ATOM     21  C   UNL     1     113.528 128.566 136.478  0.00  0.00    +0.000 C 
BRANCH  21  23
ATOM     22  O   UNL     1     114.281 128.701 135.271  0.00  0.00    +0.000 OA
ATOM     23  C   UNL     1     113.916 129.042 135.927  0.00  0.00    +0.000 C 
ENDBRANCH  21  23
ENDBRANCH   4  19
BRANCH  10  25
ATOM     24  C   UNL     1     109.192 129.116 135.349  0.00  0.00    +0.000 A 
ATOM     25  C   UNL     1     110.133 127.786 135.612  0.00  0.00    +0.000 A 
ATOM     26  C   UNL     1     109.808 128.938 134.830  0.00  0.00    +0.000 A 
ATOM     27  C   UNL     1     109.046 128.630 135.999  0.00  0.00    +0.000 A 
ATOM     28  C   UNL     1     110.278 128.273 134.961  0.00  0.00    +0.000 A 
ATOM     29  C   UNL     1     109.517 127.965 136.131  0.00  0.00    +0.000 A 
BRANCH  24  30
ATOM     30  O   UNL     1     108.721 129.781 135.218  0.00  0.00    +0.000 OA
BRANCH  30  39
ATOM     31  O   UNL     1     109.550 130.747 135.867  0.00  0.00    +0.000 OA
ATOM     32  O   UNL     1     107.539 131.831 136.820  0.00  0.00    +0.000 OA
ATOM     33  O   UNL     1     109.037 132.435 137.151  0.00  0.00    +0.000 OA
ATOM     34  O   UNL     1     107.381 130.503 135.853  0.00  0.00    +0.000 OA
ATOM     35  C   UNL     1     108.209 131.470 136.502  0.00  0.00    +0.000 C 
ATOM     36  C   UNL     1     108.958 131.772 136.668  0.00  0.00    +0.000 C 
ATOM     37  C   UNL     1     108.129 130.806 136.019  0.00  0.00    +0.000 C 
ATOM     38  C   UNL     1     109.628 131.411 136.350  0.00  0.00    +0.000 C 
ATOM     39  C   UNL     1     108.800 130.444 135.701  0.00  0.00    +0.000 C 
BRANCH  38  41
ATOM     40  O   UNL     1     110.918 131.261 136.946  0.00  0.00    +0.000 OA
ATOM     41  C   UNL     1     110.378 131.713 136.515  0.00  0.00    +0.000 C 
ENDBRANCH  38  41
ENDBRANCH  30  39
ENDBRANCH  24  30
ENDBRANCH  10  25
BRANCH   6  42
ATOM     42  O   UNL     1     113.816 126.015 137.077  0.00  0.00    +0.000 OA
ATOM     43  C   UNL     1     114.335 125.375 137.105  0.00  0.00    +0.000 C 
ENDBRANCH   6  42
TORSDOF 7
ENDMDL
MODEL 2
REMARK VINA RESULT:     -10.3      1.459      3.294
REMARK  Name = 74977792
REMARK  7 active torsions:
REMARK  status: ('A' for Active; 'I' for Inactive)
REMARK    1  A    between atoms: O_6  and  C_27
REMARK    2  A    between atoms: O_6  and  C_36
REMARK    3  A    between atoms: O_12  and  C_29
REMARK    4  A    between atoms: C_18  and  C_21
REMARK    5  A    between atoms: C_20  and  C_26
REMARK    6  A    between atoms: C_25  and  C_30
REMARK    7  A    between atoms: C_34  and  C_38
REMARK                            x       y       z     vdW  Elec       q    Type
REMARK                         _______ _______ _______ _____ _____    ______ ____
ROOT
ATOM      1  O   UNL     1     112.642 126.652 136.723  0.00  0.00    +0.000 OA
ATOM      2  O   UNL     1     114.442 124.390 136.571  0.00  0.00    +0.000 OA
ATOM      3  O   UNL     1     114.971 125.718 136.380  0.00  0.00    +0.000 OA
ATOM      4  C   UNL     1     112.162 125.294 136.907  0.00  0.00    +0.000 A 
ATOM      5  C   UNL     1     112.791 125.806 136.759  0.00  0.00    +0.000 A 
ATOM      6  C   UNL     1     112.293 124.480 136.944  0.00  0.00    +0.000 A 
ATOM      7  C   UNL     1     113.551 125.505 136.647  0.00  0.00    +0.000 A 
ATOM      8  C   UNL     1     113.053 124.178 136.832  0.00  0.00    +0.000 A 
ATOM      9  C   UNL     1     113.682 124.691 136.683  0.00  0.00    +0.000 A 
ATOM     10  C   UNL     1     113.294 127.190 136.568  0.00  0.00    +0.000 A 
ATOM     11  C   UNL     1     114.215 126.028 136.491  0.00  0.00    +0.000 A 
ATOM     12  C   UNL     1     114.085 126.877 136.452  0.00  0.00    +0.000 A 
ENDROOT
BRANCH   4  19
ATOM     13  O   UNL     1     110.925 125.763 136.368  0.00  0.00    +0.000 OA
ATOM     14  O   UNL     1     111.597 125.558 138.435  0.00  0.00    +0.000 OA
ATOM     15  O   UNL     1     110.078 126.160 138.659  0.00  0.00    +0.000 OA
ATOM     16  O   UNL     1     109.122 126.497 137.356  0.00  0.00    +0.000 OA
ATOM     17  C   UNL     1     111.120 125.727 137.783  0.00  0.00    +0.000 C 
ATOM     18  C   UNL     1     110.360 126.028 137.895  0.00  0.00    +0.000 C 
ATOM     19  C   UNL     1     111.402 125.594 137.019  0.00  0.00    +0.000 C 
ATOM     20  C   UNL     1     109.882 126.196 137.243  0.00  0.00    +0.000 C 
ATOM     21  C   UNL     1     110.165 126.064 136.480  0.00  0.00    +0.000 C 
BRANCH  21  23
ATOM     22  O   UNL     1     109.771 125.799 135.132  0.00  0.00    +0.000 OA
ATOM     23  C   UNL     1     109.688 126.232 135.829  0.00  0.00    +0.000 C 
ENDBRANCH  21  23
ENDBRANCH   4  19
BRANCH  10  25
ATOM     24  C   UNL     1     112.892 129.630 136.459  0.00  0.00    +0.000 A 
ATOM     25  C   UNL     1     113.160 128.004 136.532  0.00  0.00    +0.000 A 
ATOM     26  C   UNL     1     112.914 129.185 135.765  0.00  0.00    +0.000 A 
ATOM     27  C   UNL     1     113.004 129.263 137.189  0.00  0.00    +0.000 A 
ATOM     28  C   UNL     1     113.048 128.372 135.801  0.00  0.00    +0.000 A 
ATOM     29  C   UNL     1     113.138 128.450 137.225  0.00  0.00    +0.000 A 
BRANCH  24  30
ATOM     30  O   UNL     1     112.758 130.443 136.423  0.00  0.00    +0.000 OA
BRANCH  30  39
ATOM     31  O   UNL     1     111.341 130.417 136.244  0.00  0.00    +0.000 OA
ATOM     32  O   UNL     1     111.106 132.316 137.813  0.00  0.00    +0.000 OA
ATOM     33  O   UNL     1     109.768 131.656 137.111  0.00  0.00    +0.000 OA
ATOM     34  O   UNL     1     112.602 131.710 137.470  0.00  0.00    +0.000 OA
ATOM     35  C   UNL     1     111.184 131.683 137.290  0.00  0.00    +0.000 C 
ATOM     36  C   UNL     1     110.515 131.353 136.939  0.00  0.00    +0.000 C 
ATOM     37  C   UNL     1     111.933 131.380 137.119  0.00  0.00    +0.000 C 
ATOM     38  C   UNL     1     110.593 130.720 136.416  0.00  0.00    +0.000 C 
ATOM     39  C   UNL     1     112.011 130.747 136.595  0.00  0.00    +0.000 C 
BRANCH  38  41
ATOM     40  O   UNL     1     109.897 130.288 135.245  0.00  0.00    +0.000 OA
ATOM     41  C   UNL     1     109.924 130.390 136.064  0.00  0.00    +0.000 C 
ENDBRANCH  38  41
ENDBRANCH  30  39
ENDBRANCH  24  30
ENDBRANCH  10  25
BRANCH   6  42
ATOM     42  O   UNL     1     111.664 123.967 137.093  0.00  0.00    +0.000 OA
ATOM     43  C   UNL     1     111.780 123.151 137.058  0.00  0.00    +0.000 C 
ENDBRANCH   6  42
TORSDOF 7
ENDMDL
MODEL 3
REMARK VINA RESULT:      -9.9      1.444      5.905
REMARK  Name = 74977792
REMARK  7 active torsions:
REMARK  status: ('A' for Active; 'I' for Inactive)
REMARK    1  A    between atoms: O_6  and  C_27
REMARK    2  A    between atoms: O_6  and  C_36
REMARK    3  A    between atoms: O_12  and  C_29
REMARK    4  A    between atoms: C_18  and  C_21
REMARK    5  A    between atoms: C_20  and  C_26
REMARK    6  A    between atoms: C_25  and  C_30
REMARK    7  A    between atoms: C_34  and  C_38
REMARK                            x       y       z     vdW  Elec       q    Type
REMARK                         _______ _______ _______ _____ _____    ______ ____
ROOT
ATOM      1  O   UNL     1     112.161 129.332 136.876  0.00  0.00    +0.000 OA
ATOM      2  O   UNL     1     112.882 132.112 137.237  0.00  0.00    +0.000 OA
ATOM      3  O   UNL     1     113.929 131.123 137.156  0.00  0.00    +0.000 OA
ATOM      4  C   UNL     1     111.147 130.368 136.963  0.00  0.00    +0.000 A 
ATOM      5  C   UNL     1     111.945 130.160 136.967  0.00  0.00    +0.000 A 
ATOM      6  C   UNL     1     110.927 131.158 137.050  0.00  0.00    +0.000 A 
ATOM      7  C   UNL     1     112.523 130.741 137.059  0.00  0.00    +0.000 A 
ATOM      8  C   UNL     1     111.506 131.740 137.142  0.00  0.00    +0.000 A 
ATOM      9  C   UNL     1     112.304 131.531 137.146  0.00  0.00    +0.000 A 
ATOM     10  C   UNL     1     112.991 129.109 136.879  0.00  0.00    +0.000 A 
ATOM     11  C   UNL     1     113.357 130.536 137.065  0.00  0.00    +0.000 A 
ATOM     12  C   UNL     1     113.593 129.713 136.974  0.00  0.00    +0.000 A 
ENDROOT
BRANCH   4  19
ATOM     13  O   UNL     1     110.341 129.546 136.116  0.00  0.00    +0.000 OA
ATOM     14  O   UNL     1     110.445 129.687 138.292  0.00  0.00    +0.000 OA
ATOM     15  O   UNL     1     109.289 128.525 138.110  0.00  0.00    +0.000 OA
ATOM     16  O   UNL     1     108.833 128.043 136.599  0.00  0.00    +0.000 OA
ATOM     17  C   UNL     1     110.217 129.446 137.536  0.00  0.00    +0.000 C 
ATOM     18  C   UNL     1     109.639 128.865 137.445  0.00  0.00    +0.000 C 
ATOM     19  C   UNL     1     110.568 129.787 136.872  0.00  0.00    +0.000 C 
ATOM     20  C   UNL     1     109.412 128.625 136.689  0.00  0.00    +0.000 C 
ATOM     21  C   UNL     1     109.763 128.965 136.025  0.00  0.00    +0.000 C 
BRANCH  21  23
ATOM     22  O   UNL     1     109.736 129.180 134.612  0.00  0.00    +0.000 OA
ATOM     23  C   UNL     1     109.535 128.724 135.270  0.00  0.00    +0.000 C 
ENDBRANCH  21  23
ENDBRANCH   4  19
BRANCH  10  25
ATOM     24  C   UNL     1     113.641 126.735 136.617  0.00  0.00    +0.000 A 
ATOM     25  C   UNL     1     113.208 128.317 136.792  0.00  0.00    +0.000 A 
ATOM     26  C   UNL     1     113.446 127.029 137.363  0.00  0.00    +0.000 A 
ATOM     27  C   UNL     1     113.619 127.231 135.959  0.00  0.00    +0.000 A 
ATOM     28  C   UNL     1     113.230 127.820 137.451  0.00  0.00    +0.000 A 
ATOM     29  C   UNL     1     113.402 128.022 136.047  0.00  0.00    +0.000 A 
BRANCH  24  30
ATOM     30  O   UNL     1     113.858 125.944 136.530  0.00  0.00    +0.000 OA
BRANCH  30  39
ATOM     31  O   UNL     1     112.518 125.501 136.304  0.00  0.00    +0.000 OA
ATOM     32  O   UNL     1     113.097 123.278 137.225  0.00  0.00    +0.000 OA
ATOM     33  O   UNL     1     111.565 123.577 136.693  0.00  0.00    +0.000 OA
ATOM     34  O   UNL     1     114.244 124.462 137.144  0.00  0.00    +0.000 OA
ATOM     35  C   UNL     1     112.904 124.019 136.918  0.00  0.00    +0.000 C 
ATOM     36  C   UNL     1     112.138 124.168 136.652  0.00  0.00    +0.000 C 
ATOM     37  C   UNL     1     113.478 124.611 136.878  0.00  0.00    +0.000 C 
ATOM     38  C   UNL     1     111.945 124.909 136.345  0.00  0.00    +0.000 C 
ATOM     39  C   UNL     1     113.285 125.352 136.571  0.00  0.00    +0.000 C 
BRANCH  38  41
ATOM     40  O   UNL     1     111.058 125.352 135.316  0.00  0.00    +0.000 OA
ATOM     41  C   UNL     1     111.179 125.059 136.078  0.00  0.00    +0.000 C 
ENDBRANCH  38  41
ENDBRANCH  30  39
ENDBRANCH  24  30
ENDBRANCH  10  25
BRANCH   6  42
ATOM     42  O   UNL     1     110.129 131.368 137.046  0.00  0.00    +0.000 OA
ATOM     43  C   UNL     1     109.912 132.163 137.019  0.00  0.00    +0.000 C 
ENDBRANCH   6  42
TORSDOF 7
ENDMDL
MODEL 4
REMARK VINA RESULT:      -9.9      2.795      5.076
REMARK  Name = 74977792
REMARK  7 active torsions:
REMARK  status: ('A' for Active; 'I' for Inactive)
REMARK    1  A    between atoms: O_6  and  C_27
REMARK    2  A    between atoms: O_6  and  C_36
REMARK    3  A    between atoms: O_12  and  C_29
REMARK    4  A    between atoms: C_18  and  C_21
REMARK    5  A    between atoms: C_20  and  C_26
REMARK    6  A    between atoms: C_25  and  C_30
REMARK    7  A    between atoms: C_34  and  C_38
REMARK                            x       y       z     vdW  Elec       q    Type
REMARK                         _______ _______ _______ _____ _____    ______ ____
ROOT
ATOM      1  O   UNL     1     112.709 126.375 138.525  0.00  0.00    +0.000 OA
ATOM      2  O   UNL     1     113.944 124.411 136.793  0.00  0.00    +0.000 OA
ATOM      3  O   UNL     1     114.764 125.117 137.746  0.00  0.00    +0.000 OA
ATOM      4  C   UNL     1     111.929 125.635 137.548  0.00  0.00    +0.000 A 
ATOM      5  C   UNL     1     112.660 125.788 137.898  0.00  0.00    +0.000 A 
ATOM      6  C   UNL     1     111.870 125.074 136.946  0.00  0.00    +0.000 A 
ATOM      7  C   UNL     1     113.332 125.380 137.647  0.00  0.00    +0.000 A 
ATOM      8  C   UNL     1     112.541 124.666 136.694  0.00  0.00    +0.000 A 
ATOM      9  C   UNL     1     113.272 124.819 137.045  0.00  0.00    +0.000 A 
ATOM     10  C   UNL     1     113.468 126.538 138.893  0.00  0.00    +0.000 A 
ATOM     11  C   UNL     1     114.098 125.530 138.004  0.00  0.00    +0.000 A 
ATOM     12  C   UNL     1     114.167 126.113 138.632  0.00  0.00    +0.000 A 
ENDROOT
BRANCH   4  19
ATOM     13  O   UNL     1     111.065 126.770 137.461  0.00  0.00    +0.000 OA
ATOM     14  O   UNL     1     110.969 124.996 138.728  0.00  0.00    +0.000 OA
ATOM     15  O   UNL     1     109.627 125.811 139.231  0.00  0.00    +0.000 OA
ATOM     16  O   UNL     1     109.242 127.266 138.554  0.00  0.00    +0.000 OA
ATOM     17  C   UNL     1     110.778 125.723 138.390  0.00  0.00    +0.000 C 
ATOM     18  C   UNL     1     110.106 126.131 138.641  0.00  0.00    +0.000 C 
ATOM     19  C   UNL     1     111.257 126.043 137.799  0.00  0.00    +0.000 C 
ATOM     20  C   UNL     1     109.914 126.859 138.302  0.00  0.00    +0.000 C 
ATOM     21  C   UNL     1     110.394 127.178 137.712  0.00  0.00    +0.000 C 
BRANCH  21  23
ATOM     22  O   UNL     1     110.695 128.240 136.804  0.00  0.00    +0.000 OA
ATOM     23  C   UNL     1     110.201 127.905 137.374  0.00  0.00    +0.000 C 
ENDBRANCH  21  23
ENDBRANCH   4  19
BRANCH  10  25
ATOM     24  C   UNL     1     113.637 128.222 140.699  0.00  0.00    +0.000 A 
ATOM     25  C   UNL     1     113.524 127.099 139.495  0.00  0.00    +0.000 A 
ATOM     26  C   UNL     1     113.661 127.418 140.882  0.00  0.00    +0.000 A 
ATOM     27  C   UNL     1     113.557 128.465 139.915  0.00  0.00    +0.000 A 
ATOM     28  C   UNL     1     113.604 126.857 140.280  0.00  0.00    +0.000 A 
ATOM     29  C   UNL     1     113.501 127.904 139.313  0.00  0.00    +0.000 A 
BRANCH  24  30
ATOM     30  O   UNL     1     113.694 128.784 141.301  0.00  0.00    +0.000 OA
BRANCH  30  39
ATOM     31  O   UNL     1     112.343 128.742 141.767  0.00  0.00    +0.000 OA
ATOM     32  O   UNL     1     112.334 131.210 141.957  0.00  0.00    +0.000 OA
ATOM     33  O   UNL     1     110.988 130.346 142.359  0.00  0.00    +0.000 OA
ATOM     34  O   UNL     1     113.687 130.429 141.427  0.00  0.00    +0.000 OA
ATOM     35  C   UNL     1     112.337 130.388 141.893  0.00  0.00    +0.000 C 
ATOM     36  C   UNL     1     111.664 129.956 142.095  0.00  0.00    +0.000 C 
ATOM     37  C   UNL     1     113.014 129.997 141.629  0.00  0.00    +0.000 C 
ATOM     38  C   UNL     1     111.667 129.134 142.032  0.00  0.00    +0.000 C 
ATOM     39  C   UNL     1     113.017 129.175 141.565  0.00  0.00    +0.000 C 
BRANCH  38  41
ATOM     40  O   UNL     1     111.048 128.086 142.780  0.00  0.00    +0.000 OA
ATOM     41  C   UNL     1     110.994 128.701 142.233  0.00  0.00    +0.000 C 
ENDBRANCH  38  41
ENDBRANCH  30  39
ENDBRANCH  24  30
ENDBRANCH  10  25
BRANCH   6  42
ATOM     42  O   UNL     1     111.139 124.921 136.595  0.00  0.00    +0.000 OA
ATOM     43  C   UNL     1     111.103 124.531 135.869  0.00  0.00    +0.000 C 
ENDBRANCH   6  42
TORSDOF 7
ENDMDL
