MODEL 1
REMARK VINA RESULT:     -10.2      0.000      0.000
REMARK  Name = 74977604
REMARK  7 active torsions:
REMARK  status: ('A' for Active; 'I' for Inactive)
REMARK    1  A    between atoms: O_4  and  C_21
REMARK    2  A    between atoms: O_4  and  C_23
REMARK    3  A    between atoms: O_6  and  C_22
REMARK    4  A    between atoms: O_6  and  C_26
REMARK    5  A    between atoms: C_19  and  C_22
REMARK    6  A    between atoms: C_26  and  C_30
REMARK    7  A    between atoms: C_32  and  C_36
REMARK                            x       y       z     vdW  Elec       q    Type
REMARK                         _______ _______ _______ _____ _____    ______ ____
ROOT
ATOM      1  O   UNL     1     112.997 129.448 134.938  0.00  0.00    +0.000 OA
ENDROOT
BRANCH   1   6
ATOM      2  O   UNL     1     111.892 126.937 135.917  0.00  0.00    +0.000 OA
ATOM      3  O   UNL     1     110.141 128.884 134.698  0.00  0.00    +0.000 OA
ATOM      4  O   UNL     1     109.629 127.629 135.194  0.00  0.00    +0.000 OA
ATOM      5  O   UNL     1     109.851 126.164 135.918  0.00  0.00    +0.000 OA
ATOM      6  C   UNL     1     112.351 128.948 135.058  0.00  0.00    +0.000 A 
ATOM      7  C   UNL     1     112.460 128.183 135.434  0.00  0.00    +0.000 A 
ATOM      8  C   UNL     1     111.565 129.189 134.806  0.00  0.00    +0.000 A 
ATOM      9  C   UNL     1     111.782 127.670 135.554  0.00  0.00    +0.000 A 
ATOM     10  C   UNL     1     111.027 127.901 135.313  0.00  0.00    +0.000 A 
ATOM     11  C   UNL     1     110.899 128.662 134.935  0.00  0.00    +0.000 A 
ATOM     12  C   UNL     1     110.384 127.399 135.435  0.00  0.00    +0.000 A 
ATOM     13  C   UNL     1     111.249 126.434 136.038  0.00  0.00    +0.000 A 
ATOM     14  C   UNL     1     110.495 126.666 135.797  0.00  0.00    +0.000 A 
BRANCH  13  17
ATOM     15  O   UNL     1     111.346 124.832 138.401  0.00  0.00    +0.000 OA
ATOM     16  O   UNL     1     111.692 123.503 137.487  0.00  0.00    +0.000 OA
ATOM     17  C   UNL     1     111.360 125.701 136.400  0.00  0.00    +0.000 A 
ATOM     18  C   UNL     1     111.298 125.634 137.220  0.00  0.00    +0.000 A 
ATOM     19  C   UNL     1     111.533 125.037 135.942  0.00  0.00    +0.000 A 
ATOM     20  C   UNL     1     111.408 124.900 137.582  0.00  0.00    +0.000 A 
ATOM     21  C   UNL     1     111.643 124.305 136.305  0.00  0.00    +0.000 A 
ATOM     22  C   UNL     1     111.581 124.236 137.125  0.00  0.00    +0.000 A 
ENDBRANCH  13  17
ENDBRANCH   1   6
BRANCH   1  31
ATOM     23  O   UNL     1     112.868 130.065 136.220  0.00  0.00    +0.000 OA
ATOM     24  O   UNL     1     114.352 131.033 137.495  0.00  0.00    +0.000 OA
ATOM     25  O   UNL     1     115.287 130.592 136.209  0.00  0.00    +0.000 OA
ATOM     26  O   UNL     1     114.609 129.799 134.930  0.00  0.00    +0.000 OA
ATOM     27  C   UNL     1     114.013 130.637 136.856  0.00  0.00    +0.000 C 
ATOM     28  C   UNL     1     114.480 130.416 136.213  0.00  0.00    +0.000 C 
ATOM     29  C   UNL     1     113.207 130.461 136.860  0.00  0.00    +0.000 C 
ATOM     30  C   UNL     1     114.141 130.020 135.574  0.00  0.00    +0.000 C 
ATOM     31  C   UNL     1     113.335 129.844 135.578  0.00  0.00    +0.000 C 
BRANCH  29  32
ATOM     32  C   UNL     1     112.740 130.682 137.503  0.00  0.00    +0.000 C 
BRANCH  32  33
ATOM     33  O   UNL     1     112.274 130.120 137.888  0.00  0.00    +0.000 OA
BRANCH  33  35
ATOM     34  O   UNL     1     111.670 131.111 138.720  0.00  0.00    +0.000 OA
ATOM     35  C   UNL     1     111.656 130.361 138.377  0.00  0.00    +0.000 C 
BRANCH  35  39
ATOM     36  O   UNL     1     108.890 129.706 138.082  0.00  0.00    +0.000 OA
ATOM     37  O   UNL     1     110.621 127.969 139.550  0.00  0.00    +0.000 OA
ATOM     38  O   UNL     1     109.122 128.329 138.962  0.00  0.00    +0.000 OA
ATOM     39  C   UNL     1     111.023 129.852 138.524  0.00  0.00    +0.000 A 
ATOM     40  C   UNL     1     111.138 129.165 138.963  0.00  0.00    +0.000 A 
ATOM     41  C   UNL     1     110.273 130.033 138.230  0.00  0.00    +0.000 A 
ATOM     42  C   UNL     1     109.639 129.525 138.376  0.00  0.00    +0.000 A 
ATOM     43  C   UNL     1     110.506 128.657 139.110  0.00  0.00    +0.000 A 
ATOM     44  C   UNL     1     109.756 128.837 138.816  0.00  0.00    +0.000 A 
ENDBRANCH  35  39
ENDBRANCH  33  35
ENDBRANCH  32  33
ENDBRANCH  29  32
ENDBRANCH   1  31
TORSDOF 7
ENDMDL
MODEL 2
REMARK VINA RESULT:     -10.1      1.468      4.897
REMARK  Name = 74977604
REMARK  7 active torsions:
REMARK  status: ('A' for Active; 'I' for Inactive)
REMARK    1  A    between atoms: O_4  and  C_21
REMARK    2  A    between atoms: O_4  and  C_23
REMARK    3  A    between atoms: O_6  and  C_22
REMARK    4  A    between atoms: O_6  and  C_26
REMARK    5  A    between atoms: C_19  and  C_22
REMARK    6  A    between atoms: C_26  and  C_30
REMARK    7  A    between atoms: C_32  and  C_36
REMARK                            x       y       z     vdW  Elec       q    Type
REMARK                         _______ _______ _______ _____ _____    ______ ____
ROOT
ATOM      1  O   UNL     1     113.795 126.198 136.833  0.00  0.00    +0.000 OA
ENDROOT
BRANCH   1   6
ATOM      2  O   UNL     1     112.348 128.474 137.930  0.00  0.00    +0.000 OA
ATOM      3  O   UNL     1     113.718 128.743 135.401  0.00  0.00    +0.000 OA
ATOM      4  O   UNL     1     112.991 129.849 135.976  0.00  0.00    +0.000 OA
ATOM      5  O   UNL     1     112.064 130.502 137.174  0.00  0.00    +0.000 OA
ATOM      6  C   UNL     1     113.547 126.983 136.777  0.00  0.00    +0.000 A 
ATOM      7  C   UNL     1     113.064 127.329 137.397  0.00  0.00    +0.000 A 
ATOM      8  C   UNL     1     113.771 127.460 136.098  0.00  0.00    +0.000 A 
ATOM      9  C   UNL     1     112.811 128.147 137.331  0.00  0.00    +0.000 A 
ATOM     10  C   UNL     1     113.026 128.605 136.679  0.00  0.00    +0.000 A 
ATOM     11  C   UNL     1     113.509 128.277 136.049  0.00  0.00    +0.000 A 
ATOM     12  C   UNL     1     112.777 129.390 136.627  0.00  0.00    +0.000 A 
ATOM     13  C   UNL     1     112.098 129.259 137.878  0.00  0.00    +0.000 A 
ATOM     14  C   UNL     1     112.313 129.717 137.226  0.00  0.00    +0.000 A 
BRANCH  13  17
ATOM     15  O   UNL     1     111.889 130.667 140.355  0.00  0.00    +0.000 OA
ATOM     16  O   UNL     1     110.244 130.567 140.274  0.00  0.00    +0.000 OA
ATOM     17  C   UNL     1     111.634 129.586 138.477  0.00  0.00    +0.000 A 
ATOM     18  C   UNL     1     111.994 129.963 139.116  0.00  0.00    +0.000 A 
ATOM     19  C   UNL     1     110.812 129.535 138.436  0.00  0.00    +0.000 A 
ATOM     20  C   UNL     1     111.530 130.290 139.716  0.00  0.00    +0.000 A 
ATOM     21  C   UNL     1     110.349 129.862 139.035  0.00  0.00    +0.000 A 
ATOM     22  C   UNL     1     110.708 130.240 139.675  0.00  0.00    +0.000 A 
ENDBRANCH  13  17
ENDBRANCH   1   6
BRANCH   1  31
ATOM     23  O   UNL     1     112.581 125.715 136.253  0.00  0.00    +0.000 OA
ATOM     24  O   UNL     1     111.637 123.749 136.344  0.00  0.00    +0.000 OA
ATOM     25  O   UNL     1     112.985 123.490 137.260  0.00  0.00    +0.000 OA
ATOM     26  O   UNL     1     114.064 124.715 137.504  0.00  0.00    +0.000 OA
ATOM     27  C   UNL     1     112.176 124.361 136.466  0.00  0.00    +0.000 C 
ATOM     28  C   UNL     1     112.850 124.232 136.924  0.00  0.00    +0.000 C 
ATOM     29  C   UNL     1     112.041 125.103 136.130  0.00  0.00    +0.000 C 
ATOM     30  C   UNL     1     113.389 124.844 137.046  0.00  0.00    +0.000 C 
ATOM     31  C   UNL     1     113.255 125.586 136.710  0.00  0.00    +0.000 C 
BRANCH  29  32
ATOM     32  C   UNL     1     111.368 125.232 135.673  0.00  0.00    +0.000 C 
BRANCH  32  33
ATOM     33  O   UNL     1     110.908 125.906 135.795  0.00  0.00    +0.000 OA
BRANCH  33  35
ATOM     34  O   UNL     1     110.161 125.615 134.613  0.00  0.00    +0.000 OA
ATOM     35  C   UNL     1     110.325 126.113 135.250  0.00  0.00    +0.000 C 
BRANCH  35  39
ATOM     36  O   UNL     1     108.167 127.570 136.428  0.00  0.00    +0.000 OA
ATOM     37  O   UNL     1     109.957 128.877 134.623  0.00  0.00    +0.000 OA
ATOM     38  O   UNL     1     108.641 128.927 135.617  0.00  0.00    +0.000 OA
ATOM     39  C   UNL     1     109.904 126.817 135.341  0.00  0.00    +0.000 A 
ATOM     40  C   UNL     1     110.141 127.495 134.937  0.00  0.00    +0.000 A 
ATOM     41  C   UNL     1     109.246 126.842 135.838  0.00  0.00    +0.000 A 
ATOM     42  C   UNL     1     108.825 127.545 135.931  0.00  0.00    +0.000 A 
ATOM     43  C   UNL     1     109.721 128.198 135.028  0.00  0.00    +0.000 A 
ATOM     44  C   UNL     1     109.063 128.223 135.525  0.00  0.00    +0.000 A 
ENDBRANCH  35  39
ENDBRANCH  33  35
ENDBRANCH  32  33
ENDBRANCH  29  32
ENDBRANCH   1  31
TORSDOF 7
ENDMDL
MODEL 3
REMARK VINA RESULT:     -10.1      2.178      4.343
REMARK  Name = 74977604
REMARK  7 active torsions:
REMARK  status: ('A' for Active; 'I' for Inactive)
REMARK    1  A    between atoms: O_4  and  C_21
REMARK    2  A    between atoms: O_4  and  C_23
REMARK    3  A    between atoms: O_6  and  C_22
REMARK    4  A    between atoms: O_6  and  C_26
REMARK    5  A    between atoms: C_19  and  C_22
REMARK    6  A    between atoms: C_26  and  C_30
REMARK    7  A    between atoms: C_32  and  C_36
REMARK                            x       y       z     vdW  Elec       q    Type
REMARK                         _______ _______ _______ _____ _____    ______ ____
ROOT
ATOM      1  O   UNL     1     113.442 130.514 138.572  0.00  0.00    +0.000 OA
ENDROOT
BRANCH   1   6
ATOM      2  O   UNL     1     111.327 129.490 136.851  0.00  0.00    +0.000 OA
ATOM      3  O   UNL     1     114.031 129.649 135.845  0.00  0.00    +0.000 OA
ATOM      4  O   UNL     1     112.957 129.148 135.021  0.00  0.00    +0.000 OA
ATOM      5  O   UNL     1     111.370 128.761 134.794  0.00  0.00    +0.000 OA
ATOM      6  C   UNL     1     113.195 130.207 137.848  0.00  0.00    +0.000 A 
ATOM      7  C   UNL     1     112.369 130.003 137.723  0.00  0.00    +0.000 A 
ATOM      8  C   UNL     1     113.761 130.088 137.212  0.00  0.00    +0.000 A 
ATOM      9  C   UNL     1     112.121 129.684 136.965  0.00  0.00    +0.000 A 
ATOM     10  C   UNL     1     112.665 129.570 136.355  0.00  0.00    +0.000 A 
ATOM     11  C   UNL     1     113.494 129.767 136.461  0.00  0.00    +0.000 A 
ATOM     12  C   UNL     1     112.414 129.262 135.632  0.00  0.00    +0.000 A 
ATOM     13  C   UNL     1     111.076 129.183 136.128  0.00  0.00    +0.000 A 
ATOM     14  C   UNL     1     111.620 129.069 135.518  0.00  0.00    +0.000 A 
BRANCH  13  17
ATOM     15  O   UNL     1     108.411 129.965 135.459  0.00  0.00    +0.000 OA
ATOM     16  O   UNL     1     107.900 128.410 135.673  0.00  0.00    +0.000 OA
ATOM     17  C   UNL     1     110.282 128.990 136.014  0.00  0.00    +0.000 A 
ATOM     18  C   UNL     1     109.744 129.574 135.793  0.00  0.00    +0.000 A 
ATOM     19  C   UNL     1     110.027 128.212 136.121  0.00  0.00    +0.000 A 
ATOM     20  C   UNL     1     108.949 129.381 135.679  0.00  0.00    +0.000 A 
ATOM     21  C   UNL     1     109.234 128.020 136.007  0.00  0.00    +0.000 A 
ATOM     22  C   UNL     1     108.694 128.604 135.786  0.00  0.00    +0.000 A 
ENDBRANCH  13  17
ENDBRANCH   1   6
BRANCH   1  31
ATOM     23  O   UNL     1     113.450 129.218 139.175  0.00  0.00    +0.000 OA
ATOM     24  O   UNL     1     114.457 128.482 140.966  0.00  0.00    +0.000 OA
ATOM     25  O   UNL     1     114.950 130.056 140.957  0.00  0.00    +0.000 OA
ATOM     26  O   UNL     1     114.442 131.073 139.760  0.00  0.00    +0.000 OA
ATOM     27  C   UNL     1     114.203 128.989 140.367  0.00  0.00    +0.000 C 
ATOM     28  C   UNL     1     114.450 129.777 140.363  0.00  0.00    +0.000 C 
ATOM     29  C   UNL     1     113.703 128.710 139.774  0.00  0.00    +0.000 C 
ATOM     30  C   UNL     1     114.195 130.285 139.764  0.00  0.00    +0.000 C 
ATOM     31  C   UNL     1     113.695 130.005 139.171  0.00  0.00    +0.000 C 
BRANCH  29  32
ATOM     32  C   UNL     1     113.457 127.923 139.778  0.00  0.00    +0.000 C 
BRANCH  32  33
ATOM     33  O   UNL     1     113.640 127.429 139.143  0.00  0.00    +0.000 OA
BRANCH  33  35
ATOM     34  O   UNL     1     112.758 126.431 139.658  0.00  0.00    +0.000 OA
ATOM     35  C   UNL     1     113.259 126.702 139.062  0.00  0.00    +0.000 C 
BRANCH  35  39
ATOM     36  O   UNL     1     114.875 124.895 137.549  0.00  0.00    +0.000 OA
ATOM     37  O   UNL     1     112.361 125.773 136.513  0.00  0.00    +0.000 OA
ATOM     38  O   UNL     1     113.738 124.878 136.354  0.00  0.00    +0.000 OA
ATOM     39  C   UNL     1     113.378 126.246 138.385  0.00  0.00    +0.000 A 
ATOM     40  C   UNL     1     112.810 126.238 137.787  0.00  0.00    +0.000 A 
ATOM     41  C   UNL     1     114.066 125.799 138.305  0.00  0.00    +0.000 A 
ATOM     42  C   UNL     1     114.187 125.343 137.629  0.00  0.00    +0.000 A 
ATOM     43  C   UNL     1     112.929 125.782 137.111  0.00  0.00    +0.000 A 
ATOM     44  C   UNL     1     113.618 125.335 137.032  0.00  0.00    +0.000 A 
ENDBRANCH  35  39
ENDBRANCH  33  35
ENDBRANCH  32  33
ENDBRANCH  29  32
ENDBRANCH   1  31
TORSDOF 7
ENDMDL
MODEL 4
REMARK VINA RESULT:     -10.1      2.027      5.208
REMARK  Name = 74977604
REMARK  7 active torsions:
REMARK  status: ('A' for Active; 'I' for Inactive)
REMARK    1  A    between atoms: O_4  and  C_21
REMARK    2  A    between atoms: O_4  and  C_23
REMARK    3  A    between atoms: O_6  and  C_22
REMARK    4  A    between atoms: O_6  and  C_26
REMARK    5  A    between atoms: C_19  and  C_22
REMARK    6  A    between atoms: C_26  and  C_30
REMARK    7  A    between atoms: C_32  and  C_36
REMARK                            x       y       z     vdW  Elec       q    Type
REMARK                         _______ _______ _______ _____ _____    ______ ____
ROOT
ATOM      1  O   UNL     1     111.334 127.005 136.039  0.00  0.00    +0.000 OA
ENDROOT
BRANCH   1   6
ATOM      2  O   UNL     1     111.310 129.743 137.029  0.00  0.00    +0.000 OA
ATOM      3  O   UNL     1     113.809 128.548 136.207  0.00  0.00    +0.000 OA
ATOM      4  O   UNL     1     113.758 129.902 136.703  0.00  0.00    +0.000 OA
ATOM      5  O   UNL     1     112.920 131.192 137.299  0.00  0.00    +0.000 OA
ATOM      6  C   UNL     1     111.734 127.701 136.227  0.00  0.00    +0.000 A 
ATOM      7  C   UNL     1     111.304 128.377 136.538  0.00  0.00    +0.000 A 
ATOM      8  C   UNL     1     112.585 127.756 136.114  0.00  0.00    +0.000 A 
ATOM      9  C   UNL     1     111.729 129.098 136.731  0.00  0.00    +0.000 A 
ATOM     10  C   UNL     1     112.545 129.151 136.622  0.00  0.00    +0.000 A 
ATOM     11  C   UNL     1     112.992 128.486 136.313  0.00  0.00    +0.000 A 
ATOM     12  C   UNL     1     112.941 129.849 136.812  0.00  0.00    +0.000 A 
ATOM     13  C   UNL     1     111.707 130.442 137.219  0.00  0.00    +0.000 A 
ATOM     14  C   UNL     1     112.523 130.494 137.110  0.00  0.00    +0.000 A 
BRANCH  13  17
ATOM     15  O   UNL     1     110.461 131.783 139.413  0.00  0.00    +0.000 OA
ATOM     16  O   UNL     1     110.032 133.022 138.412  0.00  0.00    +0.000 OA
ATOM     17  C   UNL     1     111.288 131.087 137.517  0.00  0.00    +0.000 A 
ATOM     18  C   UNL     1     111.084 131.112 138.316  0.00  0.00    +0.000 A 
ATOM     19  C   UNL     1     111.074 131.707 137.016  0.00  0.00    +0.000 A 
ATOM     20  C   UNL     1     110.665 131.757 138.615  0.00  0.00    +0.000 A 
ATOM     21  C   UNL     1     110.655 132.351 137.315  0.00  0.00    +0.000 A 
ATOM     22  C   UNL     1     110.451 132.377 138.114  0.00  0.00    +0.000 A 
ENDBRANCH  13  17
ENDBRANCH   1   6
BRANCH   1  31
ATOM     23  O   UNL     1     111.492 126.444 137.344  0.00  0.00    +0.000 OA
ATOM     24  O   UNL     1     111.602 124.366 138.003  0.00  0.00    +0.000 OA
ATOM     25  O   UNL     1     111.421 124.168 136.375  0.00  0.00    +0.000 OA
ATOM     26  O   UNL     1     111.287 125.487 135.393  0.00  0.00    +0.000 OA
ATOM     27  C   UNL     1     111.535 125.026 137.513  0.00  0.00    +0.000 C 
ATOM     28  C   UNL     1     111.444 124.927 136.698  0.00  0.00    +0.000 C 
ATOM     29  C   UNL     1     111.559 125.785 137.836  0.00  0.00    +0.000 C 
ATOM     30  C   UNL     1     111.377 125.587 136.208  0.00  0.00    +0.000 C 
ATOM     31  C   UNL     1     111.401 126.345 136.531  0.00  0.00    +0.000 C 
BRANCH  29  32
ATOM     32  C   UNL     1     111.650 125.884 138.649  0.00  0.00    +0.000 C 
BRANCH  32  33
ATOM     33  O   UNL     1     112.258 126.359 138.943  0.00  0.00    +0.000 OA
BRANCH  33  35
ATOM     34  O   UNL     1     111.720 126.238 140.260  0.00  0.00    +0.000 OA
ATOM     35  C   UNL     1     112.275 126.561 139.742  0.00  0.00    +0.000 C 
BRANCH  35  39
ATOM     36  O   UNL     1     114.861 127.035 140.862  0.00  0.00    +0.000 OA
ATOM     37  O   UNL     1     113.118 129.232 140.310  0.00  0.00    +0.000 OA
ATOM     38  O   UNL     1     114.561 128.658 140.868  0.00  0.00    +0.000 OA
ATOM     39  C   UNL     1     112.846 127.086 140.023  0.00  0.00    +0.000 A 
ATOM     40  C   UNL     1     112.696 127.896 140.026  0.00  0.00    +0.000 A 
ATOM     41  C   UNL     1     113.567 126.799 140.302  0.00  0.00    +0.000 A 
ATOM     42  C   UNL     1     114.139 127.322 140.583  0.00  0.00    +0.000 A 
ATOM     43  C   UNL     1     113.267 128.420 140.307  0.00  0.00    +0.000 A 
ATOM     44  C   UNL     1     113.989 128.133 140.586  0.00  0.00    +0.000 A 
ENDBRANCH  35  39
ENDBRANCH  33  35
ENDBRANCH  32  33
ENDBRANCH  29  32
ENDBRANCH   1  31
TORSDOF 7
ENDMDL
MODEL 5
REMARK VINA RESULT:     -10.0      2.273      3.335
REMARK  Name = 74977604
REMARK  7 active torsions:
REMARK  status: ('A' for Active; 'I' for Inactive)
REMARK    1  A    between atoms: O_4  and  C_21
REMARK    2  A    between atoms: O_4  and  C_23
REMARK    3  A    between atoms: O_6  and  C_22
REMARK    4  A    between atoms: O_6  and  C_26
REMARK    5  A    between atoms: C_19  and  C_22
REMARK    6  A    between atoms: C_26  and  C_30
REMARK    7  A    between atoms: C_32  and  C_36
REMARK                            x       y       z     vdW  Elec       q    Type
REMARK                         _______ _______ _______ _____ _____    ______ ____
ROOT
ATOM      1  O   UNL     1     110.526 128.687 135.261  0.00  0.00    +0.000 OA
ENDROOT
BRANCH   1   6
ATOM      2  O   UNL     1     112.252 126.531 136.185  0.00  0.00    +0.000 OA
ATOM      3  O   UNL     1     109.664 125.903 135.066  0.00  0.00    +0.000 OA
ATOM      4  O   UNL     1     110.546 124.861 135.534  0.00  0.00    +0.000 OA
ATOM      5  O   UNL     1     111.968 124.367 136.208  0.00  0.00    +0.000 OA
ATOM      6  C   UNL     1     110.666 127.883 135.379  0.00  0.00    +0.000 A 
ATOM      7  C   UNL     1     111.404 127.618 135.729  0.00  0.00    +0.000 A 
ATOM      8  C   UNL     1     110.073 127.303 135.153  0.00  0.00    +0.000 A 
ATOM      9  C   UNL     1     111.541 126.779 135.849  0.00  0.00    +0.000 A 
ATOM     10  C   UNL     1     110.971 126.222 135.631  0.00  0.00    +0.000 A 
ATOM     11  C   UNL     1     110.227 126.467 135.280  0.00  0.00    +0.000 A 
ATOM     12  C   UNL     1     111.115 125.419 135.751  0.00  0.00    +0.000 A 
ATOM     13  C   UNL     1     112.395 125.727 136.305  0.00  0.00    +0.000 A 
ATOM     14  C   UNL     1     111.826 125.171 136.088  0.00  0.00    +0.000 A 
BRANCH  13  17
ATOM     15  O   UNL     1     115.211 125.289 136.096  0.00  0.00    +0.000 OA
ATOM     16  O   UNL     1     115.241 124.738 137.651  0.00  0.00    +0.000 OA
ATOM     17  C   UNL     1     113.107 125.480 136.642  0.00  0.00    +0.000 A 
ATOM     18  C   UNL     1     113.802 125.508 136.200  0.00  0.00    +0.000 A 
ATOM     19  C   UNL     1     113.121 125.204 137.420  0.00  0.00    +0.000 A 
ATOM     20  C   UNL     1     114.515 125.261 136.537  0.00  0.00    +0.000 A 
ATOM     21  C   UNL     1     113.833 124.957 137.755  0.00  0.00    +0.000 A 
ATOM     22  C   UNL     1     114.529 124.985 137.315  0.00  0.00    +0.000 A 
ENDBRANCH  13  17
ENDBRANCH   1   6
BRANCH   1  31
ATOM     23  O   UNL     1     110.007 128.956 136.564  0.00  0.00    +0.000 OA
ATOM     24  O   UNL     1     108.417 130.301 137.219  0.00  0.00    +0.000 OA
ATOM     25  O   UNL     1     108.402 130.570 135.592  0.00  0.00    +0.000 OA
ATOM     26  O   UNL     1     109.457 129.763 134.612  0.00  0.00    +0.000 OA
ATOM     27  C   UNL     1     108.945 129.898 136.730  0.00  0.00    +0.000 C 
ATOM     28  C   UNL     1     108.937 130.032 135.916  0.00  0.00    +0.000 C 
ATOM     29  C   UNL     1     109.480 129.360 137.055  0.00  0.00    +0.000 C 
ATOM     30  C   UNL     1     109.464 129.629 135.427  0.00  0.00    +0.000 C 
ATOM     31  C   UNL     1     109.999 129.091 135.751  0.00  0.00    +0.000 C 
BRANCH  29  32
ATOM     32  C   UNL     1     109.487 129.225 137.868  0.00  0.00    +0.000 C 
BRANCH  32  33
ATOM     33  O   UNL     1     109.880 128.568 138.175  0.00  0.00    +0.000 OA
BRANCH  33  35
ATOM     34  O   UNL     1     109.317 128.822 139.462  0.00  0.00    +0.000 OA
ATOM     35  C   UNL     1     109.835 128.399 138.980  0.00  0.00    +0.000 C 
BRANCH  35  39
ATOM     36  O   UNL     1     112.216 127.606 140.349  0.00  0.00    +0.000 OA
ATOM     37  O   UNL     1     110.297 125.639 139.562  0.00  0.00    +0.000 OA
ATOM     38  O   UNL     1     111.730 126.030 140.281  0.00  0.00    +0.000 OA
ATOM     39  C   UNL     1     110.309 127.806 139.305  0.00  0.00    +0.000 A 
ATOM     40  C   UNL     1     110.066 127.019 139.271  0.00  0.00    +0.000 A 
ATOM     41  C   UNL     1     111.025 128.002 139.664  0.00  0.00    +0.000 A 
ATOM     42  C   UNL     1     111.499 127.410 139.989  0.00  0.00    +0.000 A 
ATOM     43  C   UNL     1     110.540 126.427 139.596  0.00  0.00    +0.000 A 
ATOM     44  C   UNL     1     111.256 126.623 139.955  0.00  0.00    +0.000 A 
ENDBRANCH  35  39
ENDBRANCH  33  35
ENDBRANCH  32  33
ENDBRANCH  29  32
ENDBRANCH   1  31
TORSDOF 7
ENDMDL
MODEL 6
REMARK VINA RESULT:     -10.0      1.892      4.673
REMARK  Name = 74977604
REMARK  7 active torsions:
REMARK  status: ('A' for Active; 'I' for Inactive)
REMARK    1  A    between atoms: O_4  and  C_21
REMARK    2  A    between atoms: O_4  and  C_23
REMARK    3  A    between atoms: O_6  and  C_22
REMARK    4  A    between atoms: O_6  and  C_26
REMARK    5  A    between atoms: C_19  and  C_22
REMARK    6  A    between atoms: C_26  and  C_30
REMARK    7  A    between atoms: C_32  and  C_36
REMARK                            x       y       z     vdW  Elec       q    Type
REMARK                         _______ _______ _______ _____ _____    ______ ____
ROOT
ATOM      1  O   UNL     1     113.277 128.729 138.276  0.00  0.00    +0.000 OA
ENDROOT
BRANCH   1   6
ATOM      2  O   UNL     1     111.027 129.828 136.789  0.00  0.00    +0.000 OA
ATOM      3  O   UNL     1     113.140 128.461 135.370  0.00  0.00    +0.000 OA
ATOM      4  O   UNL     1     112.009 129.018 134.667  0.00  0.00    +0.000 OA
ATOM      5  O   UNL     1     110.574 129.830 134.654  0.00  0.00    +0.000 OA
ATOM      6  C   UNL     1     112.889 128.864 137.560  0.00  0.00    +0.000 A 
ATOM      7  C   UNL     1     112.141 129.286 137.546  0.00  0.00    +0.000 A 
ATOM      8  C   UNL     1     113.231 128.582 136.823  0.00  0.00    +0.000 A 
ATOM      9  C   UNL     1     111.745 129.422 136.796  0.00  0.00    +0.000 A 
ATOM     10  C   UNL     1     112.073 129.151 136.089  0.00  0.00    +0.000 A 
ATOM     11  C   UNL     1     112.820 128.727 136.083  0.00  0.00    +0.000 A 
ATOM     12  C   UNL     1     111.682 129.288 135.375  0.00  0.00    +0.000 A 
ATOM     13  C   UNL     1     110.636 129.964 136.075  0.00  0.00    +0.000 A 
ATOM     14  C   UNL     1     110.964 129.694 135.368  0.00  0.00    +0.000 A 
BRANCH  13  17
ATOM     15  O   UNL     1     107.780 129.942 136.153  0.00  0.00    +0.000 OA
ATOM     16  O   UNL     1     107.763 131.588 136.047  0.00  0.00    +0.000 OA
ATOM     17  C   UNL     1     109.918 130.371 136.068  0.00  0.00    +0.000 A 
ATOM     18  C   UNL     1     109.208 129.953 136.114  0.00  0.00    +0.000 A 
ATOM     19  C   UNL     1     109.910 131.194 136.016  0.00  0.00    +0.000 A 
ATOM     20  C   UNL     1     108.489 130.359 136.107  0.00  0.00    +0.000 A 
ATOM     21  C   UNL     1     109.192 131.599 136.009  0.00  0.00    +0.000 A 
ATOM     22  C   UNL     1     108.482 131.182 136.054  0.00  0.00    +0.000 A 
ENDBRANCH  13  17
ENDBRANCH   1   6
BRANCH   1  31
ATOM     23  O   UNL     1     112.653 127.455 138.448  0.00  0.00    +0.000 OA
ATOM     24  O   UNL     1     112.298 126.269 140.246  0.00  0.00    +0.000 OA
ATOM     25  O   UNL     1     113.056 127.587 140.886  0.00  0.00    +0.000 OA
ATOM     26  O   UNL     1     113.546 128.817 139.902  0.00  0.00    +0.000 OA
ATOM     27  C   UNL     1     112.542 126.884 139.753  0.00  0.00    +0.000 C 
ATOM     28  C   UNL     1     112.922 127.543 140.074  0.00  0.00    +0.000 C 
ATOM     29  C   UNL     1     112.408 126.840 138.940  0.00  0.00    +0.000 C 
ATOM     30  C   UNL     1     113.166 128.158 139.581  0.00  0.00    +0.000 C 
ATOM     31  C   UNL     1     113.032 128.114 138.768  0.00  0.00    +0.000 C 
BRANCH  29  32
ATOM     32  C   UNL     1     112.029 126.181 138.620  0.00  0.00    +0.000 C 
BRANCH  32  33
ATOM     33  O   UNL     1     111.333 126.275 138.187  0.00  0.00    +0.000 OA
BRANCH  33  35
ATOM     34  O   UNL     1     111.285 124.891 137.835  0.00  0.00    +0.000 OA
ATOM     35  C   UNL     1     111.077 125.675 137.683  0.00  0.00    +0.000 C 
BRANCH  35  39
ATOM     36  O   UNL     1     108.702 126.814 136.574  0.00  0.00    +0.000 OA
ATOM     37  O   UNL     1     110.658 125.634 134.856  0.00  0.00    +0.000 OA
ATOM     38  O   UNL     1     109.214 126.407 135.059  0.00  0.00    +0.000 OA
ATOM     39  C   UNL     1     110.611 125.858 137.026  0.00  0.00    +0.000 A 
ATOM     40  C   UNL     1     110.867 125.655 136.270  0.00  0.00    +0.000 A 
ATOM     41  C   UNL     1     109.889 126.244 137.128  0.00  0.00    +0.000 A 
ATOM     42  C   UNL     1     109.424 126.427 136.472  0.00  0.00    +0.000 A 
ATOM     43  C   UNL     1     110.402 125.837 135.614  0.00  0.00    +0.000 A 
ATOM     44  C   UNL     1     109.680 126.224 135.715  0.00  0.00    +0.000 A 
ENDBRANCH  35  39
ENDBRANCH  33  35
ENDBRANCH  32  33
ENDBRANCH  29  32
ENDBRANCH   1  31
TORSDOF 7
ENDMDL
MODEL 7
REMARK VINA RESULT:      -9.9      1.362      3.048
REMARK  Name = 74977604
REMARK  7 active torsions:
REMARK  status: ('A' for Active; 'I' for Inactive)
REMARK    1  A    between atoms: O_4  and  C_21
REMARK    2  A    between atoms: O_4  and  C_23
REMARK    3  A    between atoms: O_6  and  C_22
REMARK    4  A    between atoms: O_6  and  C_26
REMARK    5  A    between atoms: C_19  and  C_22
REMARK    6  A    between atoms: C_26  and  C_30
REMARK    7  A    between atoms: C_32  and  C_36
REMARK                            x       y       z     vdW  Elec       q    Type
REMARK                         _______ _______ _______ _____ _____    ______ ____
ROOT
ATOM      1  O   UNL     1     110.554 129.647 135.049  0.00  0.00    +0.000 OA
ENDROOT
BRANCH   1   6
ATOM      2  O   UNL     1     111.557 127.139 136.136  0.00  0.00    +0.000 OA
ATOM      3  O   UNL     1     113.410 129.270 135.529  0.00  0.00    +0.000 OA
ATOM      4  O   UNL     1     113.871 128.014 136.068  0.00  0.00    +0.000 OA
ATOM      5  O   UNL     1     113.582 126.488 136.625  0.00  0.00    +0.000 OA
ATOM      6  C   UNL     1     111.183 129.179 135.304  0.00  0.00    +0.000 A 
ATOM      7  C   UNL     1     111.040 128.383 135.595  0.00  0.00    +0.000 A 
ATOM      8  C   UNL     1     111.987 129.483 135.280  0.00  0.00    +0.000 A 
ATOM      9  C   UNL     1     111.701 127.902 135.858  0.00  0.00    +0.000 A 
ATOM     10  C   UNL     1     112.472 128.194 135.835  0.00  0.00    +0.000 A 
ATOM     11  C   UNL     1     112.636 128.987 135.548  0.00  0.00    +0.000 A 
ATOM     12  C   UNL     1     113.099 127.722 136.091  0.00  0.00    +0.000 A 
ATOM     13  C   UNL     1     112.184 126.667 136.392  0.00  0.00    +0.000 A 
ATOM     14  C   UNL     1     112.955 126.959 136.369  0.00  0.00    +0.000 A 
BRANCH  13  17
ATOM     15  O   UNL     1     111.337 124.915 138.484  0.00  0.00    +0.000 OA
ATOM     16  O   UNL     1     111.608 123.615 137.506  0.00  0.00    +0.000 OA
ATOM     17  C   UNL     1     112.040 125.904 136.670  0.00  0.00    +0.000 A 
ATOM     18  C   UNL     1     111.761 125.792 137.438  0.00  0.00    +0.000 A 
ATOM     19  C   UNL     1     112.176 125.254 136.181  0.00  0.00    +0.000 A 
ATOM     20  C   UNL     1     111.616 125.028 137.717  0.00  0.00    +0.000 A 
ATOM     21  C   UNL     1     112.032 124.491 136.459  0.00  0.00    +0.000 A 
ATOM     22  C   UNL     1     111.752 124.378 137.227  0.00  0.00    +0.000 A 
ENDBRANCH  13  17
ENDBRANCH   1   6
BRANCH   1  31
ATOM     23  O   UNL     1     110.315 130.216 136.338  0.00  0.00    +0.000 OA
ATOM     24  O   UNL     1     108.480 130.966 137.252  0.00  0.00    +0.000 OA
ATOM     25  O   UNL     1     107.920 130.488 135.776  0.00  0.00    +0.000 OA
ATOM     26  O   UNL     1     108.957 129.828 134.674  0.00  0.00    +0.000 OA
ATOM     27  C   UNL     1     108.999 130.636 136.702  0.00  0.00    +0.000 C 
ATOM     28  C   UNL     1     108.719 130.397 135.963  0.00  0.00    +0.000 C 
ATOM     29  C   UNL     1     109.797 130.546 136.889  0.00  0.00    +0.000 C 
ATOM     30  C   UNL     1     109.237 130.068 135.413  0.00  0.00    +0.000 C 
ATOM     31  C   UNL     1     110.036 129.977 135.600  0.00  0.00    +0.000 C 
BRANCH  29  32
ATOM     32  C   UNL     1     110.077 130.785 137.627  0.00  0.00    +0.000 C 
BRANCH  32  33
ATOM     33  O   UNL     1     110.509 130.260 138.095  0.00  0.00    +0.000 OA
BRANCH  33  35
ATOM     34  O   UNL     1     110.853 131.283 139.031  0.00  0.00    +0.000 OA
ATOM     35  C   UNL     1     111.004 130.547 138.689  0.00  0.00    +0.000 C 
BRANCH  35  39
ATOM     36  O   UNL     1     112.056 128.170 139.875  0.00  0.00    +0.000 OA
ATOM     37  O   UNL     1     113.827 130.239 139.011  0.00  0.00    +0.000 OA
ATOM     38  O   UNL     1     113.587 128.757 139.695  0.00  0.00    +0.000 OA
ATOM     39  C   UNL     1     111.650 130.100 138.940  0.00  0.00    +0.000 A 
ATOM     40  C   UNL     1     112.415 130.393 138.850  0.00  0.00    +0.000 A 
ATOM     41  C   UNL     1     111.530 129.359 139.282  0.00  0.00    +0.000 A 
ATOM     42  C   UNL     1     112.176 128.911 139.534  0.00  0.00    +0.000 A 
ATOM     43  C   UNL     1     113.061 129.946 139.101  0.00  0.00    +0.000 A 
ATOM     44  C   UNL     1     112.941 129.205 139.443  0.00  0.00    +0.000 A 
ENDBRANCH  35  39
ENDBRANCH  33  35
ENDBRANCH  32  33
ENDBRANCH  29  32
ENDBRANCH   1  31
TORSDOF 7
ENDMDL
MODEL 8
REMARK VINA RESULT:      -9.8      2.313      4.831
REMARK  Name = 74977604
REMARK  7 active torsions:
REMARK  status: ('A' for Active; 'I' for Inactive)
REMARK    1  A    between atoms: O_4  and  C_21
REMARK    2  A    between atoms: O_4  and  C_23
REMARK    3  A    between atoms: O_6  and  C_22
REMARK    4  A    between atoms: O_6  and  C_26
REMARK    5  A    between atoms: C_19  and  C_22
REMARK    6  A    between atoms: C_26  and  C_30
REMARK    7  A    between atoms: C_32  and  C_36
REMARK                            x       y       z     vdW  Elec       q    Type
REMARK                         _______ _______ _______ _____ _____    ______ ____
ROOT
ATOM      1  O   UNL     1     112.426 129.096 136.433  0.00  0.00    +0.000 OA
ENDROOT
BRANCH   1   6
ATOM      2  O   UNL     1     110.149 130.856 135.987  0.00  0.00    +0.000 OA
ATOM      3  O   UNL     1     112.346 131.759 137.631  0.00  0.00    +0.000 OA
ATOM      4  O   UNL     1     111.202 132.603 137.388  0.00  0.00    +0.000 OA
ATOM      5  O   UNL     1     109.729 132.877 136.696  0.00  0.00    +0.000 OA
ATOM      6  C   UNL     1     112.043 129.817 136.556  0.00  0.00    +0.000 A 
ATOM      7  C   UNL     1     111.276 129.966 136.199  0.00  0.00    +0.000 A 
ATOM      8  C   UNL     1     112.409 130.424 137.043  0.00  0.00    +0.000 A 
ATOM      9  C   UNL     1     110.885 130.719 136.333  0.00  0.00    +0.000 A 
ATOM     10  C   UNL     1     111.236 131.301 136.800  0.00  0.00    +0.000 A 
ATOM     11  C   UNL     1     112.003 131.171 137.165  0.00  0.00    +0.000 A 
ATOM     12  C   UNL     1     110.851 132.020 136.921  0.00  0.00    +0.000 A 
ATOM     13  C   UNL     1     109.763 131.575 136.108  0.00  0.00    +0.000 A 
ATOM     14  C   UNL     1     110.114 132.158 136.575  0.00  0.00    +0.000 A 
BRANCH  13  17
ATOM     15  O   UNL     1     106.921 131.280 136.139  0.00  0.00    +0.000 OA
ATOM     16  O   UNL     1     106.817 132.124 134.725  0.00  0.00    +0.000 OA
ATOM     17  C   UNL     1     109.026 131.713 135.762  0.00  0.00    +0.000 A 
ATOM     18  C   UNL     1     108.343 131.427 136.124  0.00  0.00    +0.000 A 
ATOM     19  C   UNL     1     108.975 132.135 135.055  0.00  0.00    +0.000 A 
ATOM     20  C   UNL     1     107.605 131.565 135.778  0.00  0.00    +0.000 A 
ATOM     21  C   UNL     1     108.238 132.272 134.710  0.00  0.00    +0.000 A 
ATOM     22  C   UNL     1     107.554 131.987 135.071  0.00  0.00    +0.000 A 
ENDBRANCH  13  17
ENDBRANCH   1   6
BRANCH   1  31
ATOM     23  O   UNL     1     111.875 128.504 137.611  0.00  0.00    +0.000 OA
ATOM     24  O   UNL     1     111.477 126.416 138.109  0.00  0.00    +0.000 OA
ATOM     25  O   UNL     1     112.104 126.261 136.591  0.00  0.00    +0.000 OA
ATOM     26  O   UNL     1     112.579 127.601 135.753  0.00  0.00    +0.000 OA
ATOM     27  C   UNL     1     111.714 127.087 137.691  0.00  0.00    +0.000 C 
ATOM     28  C   UNL     1     112.028 127.009 136.931  0.00  0.00    +0.000 C 
ATOM     29  C   UNL     1     111.637 127.834 138.031  0.00  0.00    +0.000 C 
ATOM     30  C   UNL     1     112.265 127.679 136.513  0.00  0.00    +0.000 C 
ATOM     31  C   UNL     1     112.188 128.426 136.853  0.00  0.00    +0.000 C 
BRANCH  29  32
ATOM     32  C   UNL     1     111.324 127.912 138.789  0.00  0.00    +0.000 C 
BRANCH  32  33
ATOM     33  O   UNL     1     110.706 128.440 138.929  0.00  0.00    +0.000 OA
BRANCH  33  35
ATOM     34  O   UNL     1     110.734 128.201 140.337  0.00  0.00    +0.000 OA
ATOM     35  C   UNL     1     110.537 128.685 139.698  0.00  0.00    +0.000 C 
BRANCH  35  39
ATOM     36  O   UNL     1     110.622 131.341 140.750  0.00  0.00    +0.000 OA
ATOM     37  O   UNL     1     108.265 130.399 139.437  0.00  0.00    +0.000 OA
ATOM     38  O   UNL     1     109.079 131.598 140.225  0.00  0.00    +0.000 OA
ATOM     39  C   UNL     1     110.172 129.413 139.829  0.00  0.00    +0.000 A 
ATOM     40  C   UNL     1     109.401 129.542 139.567  0.00  0.00    +0.000 A 
ATOM     41  C   UNL     1     110.579 130.013 140.224  0.00  0.00    +0.000 A 
ATOM     42  C   UNL     1     110.215 130.741 140.356  0.00  0.00    +0.000 A 
ATOM     43  C   UNL     1     109.037 130.270 139.699  0.00  0.00    +0.000 A 
ATOM     44  C   UNL     1     109.444 130.869 140.093  0.00  0.00    +0.000 A 
ENDBRANCH  35  39
ENDBRANCH  33  35
ENDBRANCH  32  33
ENDBRANCH  29  32
ENDBRANCH   1  31
TORSDOF 7
ENDMDL
MODEL 9
REMARK VINA RESULT:      -9.8      1.948      5.129
REMARK  Name = 74977604
REMARK  7 active torsions:
REMARK  status: ('A' for Active; 'I' for Inactive)
REMARK    1  A    between atoms: O_4  and  C_21
REMARK    2  A    between atoms: O_4  and  C_23
REMARK    3  A    between atoms: O_6  and  C_22
REMARK    4  A    between atoms: O_6  and  C_26
REMARK    5  A    between atoms: C_19  and  C_22
REMARK    6  A    between atoms: C_26  and  C_30
REMARK    7  A    between atoms: C_32  and  C_36
REMARK                            x       y       z     vdW  Elec       q    Type
REMARK                         _______ _______ _______ _____ _____    ______ ____
ROOT
ATOM      1  O   UNL     1     113.518 126.207 138.747  0.00  0.00    +0.000 OA
ENDROOT
BRANCH   1   6
ATOM      2  O   UNL     1     112.126 128.713 138.231  0.00  0.00    +0.000 OA
ATOM      3  O   UNL     1     110.896 126.724 139.927  0.00  0.00    +0.000 OA
ATOM      4  O   UNL     1     110.237 127.977 139.649  0.00  0.00    +0.000 OA
ATOM      5  O   UNL     1     110.192 129.455 138.917  0.00  0.00    +0.000 OA
ATOM      6  C   UNL     1     112.864 126.698 138.856  0.00  0.00    +0.000 A 
ATOM      7  C   UNL     1     112.834 127.469 138.477  0.00  0.00    +0.000 A 
ATOM      8  C   UNL     1     112.207 126.443 139.348  0.00  0.00    +0.000 A 
ATOM      9  C   UNL     1     112.149 127.974 138.597  0.00  0.00    +0.000 A 
ATOM     10  C   UNL     1     111.519 127.728 139.069  0.00  0.00    +0.000 A 
ATOM     11  C   UNL     1     111.531 126.961 139.456  0.00  0.00    +0.000 A 
ATOM     12  C   UNL     1     110.867 128.222 139.176  0.00  0.00    +0.000 A 
ATOM     13  C   UNL     1     111.474 129.207 138.337  0.00  0.00    +0.000 A 
ATOM     14  C   UNL     1     110.845 128.962 138.810  0.00  0.00    +0.000 A 
BRANCH  13  17
ATOM     15  O   UNL     1     110.744 130.845 136.113  0.00  0.00    +0.000 OA
ATOM     16  O   UNL     1     111.383 132.163 136.873  0.00  0.00    +0.000 OA
ATOM     17  C   UNL     1     111.452 129.946 137.971  0.00  0.00    +0.000 A 
ATOM     18  C   UNL     1     111.109 130.026 137.225  0.00  0.00    +0.000 A 
ATOM     19  C   UNL     1     111.771 130.605 138.352  0.00  0.00    +0.000 A 
ATOM     20  C   UNL     1     111.086 130.765 136.859  0.00  0.00    +0.000 A 
ATOM     21  C   UNL     1     111.748 131.343 137.985  0.00  0.00    +0.000 A 
ATOM     22  C   UNL     1     111.406 131.424 137.239  0.00  0.00    +0.000 A 
ENDBRANCH  13  17
ENDBRANCH   1   6
BRANCH   1  31
ATOM     23  O   UNL     1     112.894 125.585 137.622  0.00  0.00    +0.000 OA
ATOM     24  O   UNL     1     113.714 124.291 136.067  0.00  0.00    +0.000 OA
ATOM     25  O   UNL     1     115.060 124.577 136.977  0.00  0.00    +0.000 OA
ATOM     26  O   UNL     1     114.962 125.535 138.317  0.00  0.00    +0.000 OA
ATOM     27  C   UNL     1     113.664 124.770 136.737  0.00  0.00    +0.000 C 
ATOM     28  C   UNL     1     114.338 124.913 137.192  0.00  0.00    +0.000 C 
ATOM     29  C   UNL     1     112.942 125.106 136.952  0.00  0.00    +0.000 C 
ATOM     30  C   UNL     1     114.288 125.392 137.862  0.00  0.00    +0.000 C 
ATOM     31  C   UNL     1     113.566 125.728 138.077  0.00  0.00    +0.000 C 
BRANCH  29  32
ATOM     32  C   UNL     1     112.269 124.963 136.497  0.00  0.00    +0.000 C 
BRANCH  32  33
ATOM     33  O   UNL     1     111.819 125.595 136.216  0.00  0.00    +0.000 OA
BRANCH  33  35
ATOM     34  O   UNL     1     110.850 124.699 135.669  0.00  0.00    +0.000 OA
ATOM     35  C   UNL     1     111.068 125.459 135.903  0.00  0.00    +0.000 C 
BRANCH  35  39
ATOM     36  O   UNL     1     108.674 126.786 136.726  0.00  0.00    +0.000 OA
ATOM     37  O   UNL     1     110.258 127.877 134.612  0.00  0.00    +0.000 OA
ATOM     38  O   UNL     1     108.932 127.955 135.591  0.00  0.00    +0.000 OA
ATOM     39  C   UNL     1     110.534 126.084 135.825  0.00  0.00    +0.000 A 
ATOM     40  C   UNL     1     110.663 126.668 135.258  0.00  0.00    +0.000 A 
ATOM     41  C   UNL     1     109.871 126.123 136.314  0.00  0.00    +0.000 A 
ATOM     42  C   UNL     1     109.337 126.747 136.236  0.00  0.00    +0.000 A 
ATOM     43  C   UNL     1     110.130 127.292 135.179  0.00  0.00    +0.000 A 
ATOM     44  C   UNL     1     109.466 127.331 135.669  0.00  0.00    +0.000 A 
ENDBRANCH  35  39
ENDBRANCH  33  35
ENDBRANCH  32  33
ENDBRANCH  29  32
ENDBRANCH   1  31
TORSDOF 7
ENDMDL
MODEL 10
REMARK VINA RESULT:      -9.7      2.030      4.806
REMARK  Name = 74977604
REMARK  7 active torsions:
REMARK  status: ('A' for Active; 'I' for Inactive)
REMARK    1  A    between atoms: O_4  and  C_21
REMARK    2  A    between atoms: O_4  and  C_23
REMARK    3  A    between atoms: O_6  and  C_22
REMARK    4  A    between atoms: O_6  and  C_26
REMARK    5  A    between atoms: C_19  and  C_22
REMARK    6  A    between atoms: C_26  and  C_30
REMARK    7  A    between atoms: C_32  and  C_36
REMARK                            x       y       z     vdW  Elec       q    Type
REMARK                         _______ _______ _______ _____ _____    ______ ____
ROOT
ATOM      1  O   UNL     1     111.227 128.172 136.002  0.00  0.00    +0.000 OA
ENDROOT
BRANCH   1   6
ATOM      2  O   UNL     1     112.096 129.203 138.584  0.00  0.00    +0.000 OA
ATOM      3  O   UNL     1     112.879 130.575 136.165  0.00  0.00    +0.000 OA
ATOM      4  O   UNL     1     113.291 131.057 137.461  0.00  0.00    +0.000 OA
ATOM      5  O   UNL     1     113.313 130.938 139.106  0.00  0.00    +0.000 OA
ATOM      6  C   UNL     1     111.638 128.731 136.448  0.00  0.00    +0.000 A 
ATOM      7  C   UNL     1     111.654 128.675 137.305  0.00  0.00    +0.000 A 
ATOM      8  C   UNL     1     112.053 129.376 136.058  0.00  0.00    +0.000 A 
ATOM      9  C   UNL     1     112.084 129.263 137.761  0.00  0.00    +0.000 A 
ATOM     10  C   UNL     1     112.482 129.881 137.386  0.00  0.00    +0.000 A 
ATOM     11  C   UNL     1     112.478 129.954 136.530  0.00  0.00    +0.000 A 
ATOM     12  C   UNL     1     112.892 130.439 137.835  0.00  0.00    +0.000 A 
ATOM     13  C   UNL     1     112.505 129.761 139.033  0.00  0.00    +0.000 A 
ATOM     14  C   UNL     1     112.903 130.379 138.658  0.00  0.00    +0.000 A 
BRANCH  13  17
ATOM     15  O   UNL     1     111.305 130.300 141.569  0.00  0.00    +0.000 OA
ATOM     16  O   UNL     1     112.551 129.524 142.324  0.00  0.00    +0.000 OA
ATOM     17  C   UNL     1     112.517 129.702 139.856  0.00  0.00    +0.000 A 
ATOM     18  C   UNL     1     111.905 130.031 140.300  0.00  0.00    +0.000 A 
ATOM     19  C   UNL     1     113.140 129.314 140.232  0.00  0.00    +0.000 A 
ATOM     20  C   UNL     1     111.916 129.972 141.124  0.00  0.00    +0.000 A 
ATOM     21  C   UNL     1     113.151 129.255 141.055  0.00  0.00    +0.000 A 
ATOM     22  C   UNL     1     112.539 129.584 141.501  0.00  0.00    +0.000 A 
ENDBRANCH  13  17
ENDBRANCH   1   6
BRANCH   1  31
ATOM     23  O   UNL     1     110.025 128.943 135.992  0.00  0.00    +0.000 OA
ATOM     24  O   UNL     1     107.940 128.337 135.770  0.00  0.00    +0.000 OA
ATOM     25  O   UNL     1     108.701 126.876 135.673  0.00  0.00    +0.000 OA
ATOM     26  O   UNL     1     110.345 126.794 135.789  0.00  0.00    +0.000 OA
ATOM     27  C   UNL     1     108.761 128.296 135.828  0.00  0.00    +0.000 C 
ATOM     28  C   UNL     1     109.142 127.565 135.779  0.00  0.00    +0.000 C 
ATOM     29  C   UNL     1     109.203 128.985 135.934  0.00  0.00    +0.000 C 
ATOM     30  C   UNL     1     109.964 127.525 135.838  0.00  0.00    +0.000 C 
ATOM     31  C   UNL     1     110.405 128.214 135.944  0.00  0.00    +0.000 C 
BRANCH  29  32
ATOM     32  C   UNL     1     108.822 129.715 135.983  0.00  0.00    +0.000 C 
BRANCH  32  33
ATOM     33  O   UNL     1     108.949 130.205 136.634  0.00  0.00    +0.000 OA
BRANCH  33  35
ATOM     34  O   UNL     1     108.166 131.260 136.074  0.00  0.00    +0.000 OA
ATOM     35  C   UNL     1     108.754 131.005 136.594  0.00  0.00    +0.000 C 
BRANCH  35  39
ATOM     36  O   UNL     1     109.445 131.969 139.194  0.00  0.00    +0.000 OA
ATOM     37  O   UNL     1     110.416 133.314 136.866  0.00  0.00    +0.000 OA
ATOM     38  O   UNL     1     110.323 133.187 138.509  0.00  0.00    +0.000 OA
ATOM     39  C   UNL     1     109.146 131.551 137.072  0.00  0.00    +0.000 A 
ATOM     40  C   UNL     1     109.585 132.159 136.730  0.00  0.00    +0.000 A 
ATOM     41  C   UNL     1     109.100 131.488 137.893  0.00  0.00    +0.000 A 
ATOM     42  C   UNL     1     109.492 132.033 138.372  0.00  0.00    +0.000 A 
ATOM     43  C   UNL     1     109.977 132.704 137.208  0.00  0.00    +0.000 A 
ATOM     44  C   UNL     1     109.930 132.641 138.029  0.00  0.00    +0.000 A 
ENDBRANCH  35  39
ENDBRANCH  33  35
ENDBRANCH  32  33
ENDBRANCH  29  32
ENDBRANCH   1  31
TORSDOF 7
ENDMDL
