MODEL 1
REMARK VINA RESULT:      -9.9      0.000      0.000
REMARK  Name = 131836778
REMARK  7 active torsions:
REMARK  status: ('A' for Active; 'I' for Inactive)
REMARK    1  A    between atoms: O_2  and  C_20
REMARK    2  A    between atoms: O_2  and  C_22
REMARK    3  A    between atoms: O_7  and  C_27
REMARK    4  A    between atoms: O_7  and  C_34
REMARK    5  A    between atoms: C_21  and  C_28
REMARK    6  A    between atoms: C_23  and  C_31
REMARK    7  A    between atoms: C_29  and  C_37
REMARK                            x       y       z     vdW  Elec       q    Type
REMARK                         _______ _______ _______ _____ _____    ______ ____
ROOT
ATOM      1  O   UNL     1     113.003 125.955 138.285  0.00  0.00    +0.000 OA
ATOM      2  O   UNL     1     110.589 126.335 137.889  0.00  0.00    +0.000 OA
ATOM      3  O   UNL     1     110.537 125.224 136.970  0.00  0.00    +0.000 OA
ATOM      4  O   UNL     1     112.972 123.700 136.443  0.00  0.00    +0.000 OA
ATOM      5  C   UNL     1     111.809 126.698 138.540  0.00  0.00    +0.000 C 
ATOM      6  C   UNL     1     112.613 126.572 138.672  0.00  0.00    +0.000 C 
ATOM      7  C   UNL     1     111.394 126.208 138.021  0.00  0.00    +0.000 C 
ATOM      8  C   UNL     1     111.784 125.593 137.635  0.00  0.00    +0.000 A 
ATOM      9  C   UNL     1     112.588 125.466 137.767  0.00  0.00    +0.000 A 
ATOM     10  C   UNL     1     111.341 125.090 137.096  0.00  0.00    +0.000 A 
ATOM     11  C   UNL     1     113.006 124.828 137.370  0.00  0.00    +0.000 A 
ATOM     12  C   UNL     1     111.741 124.447 136.691  0.00  0.00    +0.000 A 
ATOM     13  C   UNL     1     112.579 124.315 136.829  0.00  0.00    +0.000 A 
ENDROOT
BRANCH   6  15
ATOM     14  O   UNL     1     113.990 126.953 141.147  0.00  0.00    +0.000 OA
ATOM     15  C   UNL     1     113.028 127.061 139.191  0.00  0.00    +0.000 A 
ATOM     16  C   UNL     1     113.857 128.040 140.229  0.00  0.00    +0.000 A 
ATOM     17  C   UNL     1     113.301 126.762 139.909  0.00  0.00    +0.000 A 
ATOM     18  C   UNL     1     113.168 127.849 138.991  0.00  0.00    +0.000 A 
ATOM     19  C   UNL     1     113.716 127.252 140.428  0.00  0.00    +0.000 A 
ATOM     20  C   UNL     1     113.582 128.339 139.510  0.00  0.00    +0.000 A 
BRANCH  16  21
ATOM     21  O   UNL     1     114.271 128.529 140.748  0.00  0.00    +0.000 OA
BRANCH  21  29
ATOM     22  O   UNL     1     113.174 129.195 141.377  0.00  0.00    +0.000 OA
ATOM     23  O   UNL     1     114.371 131.352 141.180  0.00  0.00    +0.000 OA
ATOM     24  O   UNL     1     115.069 129.967 140.617  0.00  0.00    +0.000 OA
ATOM     25  O   UNL     1     112.875 131.299 141.874  0.00  0.00    +0.000 OA
ATOM     26  C   UNL     1     113.972 130.633 141.246  0.00  0.00    +0.000 C 
ATOM     27  C   UNL     1     114.321 129.940 140.964  0.00  0.00    +0.000 C 
ATOM     28  C   UNL     1     113.224 130.606 141.593  0.00  0.00    +0.000 C 
ATOM     29  C   UNL     1     113.922 129.221 141.030  0.00  0.00    +0.000 C 
ATOM     30  C   UNL     1     112.825 129.887 141.658  0.00  0.00    +0.000 C 
BRANCH  30  33
ATOM     31  O   UNL     1     111.413 130.089 141.573  0.00  0.00    +0.000 OA
ATOM     32  O   UNL     1     111.994 129.606 142.785  0.00  0.00    +0.000 OA
ATOM     33  C   UNL     1     112.077 129.861 142.005  0.00  0.00    +0.000 C 
ENDBRANCH  30  33
ENDBRANCH  21  29
ENDBRANCH  16  21
ENDBRANCH   6  15
BRANCH   5  34
ATOM     34  O   UNL     1     111.419 127.314 138.927  0.00  0.00    +0.000 OA
BRANCH  34  40
ATOM     35  O   UNL     1     110.714 126.478 139.909  0.00  0.00    +0.000 OA
ATOM     36  O   UNL     1     109.982 128.354 139.201  0.00  0.00    +0.000 OA
ATOM     37  O   UNL     1     108.926 127.535 140.399  0.00  0.00    +0.000 OA
ATOM     38  C   UNL     1     110.131 127.627 139.562  0.00  0.00    +0.000 C 
ATOM     39  C   UNL     1     109.645 127.251 140.113  0.00  0.00    +0.000 C 
ATOM     40  C   UNL     1     110.791 127.149 139.436  0.00  0.00    +0.000 C 
ATOM     41  C   UNL     1     110.006 126.540 140.327  0.00  0.00    +0.000 C 
BRANCH  41  43
ATOM     42  O   UNL     1     110.226 125.511 141.294  0.00  0.00    +0.000 OA
ATOM     43  C   UNL     1     109.710 125.990 140.865  0.00  0.00    +0.000 C 
ENDBRANCH  41  43
ENDBRANCH  34  40
ENDBRANCH   5  34
TORSDOF 7
ENDMDL
MODEL 2
REMARK VINA RESULT:      -9.8      3.166      4.007
REMARK  Name = 131836778
REMARK  7 active torsions:
REMARK  status: ('A' for Active; 'I' for Inactive)
REMARK    1  A    between atoms: O_2  and  C_20
REMARK    2  A    between atoms: O_2  and  C_22
REMARK    3  A    between atoms: O_7  and  C_27
REMARK    4  A    between atoms: O_7  and  C_34
REMARK    5  A    between atoms: C_21  and  C_28
REMARK    6  A    between atoms: C_23  and  C_31
REMARK    7  A    between atoms: C_29  and  C_37
REMARK                            x       y       z     vdW  Elec       q    Type
REMARK                         _______ _______ _______ _____ _____    ______ ____
ROOT
ATOM      1  O   UNL     1     113.317 126.743 136.834  0.00  0.00    +0.000 OA
ATOM      2  O   UNL     1     111.473 125.360 135.931  0.00  0.00    +0.000 OA
ATOM      3  O   UNL     1     112.179 124.147 136.269  0.00  0.00    +0.000 OA
ATOM      4  O   UNL     1     114.799 124.339 137.544  0.00  0.00    +0.000 OA
ATOM      5  C   UNL     1     112.035 126.643 136.210  0.00  0.00    +0.000 C 
ATOM      6  C   UNL     1     112.649 127.105 136.511  0.00  0.00    +0.000 C 
ATOM      7  C   UNL     1     112.088 125.820 136.232  0.00  0.00    +0.000 C 
ATOM      8  C   UNL     1     112.755 125.459 136.555  0.00  0.00    +0.000 A 
ATOM      9  C   UNL     1     113.370 125.920 136.856  0.00  0.00    +0.000 A 
ATOM     10  C   UNL     1     112.798 124.600 136.572  0.00  0.00    +0.000 A 
ATOM     11  C   UNL     1     114.070 125.555 137.195  0.00  0.00    +0.000 A 
ATOM     12  C   UNL     1     113.491 124.218 136.907  0.00  0.00    +0.000 A 
ATOM     13  C   UNL     1     114.131 124.698 137.221  0.00  0.00    +0.000 A 
ENDROOT
BRANCH   6  15
ATOM     14  O   UNL     1     112.809 129.557 135.052  0.00  0.00    +0.000 OA
ATOM     15  C   UNL     1     112.596 127.928 136.489  0.00  0.00    +0.000 A 
ATOM     16  C   UNL     1     112.490 129.574 136.445  0.00  0.00    +0.000 A 
ATOM     17  C   UNL     1     112.729 128.331 135.782  0.00  0.00    +0.000 A 
ATOM     18  C   UNL     1     112.410 128.347 137.175  0.00  0.00    +0.000 A 
ATOM     19  C   UNL     1     112.676 129.154 135.760  0.00  0.00    +0.000 A 
ATOM     20  C   UNL     1     112.357 129.170 137.153  0.00  0.00    +0.000 A 
BRANCH  16  21
ATOM     21  O   UNL     1     112.437 130.397 136.422  0.00  0.00    +0.000 OA
BRANCH  21  29
ATOM     22  O   UNL     1     111.012 130.491 136.380  0.00  0.00    +0.000 OA
ATOM     23  O   UNL     1     111.097 132.457 137.881  0.00  0.00    +0.000 OA
ATOM     24  O   UNL     1     112.494 131.708 137.423  0.00  0.00    +0.000 OA
ATOM     25  O   UNL     1     109.644 131.896 137.339  0.00  0.00    +0.000 OA
ATOM     26  C   UNL     1     111.069 131.802 137.381  0.00  0.00    +0.000 C 
ATOM     27  C   UNL     1     111.768 131.427 137.152  0.00  0.00    +0.000 C 
ATOM     28  C   UNL     1     110.343 131.521 137.110  0.00  0.00    +0.000 C 
ATOM     29  C   UNL     1     111.739 130.771 136.651  0.00  0.00    +0.000 C 
ATOM     30  C   UNL     1     110.314 130.865 136.609  0.00  0.00    +0.000 C 
BRANCH  30  33
ATOM     31  O   UNL     1     109.348 130.737 135.564  0.00  0.00    +0.000 OA
ATOM     32  O   UNL     1     109.098 130.152 136.843  0.00  0.00    +0.000 OA
ATOM     33  C   UNL     1     109.587 130.585 136.339  0.00  0.00    +0.000 C 
ENDBRANCH  30  33
ENDBRANCH  21  29
ENDBRANCH  16  21
ENDBRANCH   6  15
BRANCH   5  34
ATOM     34  O   UNL     1     111.367 127.006 135.887  0.00  0.00    +0.000 OA
BRANCH  34  40
ATOM     35  O   UNL     1     110.484 126.715 137.025  0.00  0.00    +0.000 OA
ATOM     36  O   UNL     1     109.787 127.081 135.041  0.00  0.00    +0.000 OA
ATOM     37  O   UNL     1     108.497 126.751 136.246  0.00  0.00    +0.000 OA
ATOM     38  C   UNL     1     109.900 126.923 135.843  0.00  0.00    +0.000 C 
ATOM     39  C   UNL     1     109.308 126.771 136.396  0.00  0.00    +0.000 C 
ATOM     40  C   UNL     1     110.627 126.888 136.232  0.00  0.00    +0.000 C 
ATOM     41  C   UNL     1     109.669 126.643 137.128  0.00  0.00    +0.000 C 
BRANCH  41  43
ATOM     42  O   UNL     1     109.570 126.770 138.548  0.00  0.00    +0.000 OA
ATOM     43  C   UNL     1     109.281 126.472 137.835  0.00  0.00    +0.000 C 
ENDBRANCH  41  43
ENDBRANCH  34  40
ENDBRANCH   5  34
TORSDOF 7
ENDMDL
MODEL 3
REMARK VINA RESULT:      -9.6      3.330      4.938
REMARK  Name = 131836778
REMARK  7 active torsions:
REMARK  status: ('A' for Active; 'I' for Inactive)
REMARK    1  A    between atoms: O_2  and  C_20
REMARK    2  A    between atoms: O_2  and  C_22
REMARK    3  A    between atoms: O_7  and  C_27
REMARK    4  A    between atoms: O_7  and  C_34
REMARK    5  A    between atoms: C_21  and  C_28
REMARK    6  A    between atoms: C_23  and  C_31
REMARK    7  A    between atoms: C_29  and  C_37
REMARK                            x       y       z     vdW  Elec       q    Type
REMARK                         _______ _______ _______ _____ _____    ______ ____
ROOT
ATOM      1  O   UNL     1     111.121 126.998 136.140  0.00  0.00    +0.000 OA
ATOM      2  O   UNL     1     113.517 127.439 136.580  0.00  0.00    +0.000 OA
ATOM      3  O   UNL     1     113.799 126.023 136.622  0.00  0.00    +0.000 OA
ATOM      4  O   UNL     1     111.615 124.129 136.213  0.00  0.00    +0.000 OA
ATOM      5  C   UNL     1     112.193 127.921 136.341  0.00  0.00    +0.000 C 
ATOM      6  C   UNL     1     111.395 127.775 136.195  0.00  0.00    +0.000 C 
ATOM      7  C   UNL     1     112.719 127.291 136.433  0.00  0.00    +0.000 C 
ATOM      8  C   UNL     1     112.445 126.515 136.379  0.00  0.00    +0.000 A 
ATOM      9  C   UNL     1     111.646 126.368 136.232  0.00  0.00    +0.000 A 
ATOM     10  C   UNL     1     113.002 125.867 136.476  0.00  0.00    +0.000 A 
ATOM     11  C   UNL     1     111.349 125.564 136.173  0.00  0.00    +0.000 A 
ATOM     12  C   UNL     1     112.723 125.057 136.421  0.00  0.00    +0.000 A 
ATOM     13  C   UNL     1     111.891 124.904 136.268  0.00  0.00    +0.000 A 
ENDROOT
BRANCH   6  15
ATOM     14  O   UNL     1     110.345 129.911 134.614  0.00  0.00    +0.000 OA
ATOM     15  C   UNL     1     110.870 128.404 136.103  0.00  0.00    +0.000 A 
ATOM     16  C   UNL     1     109.820 129.664 135.919  0.00  0.00    +0.000 A 
ATOM     17  C   UNL     1     110.870 128.843 135.405  0.00  0.00    +0.000 A 
ATOM     18  C   UNL     1     110.345 128.595 136.710  0.00  0.00    +0.000 A 
ATOM     19  C   UNL     1     110.345 129.472 135.313  0.00  0.00    +0.000 A 
ATOM     20  C   UNL     1     109.820 129.225 136.619  0.00  0.00    +0.000 A 
BRANCH  16  21
ATOM     21  O   UNL     1     109.295 130.294 135.827  0.00  0.00    +0.000 OA
BRANCH  21  29
ATOM     22  O   UNL     1     109.963 131.238 136.666  0.00  0.00    +0.000 OA
ATOM     23  O   UNL     1     107.780 131.995 137.553  0.00  0.00    +0.000 OA
ATOM     24  O   UNL     1     107.840 130.798 136.419  0.00  0.00    +0.000 OA
ATOM     25  O   UNL     1     109.176 132.687 138.096  0.00  0.00    +0.000 OA
ATOM     26  C   UNL     1     108.508 131.743 137.257  0.00  0.00    +0.000 C 
ATOM     27  C   UNL     1     108.538 131.144 136.690  0.00  0.00    +0.000 C 
ATOM     28  C   UNL     1     109.206 132.088 137.528  0.00  0.00    +0.000 C 
ATOM     29  C   UNL     1     109.265 130.891 136.394  0.00  0.00    +0.000 C 
ATOM     30  C   UNL     1     109.934 131.836 137.233  0.00  0.00    +0.000 C 
BRANCH  30  33
ATOM     31  O   UNL     1     110.937 131.972 138.241  0.00  0.00    +0.000 OA
ATOM     32  O   UNL     1     111.023 132.740 137.040  0.00  0.00    +0.000 OA
ATOM     33  C   UNL     1     110.632 132.182 137.505  0.00  0.00    +0.000 C 
ENDBRANCH  30  33
ENDBRANCH  21  29
ENDBRANCH  16  21
ENDBRANCH   6  15
BRANCH   5  34
ATOM     34  O   UNL     1     112.467 128.698 136.396  0.00  0.00    +0.000 OA
BRANCH  34  40
ATOM     35  O   UNL     1     112.632 128.679 137.856  0.00  0.00    +0.000 OA
ATOM     36  O   UNL     1     113.654 130.033 136.561  0.00  0.00    +0.000 OA
ATOM     37  O   UNL     1     114.036 130.222 138.305  0.00  0.00    +0.000 OA
ATOM     38  C   UNL     1     113.339 129.585 137.179  0.00  0.00    +0.000 C 
ATOM     39  C   UNL     1     113.515 129.672 137.980  0.00  0.00    +0.000 C 
ATOM     40  C   UNL     1     112.793 128.971 137.103  0.00  0.00    +0.000 C 
ATOM     41  C   UNL     1     113.077 129.112 138.399  0.00  0.00    +0.000 C 
BRANCH  41  43
ATOM     42  O   UNL     1     112.456 128.622 139.590  0.00  0.00    +0.000 OA
ATOM     43  C   UNL     1     113.085 129.004 139.217  0.00  0.00    +0.000 C 
ENDBRANCH  41  43
ENDBRANCH  34  40
ENDBRANCH   5  34
TORSDOF 7
ENDMDL
MODEL 4
REMARK VINA RESULT:      -9.5      2.117      3.150
REMARK  Name = 131836778
REMARK  7 active torsions:
REMARK  status: ('A' for Active; 'I' for Inactive)
REMARK    1  A    between atoms: O_2  and  C_20
REMARK    2  A    between atoms: O_2  and  C_22
REMARK    3  A    between atoms: O_7  and  C_27
REMARK    4  A    between atoms: O_7  and  C_34
REMARK    5  A    between atoms: C_21  and  C_28
REMARK    6  A    between atoms: C_23  and  C_31
REMARK    7  A    between atoms: C_29  and  C_37
REMARK                            x       y       z     vdW  Elec       q    Type
REMARK                         _______ _______ _______ _____ _____    ______ ____
ROOT
ATOM      1  O   UNL     1     113.075 126.751 137.944  0.00  0.00    +0.000 OA
ATOM      2  O   UNL     1     111.100 125.332 137.483  0.00  0.00    +0.000 OA
ATOM      3  O   UNL     1     111.947 124.222 137.118  0.00  0.00    +0.000 OA
ATOM      4  O   UNL     1     114.846 124.555 137.222  0.00  0.00    +0.000 OA
ATOM      5  C   UNL     1     111.657 126.583 137.891  0.00  0.00    +0.000 C 
ATOM      6  C   UNL     1     112.315 127.056 138.045  0.00  0.00    +0.000 C 
ATOM      7  C   UNL     1     111.759 125.805 137.636  0.00  0.00    +0.000 C 
ATOM      8  C   UNL     1     112.518 125.500 137.535  0.00  0.00    +0.000 A 
ATOM      9  C   UNL     1     113.177 125.973 137.689  0.00  0.00    +0.000 A 
ATOM     10  C   UNL     1     112.611 124.688 137.269  0.00  0.00    +0.000 A 
ATOM     11  C   UNL     1     113.973 125.667 137.587  0.00  0.00    +0.000 A 
ATOM     12  C   UNL     1     113.400 124.365 137.162  0.00  0.00    +0.000 A 
ATOM     13  C   UNL     1     114.085 124.858 137.322  0.00  0.00    +0.000 A 
ENDROOT
BRANCH   6  15
ATOM     14  O   UNL     1     112.395 129.864 137.518  0.00  0.00    +0.000 OA
ATOM     15  C   UNL     1     112.213 127.834 138.300  0.00  0.00    +0.000 A 
ATOM     16  C   UNL     1     112.010 129.390 138.810  0.00  0.00    +0.000 A 
ATOM     17  C   UNL     1     112.354 128.460 137.782  0.00  0.00    +0.000 A 
ATOM     18  C   UNL     1     111.970 127.986 139.074  0.00  0.00    +0.000 A 
ATOM     19  C   UNL     1     112.253 129.238 138.037  0.00  0.00    +0.000 A 
ATOM     20  C   UNL     1     111.868 128.764 139.329  0.00  0.00    +0.000 A 
BRANCH  16  21
ATOM     21  O   UNL     1     111.908 130.168 139.065  0.00  0.00    +0.000 OA
BRANCH  21  29
ATOM     22  O   UNL     1     110.479 130.188 139.033  0.00  0.00    +0.000 OA
ATOM     23  O   UNL     1     110.452 131.542 141.105  0.00  0.00    +0.000 OA
ATOM     24  O   UNL     1     111.890 131.071 140.446  0.00  0.00    +0.000 OA
ATOM     25  O   UNL     1     109.033 131.110 140.382  0.00  0.00    +0.000 OA
ATOM     26  C   UNL     1     110.461 131.091 140.414  0.00  0.00    +0.000 C 
ATOM     27  C   UNL     1     111.180 130.855 140.084  0.00  0.00    +0.000 C 
ATOM     28  C   UNL     1     109.752 130.874 140.053  0.00  0.00    +0.000 C 
ATOM     29  C   UNL     1     111.190 130.403 139.394  0.00  0.00    +0.000 C 
ATOM     30  C   UNL     1     109.761 130.423 139.362  0.00  0.00    +0.000 C 
BRANCH  30  33
ATOM     31  O   UNL     1     108.803 130.592 138.316  0.00  0.00    +0.000 OA
ATOM     32  O   UNL     1     108.589 129.607 139.327  0.00  0.00    +0.000 OA
ATOM     33  C   UNL     1     109.051 130.208 139.001  0.00  0.00    +0.000 C 
ENDBRANCH  30  33
ENDBRANCH  21  29
ENDBRANCH  16  21
ENDBRANCH   6  15
BRANCH   5  34
ATOM     34  O   UNL     1     110.896 126.888 137.992  0.00  0.00    +0.000 OA
BRANCH  34  40
ATOM     35  O   UNL     1     110.599 127.055 136.563  0.00  0.00    +0.000 OA
ATOM     36  O   UNL     1     109.109 126.745 138.060  0.00  0.00    +0.000 OA
ATOM     37  O   UNL     1     108.476 126.918 136.389  0.00  0.00    +0.000 OA
ATOM     38  C   UNL     1     109.560 126.869 137.380  0.00  0.00    +0.000 C 
ATOM     39  C   UNL     1     109.269 126.948 136.613  0.00  0.00    +0.000 C 
ATOM     40  C   UNL     1     110.382 126.935 137.349  0.00  0.00    +0.000 C 
ATOM     41  C   UNL     1     109.911 127.064 136.107  0.00  0.00    +0.000 C 
BRANCH  41  43
ATOM     42  O   UNL     1     110.515 127.484 134.882  0.00  0.00    +0.000 OA
ATOM     43  C   UNL     1     109.872 127.169 135.290  0.00  0.00    +0.000 C 
ENDBRANCH  41  43
ENDBRANCH  34  40
ENDBRANCH   5  34
TORSDOF 7
ENDMDL
MODEL 5
REMARK VINA RESULT:      -9.5      1.844      5.402
REMARK  Name = 131836778
REMARK  7 active torsions:
REMARK  status: ('A' for Active; 'I' for Inactive)
REMARK    1  A    between atoms: O_2  and  C_20
REMARK    2  A    between atoms: O_2  and  C_22
REMARK    3  A    between atoms: O_7  and  C_27
REMARK    4  A    between atoms: O_7  and  C_34
REMARK    5  A    between atoms: C_21  and  C_28
REMARK    6  A    between atoms: C_23  and  C_31
REMARK    7  A    between atoms: C_29  and  C_37
REMARK                            x       y       z     vdW  Elec       q    Type
REMARK                         _______ _______ _______ _____ _____    ______ ____
ROOT
ATOM      1  O   UNL     1     111.018 128.948 138.442  0.00  0.00    +0.000 OA
ATOM      2  O   UNL     1     112.142 131.095 138.945  0.00  0.00    +0.000 OA
ATOM      3  O   UNL     1     110.922 131.824 138.696  0.00  0.00    +0.000 OA
ATOM      4  O   UNL     1     108.520 130.353 137.924  0.00  0.00    +0.000 OA
ATOM      5  C   UNL     1     112.190 129.672 138.820  0.00  0.00    +0.000 C 
ATOM      6  C   UNL     1     111.816 128.956 138.652  0.00  0.00    +0.000 C 
ATOM      7  C   UNL     1     111.767 130.379 138.777  0.00  0.00    +0.000 C 
ATOM      8  C   UNL     1     110.969 130.370 138.568  0.00  0.00    +0.000 A 
ATOM      9  C   UNL     1     110.594 129.655 138.400  0.00  0.00    +0.000 A 
ATOM     10  C   UNL     1     110.539 131.114 138.527  0.00  0.00    +0.000 A 
ATOM     11  C   UNL     1     109.764 129.632 138.180  0.00  0.00    +0.000 A 
ATOM     12  C   UNL     1     109.708 131.111 138.309  0.00  0.00    +0.000 A 
ATOM     13  C   UNL     1     109.318 130.365 138.134  0.00  0.00    +0.000 A 
ENDROOT
BRANCH   6  15
ATOM     14  O   UNL     1     112.428 126.516 140.007  0.00  0.00    +0.000 OA
ATOM     15  C   UNL     1     112.239 128.250 138.695  0.00  0.00    +0.000 A 
ATOM     16  C   UNL     1     113.086 126.836 138.780  0.00  0.00    +0.000 A 
ATOM     17  C   UNL     1     112.122 127.737 139.329  0.00  0.00    +0.000 A 
ATOM     18  C   UNL     1     112.780 128.057 138.102  0.00  0.00    +0.000 A 
ATOM     19  C   UNL     1     112.545 127.030 139.372  0.00  0.00    +0.000 A 
ATOM     20  C   UNL     1     113.203 127.350 138.144  0.00  0.00    +0.000 A 
BRANCH  16  21
ATOM     21  O   UNL     1     113.509 126.129 138.822  0.00  0.00    +0.000 OA
BRANCH  21  29
ATOM     22  O   UNL     1     112.781 125.365 137.859  0.00  0.00    +0.000 OA
ATOM     23  O   UNL     1     114.908 124.506 136.931  0.00  0.00    +0.000 OA
ATOM     24  O   UNL     1     114.928 125.557 138.203  0.00  0.00    +0.000 OA
ATOM     25  O   UNL     1     113.471 124.028 136.277  0.00  0.00    +0.000 OA
ATOM     26  C   UNL     1     114.199 124.792 137.240  0.00  0.00    +0.000 C 
ATOM     27  C   UNL     1     114.209 125.318 137.877  0.00  0.00    +0.000 C 
ATOM     28  C   UNL     1     113.480 124.554 136.914  0.00  0.00    +0.000 C 
ATOM     29  C   UNL     1     113.499 125.604 138.186  0.00  0.00    +0.000 C 
ATOM     30  C   UNL     1     112.771 124.840 137.223  0.00  0.00    +0.000 C 
BRANCH  30  33
ATOM     31  O   UNL     1     111.766 124.966 136.215  0.00  0.00    +0.000 OA
ATOM     32  O   UNL     1     111.620 123.994 137.251  0.00  0.00    +0.000 OA
ATOM     33  C   UNL     1     112.052 124.600 136.896  0.00  0.00    +0.000 C 
ENDBRANCH  30  33
ENDBRANCH  21  29
ENDBRANCH  16  21
ENDBRANCH   6  15
BRANCH   5  34
ATOM     34  O   UNL     1     112.988 129.681 139.030  0.00  0.00    +0.000 OA
BRANCH  34  40
ATOM     35  O   UNL     1     112.782 129.935 140.463  0.00  0.00    +0.000 OA
ATOM     36  O   UNL     1     114.525 130.536 139.387  0.00  0.00    +0.000 OA
ATOM     37  O   UNL     1     114.526 130.970 141.129  0.00  0.00    +0.000 OA
ATOM     38  C   UNL     1     113.925 130.371 139.929  0.00  0.00    +0.000 C 
ATOM     39  C   UNL     1     113.925 130.571 140.729  0.00  0.00    +0.000 C 
ATOM     40  C   UNL     1     113.218 129.978 139.764  0.00  0.00    +0.000 C 
ATOM     41  C   UNL     1     113.218 130.301 141.060  0.00  0.00    +0.000 C 
BRANCH  41  43
ATOM     42  O   UNL     1     112.410 129.889 142.164  0.00  0.00    +0.000 OA
ATOM     43  C   UNL     1     112.990 130.383 141.848  0.00  0.00    +0.000 C 
ENDBRANCH  41  43
ENDBRANCH  34  40
ENDBRANCH   5  34
TORSDOF 7
ENDMDL
MODEL 6
REMARK VINA RESULT:      -9.5      3.254      4.835
REMARK  Name = 131836778
REMARK  7 active torsions:
REMARK  status: ('A' for Active; 'I' for Inactive)
REMARK    1  A    between atoms: O_2  and  C_20
REMARK    2  A    between atoms: O_2  and  C_22
REMARK    3  A    between atoms: O_7  and  C_27
REMARK    4  A    between atoms: O_7  and  C_34
REMARK    5  A    between atoms: C_21  and  C_28
REMARK    6  A    between atoms: C_23  and  C_31
REMARK    7  A    between atoms: C_29  and  C_37
REMARK                            x       y       z     vdW  Elec       q    Type
REMARK                         _______ _______ _______ _____ _____    ______ ____
ROOT
ATOM      1  O   UNL     1     113.856 130.690 136.674  0.00  0.00    +0.000 OA
ATOM      2  O   UNL     1     113.894 128.397 135.741  0.00  0.00    +0.000 OA
ATOM      3  O   UNL     1     114.813 128.804 134.705  0.00  0.00    +0.000 OA
ATOM      4  O   UNL     1     115.708 131.582 134.612  0.00  0.00    +0.000 OA
ATOM      5  C   UNL     1     113.420 129.329 136.715  0.00  0.00    +0.000 C 
ATOM      6  C   UNL     1     113.407 130.093 137.027  0.00  0.00    +0.000 C 
ATOM      7  C   UNL     1     113.881 129.162 136.052  0.00  0.00    +0.000 C 
ATOM      8  C   UNL     1     114.329 129.758 135.700  0.00  0.00    +0.000 A 
ATOM      9  C   UNL     1     114.317 130.522 136.011  0.00  0.00    +0.000 A 
ATOM     10  C   UNL     1     114.806 129.571 135.009  0.00  0.00    +0.000 A 
ATOM     11  C   UNL     1     114.779 131.152 135.653  0.00  0.00    +0.000 A 
ATOM     12  C   UNL     1     115.275 130.188 134.638  0.00  0.00    +0.000 A 
ATOM     13  C   UNL     1     115.261 130.984 134.962  0.00  0.00    +0.000 A 
ENDROOT
BRANCH   6  15
ATOM     14  O   UNL     1     112.961 129.902 139.843  0.00  0.00    +0.000 OA
ATOM     15  C   UNL     1     112.946 130.260 137.690  0.00  0.00    +0.000 A 
ATOM     16  C   UNL     1     112.024 130.595 139.017  0.00  0.00    +0.000 A 
ATOM     17  C   UNL     1     113.184 129.997 138.434  0.00  0.00    +0.000 A 
ATOM     18  C   UNL     1     112.247 130.691 137.608  0.00  0.00    +0.000 A 
ATOM     19  C   UNL     1     112.723 130.165 139.098  0.00  0.00    +0.000 A 
ATOM     20  C   UNL     1     111.786 130.858 138.271  0.00  0.00    +0.000 A 
BRANCH  16  21
ATOM     21  O   UNL     1     111.563 130.763 139.680  0.00  0.00    +0.000 OA
BRANCH  21  29
ATOM     22  O   UNL     1     110.512 129.854 139.345  0.00  0.00    +0.000 OA
ATOM     23  O   UNL     1     108.864 131.373 140.395  0.00  0.00    +0.000 OA
ATOM     24  O   UNL     1     110.464 131.775 140.380  0.00  0.00    +0.000 OA
ATOM     25  O   UNL     1     108.362 129.958 139.711  0.00  0.00    +0.000 OA
ATOM     26  C   UNL     1     109.413 130.867 140.045  0.00  0.00    +0.000 C 
ATOM     27  C   UNL     1     110.214 131.068 140.038  0.00  0.00    +0.000 C 
ATOM     28  C   UNL     1     109.163 130.159 139.703  0.00  0.00    +0.000 C 
ATOM     29  C   UNL     1     110.763 130.562 139.688  0.00  0.00    +0.000 C 
ATOM     30  C   UNL     1     109.713 129.653 139.353  0.00  0.00    +0.000 C 
BRANCH  30  33
ATOM     31  O   UNL     1     109.150 128.943 138.247  0.00  0.00    +0.000 OA
ATOM     32  O   UNL     1     109.521 128.239 139.434  0.00  0.00    +0.000 OA
ATOM     33  C   UNL     1     109.461 128.945 139.011  0.00  0.00    +0.000 C 
ENDBRANCH  30  33
ENDBRANCH  21  29
ENDBRANCH  16  21
ENDBRANCH   6  15
BRANCH   5  34
ATOM     34  O   UNL     1     112.972 128.732 137.068  0.00  0.00    +0.000 OA
BRANCH  34  40
ATOM     35  O   UNL     1     111.953 128.673 136.010  0.00  0.00    +0.000 OA
ATOM     36  O   UNL     1     112.399 127.051 137.325  0.00  0.00    +0.000 OA
ATOM     37  O   UNL     1     111.110 126.715 136.121  0.00  0.00    +0.000 OA
ATOM     38  C   UNL     1     112.119 127.577 136.754  0.00  0.00    +0.000 C 
ATOM     39  C   UNL     1     111.527 127.422 136.201  0.00  0.00    +0.000 C 
ATOM     40  C   UNL     1     112.382 128.350 136.636  0.00  0.00    +0.000 C 
ATOM     41  C   UNL     1     111.424 128.100 135.741  0.00  0.00    +0.000 C 
BRANCH  41  43
ATOM     42  O   UNL     1     110.659 128.942 134.875  0.00  0.00    +0.000 OA
ATOM     43  C   UNL     1     110.887 128.188 135.121  0.00  0.00    +0.000 C 
ENDBRANCH  41  43
ENDBRANCH  34  40
ENDBRANCH   5  34
TORSDOF 7
ENDMDL
MODEL 7
REMARK VINA RESULT:      -9.5      2.624      4.229
REMARK  Name = 131836778
REMARK  7 active torsions:
REMARK  status: ('A' for Active; 'I' for Inactive)
REMARK    1  A    between atoms: O_2  and  C_20
REMARK    2  A    between atoms: O_2  and  C_22
REMARK    3  A    between atoms: O_7  and  C_27
REMARK    4  A    between atoms: O_7  and  C_34
REMARK    5  A    between atoms: C_21  and  C_28
REMARK    6  A    between atoms: C_23  and  C_31
REMARK    7  A    between atoms: C_29  and  C_37
REMARK                            x       y       z     vdW  Elec       q    Type
REMARK                         _______ _______ _______ _____ _____    ______ ____
ROOT
ATOM      1  O   UNL     1     111.241 126.166 137.467  0.00  0.00    +0.000 OA
ATOM      2  O   UNL     1     113.578 126.910 137.134  0.00  0.00    +0.000 OA
ATOM      3  O   UNL     1     113.969 125.587 136.712  0.00  0.00    +0.000 OA
ATOM      4  O   UNL     1     111.957 123.472 136.624  0.00  0.00    +0.000 OA
ATOM      5  C   UNL     1     112.229 127.197 137.508  0.00  0.00    +0.000 C 
ATOM      6  C   UNL     1     111.450 126.950 137.619  0.00  0.00    +0.000 C 
ATOM      7  C   UNL     1     112.799 126.662 137.245  0.00  0.00    +0.000 C 
ATOM      8  C   UNL     1     112.589 125.879 137.093  0.00  0.00    +0.000 A 
ATOM      9  C   UNL     1     111.810 125.630 137.204  0.00  0.00    +0.000 A 
ATOM     10  C   UNL     1     113.193 125.330 136.820  0.00  0.00    +0.000 A 
ATOM     11  C   UNL     1     111.580 124.817 137.049  0.00  0.00    +0.000 A 
ATOM     12  C   UNL     1     112.981 124.513 136.660  0.00  0.00    +0.000 A 
ATOM     13  C   UNL     1     112.169 124.255 136.776  0.00  0.00    +0.000 A 
ENDROOT
BRANCH   6  15
ATOM     14  O   UNL     1     109.139 128.553 137.111  0.00  0.00    +0.000 OA
ATOM     15  C   UNL     1     110.880 127.485 137.882  0.00  0.00    +0.000 A 
ATOM     16  C   UNL     1     109.740 128.556 138.408  0.00  0.00    +0.000 A 
ATOM     17  C   UNL     1     110.295 127.751 137.365  0.00  0.00    +0.000 A 
ATOM     18  C   UNL     1     110.896 127.754 138.662  0.00  0.00    +0.000 A 
ATOM     19  C   UNL     1     109.725 128.287 137.628  0.00  0.00    +0.000 A 
ATOM     20  C   UNL     1     110.326 128.290 138.925  0.00  0.00    +0.000 A 
BRANCH  16  21
ATOM     21  O   UNL     1     109.170 129.092 138.671  0.00  0.00    +0.000 OA
BRANCH  21  29
ATOM     22  O   UNL     1     110.005 130.249 138.598  0.00  0.00    +0.000 OA
ATOM     23  O   UNL     1     108.881 131.184 140.595  0.00  0.00    +0.000 OA
ATOM     24  O   UNL     1     108.421 129.715 140.002  0.00  0.00    +0.000 OA
ATOM     25  O   UNL     1     110.090 132.031 139.857  0.00  0.00    +0.000 OA
ATOM     26  C   UNL     1     109.256 130.873 139.930  0.00  0.00    +0.000 C 
ATOM     27  C   UNL     1     109.026 130.137 139.633  0.00  0.00    +0.000 C 
ATOM     28  C   UNL     1     109.860 131.295 139.560  0.00  0.00    +0.000 C 
ATOM     29  C   UNL     1     109.400 129.826 138.967  0.00  0.00    +0.000 C 
ATOM     30  C   UNL     1     110.235 130.984 138.894  0.00  0.00    +0.000 C 
BRANCH  30  33
ATOM     31  O   UNL     1     110.690 131.813 137.823  0.00  0.00    +0.000 OA
ATOM     32  O   UNL     1     111.593 131.425 138.860  0.00  0.00    +0.000 OA
ATOM     33  C   UNL     1     110.839 131.407 138.525  0.00  0.00    +0.000 C 
ENDBRANCH  30  33
ENDBRANCH  21  29
ENDBRANCH  16  21
ENDBRANCH   6  15
BRANCH   5  34
ATOM     34  O   UNL     1     112.438 127.981 137.660  0.00  0.00    +0.000 OA
BRANCH  34  40
ATOM     35  O   UNL     1     112.514 128.410 136.256  0.00  0.00    +0.000 OA
ATOM     36  O   UNL     1     113.649 129.294 137.833  0.00  0.00    +0.000 OA
ATOM     37  O   UNL     1     113.930 130.006 136.210  0.00  0.00    +0.000 OA
ATOM     38  C   UNL     1     113.286 129.059 137.131  0.00  0.00    +0.000 C 
ATOM     39  C   UNL     1     113.415 129.387 136.385  0.00  0.00    +0.000 C 
ATOM     40  C   UNL     1     112.728 128.455 137.051  0.00  0.00    +0.000 C 
ATOM     41  C   UNL     1     112.938 128.985 135.844  0.00  0.00    +0.000 C 
BRANCH  41  43
ATOM     42  O   UNL     1     112.212 128.937 134.614  0.00  0.00    +0.000 OA
ATOM     43  C   UNL     1     112.894 129.133 135.034  0.00  0.00    +0.000 C 
ENDBRANCH  41  43
ENDBRANCH  34  40
ENDBRANCH   5  34
TORSDOF 7
ENDMDL
MODEL 8
REMARK VINA RESULT:      -9.5      2.994      5.928
REMARK  Name = 131836778
REMARK  7 active torsions:
REMARK  status: ('A' for Active; 'I' for Inactive)
REMARK    1  A    between atoms: O_2  and  C_20
REMARK    2  A    between atoms: O_2  and  C_22
REMARK    3  A    between atoms: O_7  and  C_27
REMARK    4  A    between atoms: O_7  and  C_34
REMARK    5  A    between atoms: C_21  and  C_28
REMARK    6  A    between atoms: C_23  and  C_31
REMARK    7  A    between atoms: C_29  and  C_37
REMARK                            x       y       z     vdW  Elec       q    Type
REMARK                         _______ _______ _______ _____ _____    ______ ____
ROOT
ATOM      1  O   UNL     1     110.912 130.683 136.617  0.00  0.00    +0.000 OA
ATOM      2  O   UNL     1     111.020 131.114 139.052  0.00  0.00    +0.000 OA
ATOM      3  O   UNL     1     110.587 132.477 138.859  0.00  0.00    +0.000 OA
ATOM      4  O   UNL     1     110.035 133.420 136.151  0.00  0.00    +0.000 OA
ATOM      5  C   UNL     1     111.181 130.226 137.945  0.00  0.00    +0.000 C 
ATOM      6  C   UNL     1     111.145 130.082 137.133  0.00  0.00    +0.000 C 
ATOM      7  C   UNL     1     110.984 130.971 138.241  0.00  0.00    +0.000 C 
ATOM      8  C   UNL     1     110.751 131.571 137.725  0.00  0.00    +0.000 A 
ATOM      9  C   UNL     1     110.715 131.427 136.913  0.00  0.00    +0.000 A 
ATOM     10  C   UNL     1     110.548 132.343 138.046  0.00  0.00    +0.000 A 
ATOM     11  C   UNL     1     110.474 132.045 136.366  0.00  0.00    +0.000 A 
ATOM     12  C   UNL     1     110.305 132.972 137.514  0.00  0.00    +0.000 A 
ATOM     13  C   UNL     1     110.267 132.822 136.669  0.00  0.00    +0.000 A 
ENDROOT
BRANCH   6  15
ATOM     14  O   UNL     1     112.980 128.368 135.768  0.00  0.00    +0.000 OA
ATOM     15  C   UNL     1     111.343 129.338 136.837  0.00  0.00    +0.000 A 
ATOM     16  C   UNL     1     111.737 127.849 136.245  0.00  0.00    +0.000 A 
ATOM     17  C   UNL     1     112.062 129.225 136.451  0.00  0.00    +0.000 A 
ATOM     18  C   UNL     1     110.819 128.706 136.928  0.00  0.00    +0.000 A 
ATOM     19  C   UNL     1     112.259 128.481 136.155  0.00  0.00    +0.000 A 
ATOM     20  C   UNL     1     111.016 127.962 136.632  0.00  0.00    +0.000 A 
BRANCH  16  21
ATOM     21  O   UNL     1     111.934 127.104 135.949  0.00  0.00    +0.000 OA
BRANCH  21  29
ATOM     22  O   UNL     1     112.225 126.489 137.205  0.00  0.00    +0.000 OA
ATOM     23  O   UNL     1     111.213 124.377 136.405  0.00  0.00    +0.000 OA
ATOM     24  O   UNL     1     111.259 125.696 135.415  0.00  0.00    +0.000 OA
ATOM     25  O   UNL     1     111.842 124.465 137.928  0.00  0.00    +0.000 OA
ATOM     26  C   UNL     1     111.551 125.081 136.671  0.00  0.00    +0.000 C 
ATOM     27  C   UNL     1     111.574 125.741 136.177  0.00  0.00    +0.000 C 
ATOM     28  C   UNL     1     111.865 125.125 137.433  0.00  0.00    +0.000 C 
ATOM     29  C   UNL     1     111.911 126.445 136.443  0.00  0.00    +0.000 C 
ATOM     30  C   UNL     1     112.202 125.829 137.700  0.00  0.00    +0.000 C 
BRANCH  30  33
ATOM     31  O   UNL     1     112.014 125.895 139.115  0.00  0.00    +0.000 OA
ATOM     32  O   UNL     1     113.334 125.893 138.569  0.00  0.00    +0.000 OA
ATOM     33  C   UNL     1     112.517 125.873 138.461  0.00  0.00    +0.000 C 
ENDBRANCH  30  33
ENDBRANCH  21  29
ENDBRANCH  16  21
ENDBRANCH   6  15
BRANCH   5  34
ATOM     34  O   UNL     1     111.414 129.625 138.460  0.00  0.00    +0.000 OA
BRANCH  34  40
ATOM     35  O   UNL     1     112.766 130.145 138.710  0.00  0.00    +0.000 OA
ATOM     36  O   UNL     1     111.684 128.930 140.092  0.00  0.00    +0.000 OA
ATOM     37  O   UNL     1     113.317 129.431 140.645  0.00  0.00    +0.000 OA
ATOM     38  C   UNL     1     112.217 129.398 139.671  0.00  0.00    +0.000 C 
ATOM     39  C   UNL     1     112.967 129.628 139.925  0.00  0.00    +0.000 C 
ATOM     40  C   UNL     1     112.093 129.718 138.920  0.00  0.00    +0.000 C 
ATOM     41  C   UNL     1     113.307 130.090 139.331  0.00  0.00    +0.000 C 
BRANCH  41  43
ATOM     42  O   UNL     1     114.372 130.783 138.678  0.00  0.00    +0.000 OA
ATOM     43  C   UNL     1     114.055 130.435 139.355  0.00  0.00    +0.000 C 
ENDBRANCH  41  43
ENDBRANCH  34  40
ENDBRANCH   5  34
TORSDOF 7
ENDMDL
MODEL 9
REMARK VINA RESULT:      -9.5      3.095      5.860
REMARK  Name = 131836778
REMARK  7 active torsions:
REMARK  status: ('A' for Active; 'I' for Inactive)
REMARK    1  A    between atoms: O_2  and  C_20
REMARK    2  A    between atoms: O_2  and  C_22
REMARK    3  A    between atoms: O_7  and  C_27
REMARK    4  A    between atoms: O_7  and  C_34
REMARK    5  A    between atoms: C_21  and  C_28
REMARK    6  A    between atoms: C_23  and  C_31
REMARK    7  A    between atoms: C_29  and  C_37
REMARK                            x       y       z     vdW  Elec       q    Type
REMARK                         _______ _______ _______ _____ _____    ______ ____
ROOT
ATOM      1  O   UNL     1     109.595 129.873 135.698  0.00  0.00    +0.000 OA
ATOM      2  O   UNL     1     108.587 130.334 137.911  0.00  0.00    +0.000 OA
ATOM      3  O   UNL     1     107.959 131.531 137.407  0.00  0.00    +0.000 OA
ATOM      4  O   UNL     1     108.358 132.275 134.612  0.00  0.00    +0.000 OA
ATOM      5  C   UNL     1     109.396 129.513 137.066  0.00  0.00    +0.000 C 
ATOM      6  C   UNL     1     109.732 129.359 136.329  0.00  0.00    +0.000 C 
ATOM      7  C   UNL     1     108.923 130.180 137.173  0.00  0.00    +0.000 C 
ATOM      8  C   UNL     1     108.786 130.693 136.543  0.00  0.00    +0.000 A 
ATOM      9  C   UNL     1     109.121 130.540 135.805  0.00  0.00    +0.000 A 
ATOM     10  C   UNL     1     108.290 131.386 136.666  0.00  0.00    +0.000 A 
ATOM     11  C   UNL     1     108.986 131.067 135.139  0.00  0.00    +0.000 A 
ATOM     12  C   UNL     1     108.144 131.924 136.013  0.00  0.00    +0.000 A 
ATOM     13  C   UNL     1     108.494 131.763 135.245  0.00  0.00    +0.000 A 
ENDROOT
BRANCH   6  15
ATOM     14  O   UNL     1     112.314 128.188 135.966  0.00  0.00    +0.000 OA
ATOM     15  C   UNL     1     110.206 128.692 136.222  0.00  0.00    +0.000 A 
ATOM     16  C   UNL     1     111.152 127.357 136.009  0.00  0.00    +0.000 A 
ATOM     17  C   UNL     1     111.023 128.774 136.148  0.00  0.00    +0.000 A 
ATOM     18  C   UNL     1     109.861 127.943 136.191  0.00  0.00    +0.000 A 
ATOM     19  C   UNL     1     111.496 128.107 136.041  0.00  0.00    +0.000 A 
ATOM     20  C   UNL     1     110.334 127.276 136.084  0.00  0.00    +0.000 A 
BRANCH  16  21
ATOM     21  O   UNL     1     111.626 126.690 135.902  0.00  0.00    +0.000 OA
BRANCH  21  29
ATOM     22  O   UNL     1     111.605 126.216 137.250  0.00  0.00    +0.000 OA
ATOM     23  O   UNL     1     111.420 123.888 136.427  0.00  0.00    +0.000 OA
ATOM     24  O   UNL     1     111.503 125.139 135.354  0.00  0.00    +0.000 OA
ATOM     25  O   UNL     1     111.461 124.190 138.049  0.00  0.00    +0.000 OA
ATOM     26  C   UNL     1     111.482 124.664 136.702  0.00  0.00    +0.000 C 
ATOM     27  C   UNL     1     111.523 125.290 136.164  0.00  0.00    +0.000 C 
ATOM     28  C   UNL     1     111.502 124.815 137.512  0.00  0.00    +0.000 C 
ATOM     29  C   UNL     1     111.585 126.066 136.439  0.00  0.00    +0.000 C 
ATOM     30  C   UNL     1     111.563 125.591 137.786  0.00  0.00    +0.000 C 
BRANCH  30  33
ATOM     31  O   UNL     1     112.293 125.950 138.961  0.00  0.00    +0.000 OA
ATOM     32  O   UNL     1     110.893 125.681 139.045  0.00  0.00    +0.000 OA
ATOM     33  C   UNL     1     111.584 125.741 138.598  0.00  0.00    +0.000 C 
ENDBRANCH  30  33
ENDBRANCH  21  29
ENDBRANCH  16  21
ENDBRANCH   6  15
BRANCH   5  34
ATOM     34  O   UNL     1     109.534 128.999 137.698  0.00  0.00    +0.000 OA
BRANCH  34  40
ATOM     35  O   UNL     1     110.489 129.865 138.404  0.00  0.00    +0.000 OA
ATOM     36  O   UNL     1     109.263 128.409 139.370  0.00  0.00    +0.000 OA
ATOM     37  O   UNL     1     110.343 129.333 140.466  0.00  0.00    +0.000 OA
ATOM     38  C   UNL     1     109.791 129.001 139.145  0.00  0.00    +0.000 C 
ATOM     39  C   UNL     1     110.288 129.426 139.649  0.00  0.00    +0.000 C 
ATOM     40  C   UNL     1     109.916 129.273 138.376  0.00  0.00    +0.000 C 
ATOM     41  C   UNL     1     110.720 129.960 139.190  0.00  0.00    +0.000 C 
BRANCH  41  43
ATOM     42  O   UNL     1     111.790 130.873 138.944  0.00  0.00    +0.000 OA
ATOM     43  C   UNL     1     111.282 130.494 139.470  0.00  0.00    +0.000 C 
ENDBRANCH  41  43
ENDBRANCH  34  40
ENDBRANCH   5  34
TORSDOF 7
ENDMDL
MODEL 10
REMARK VINA RESULT:      -9.4      2.302      5.287
REMARK  Name = 131836778
REMARK  7 active torsions:
REMARK  status: ('A' for Active; 'I' for Inactive)
REMARK    1  A    between atoms: O_2  and  C_20
REMARK    2  A    between atoms: O_2  and  C_22
REMARK    3  A    between atoms: O_7  and  C_27
REMARK    4  A    between atoms: O_7  and  C_34
REMARK    5  A    between atoms: C_21  and  C_28
REMARK    6  A    between atoms: C_23  and  C_31
REMARK    7  A    between atoms: C_29  and  C_37
REMARK                            x       y       z     vdW  Elec       q    Type
REMARK                         _______ _______ _______ _____ _____    ______ ____
ROOT
ATOM      1  O   UNL     1     111.229 129.318 139.040  0.00  0.00    +0.000 OA
ATOM      2  O   UNL     1     108.978 128.945 138.081  0.00  0.00    +0.000 OA
ATOM      3  O   UNL     1     108.613 130.319 138.333  0.00  0.00    +0.000 OA
ATOM      4  O   UNL     1     110.562 132.101 139.579  0.00  0.00    +0.000 OA
ATOM      5  C   UNL     1     110.272 128.450 138.430  0.00  0.00    +0.000 C 
ATOM      6  C   UNL     1     111.022 128.573 138.750  0.00  0.00    +0.000 C 
ATOM      7  C   UNL     1     109.729 129.070 138.401  0.00  0.00    +0.000 C 
ATOM      8  C   UNL     1     109.936 129.813 138.691  0.00  0.00    +0.000 A 
ATOM      9  C   UNL     1     110.686 129.938 139.011  0.00  0.00    +0.000 A 
ATOM     10  C   UNL     1     109.360 130.452 138.654  0.00  0.00    +0.000 A 
ATOM     11  C   UNL     1     110.914 130.708 139.316  0.00  0.00    +0.000 A 
ATOM     12  C   UNL     1     109.570 131.229 138.955  0.00  0.00    +0.000 A 
ATOM     13  C   UNL     1     110.352 131.358 139.288  0.00  0.00    +0.000 A 
ENDROOT
BRANCH   6  15
ATOM     14  O   UNL     1     111.971 126.170 139.971  0.00  0.00    +0.000 OA
ATOM     15  C   UNL     1     111.566 127.953 138.780  0.00  0.00    +0.000 A 
ATOM     16  C   UNL     1     112.653 126.713 138.839  0.00  0.00    +0.000 A 
ATOM     17  C   UNL     1     111.496 127.372 139.360  0.00  0.00    +0.000 A 
ATOM     18  C   UNL     1     112.178 127.916 138.228  0.00  0.00    +0.000 A 
ATOM     19  C   UNL     1     112.040 126.752 139.390  0.00  0.00    +0.000 A 
ATOM     20  C   UNL     1     112.722 127.295 138.258  0.00  0.00    +0.000 A 
BRANCH  16  21
ATOM     21  O   UNL     1     113.196 126.093 138.869  0.00  0.00    +0.000 OA
BRANCH  21  29
ATOM     22  O   UNL     1     112.638 125.305 137.815  0.00  0.00    +0.000 OA
ATOM     23  O   UNL     1     114.917 124.719 137.048  0.00  0.00    +0.000 OA
ATOM     24  O   UNL     1     114.715 125.702 138.357  0.00  0.00    +0.000 OA
ATOM     25  O   UNL     1     113.600 124.127 136.249  0.00  0.00    +0.000 OA
ATOM     26  C   UNL     1     114.158 124.914 137.303  0.00  0.00    +0.000 C 
ATOM     27  C   UNL     1     114.056 125.406 137.959  0.00  0.00    +0.000 C 
ATOM     28  C   UNL     1     113.499 124.619 136.905  0.00  0.00    +0.000 C 
ATOM     29  C   UNL     1     113.297 125.602 138.214  0.00  0.00    +0.000 C 
ATOM     30  C   UNL     1     112.739 124.814 137.160  0.00  0.00    +0.000 C 
BRANCH  30  33
ATOM     31  O   UNL     1     111.826 124.875 136.063  0.00  0.00    +0.000 OA
ATOM     32  O   UNL     1     111.678 123.863 137.060  0.00  0.00    +0.000 OA
ATOM     33  C   UNL     1     112.081 124.518 136.761  0.00  0.00    +0.000 C 
ENDBRANCH  30  33
ENDBRANCH  21  29
ENDBRANCH  16  21
ENDBRANCH   6  15
BRANCH   5  34
ATOM     34  O   UNL     1     110.065 127.705 138.140  0.00  0.00    +0.000 OA
BRANCH  34  40
ATOM     35  O   UNL     1     110.128 128.069 136.717  0.00  0.00    +0.000 OA
ATOM     36  O   UNL     1     108.910 126.496 137.490  0.00  0.00    +0.000 OA
ATOM     37  O   UNL     1     108.801 126.731 135.714  0.00  0.00    +0.000 OA
ATOM     38  C   UNL     1     109.319 127.061 137.050  0.00  0.00    +0.000 C 
ATOM     39  C   UNL     1     109.269 127.169 136.233  0.00  0.00    +0.000 C 
ATOM     40  C   UNL     1     109.850 127.617 137.348  0.00  0.00    +0.000 C 
ATOM     41  C   UNL     1     109.769 127.792 136.028  0.00  0.00    +0.000 C 
BRANCH  41  43
ATOM     42  O   UNL     1     110.522 128.591 135.113  0.00  0.00    +0.000 OA
ATOM     43  C   UNL     1     109.889 128.086 135.267  0.00  0.00    +0.000 C 
ENDBRANCH  41  43
ENDBRANCH  34  40
ENDBRANCH   5  34
TORSDOF 7
ENDMDL
