MODEL 1
REMARK VINA RESULT:      -9.4      0.000      0.000
REMARK  Name = 
REMARK  7 active torsions:
REMARK  status: ('A' for Active; 'I' for Inactive)
REMARK    1  A    between atoms: O_2  and  C_17
REMARK    2  A    between atoms: O_2  and  C_23
REMARK    3  A    between atoms: O_7  and  C_18
REMARK    4  A    between atoms: O_7  and  C_31
REMARK    5  A    between atoms: C_16  and  C_22
REMARK    6  A    between atoms: C_20  and  C_25
REMARK    7  A    between atoms: C_31  and  C_35
REMARK                            x       y       z     vdW  Elec       q    Type
REMARK                         _______ _______ _______ _____ _____    ______ ____
ROOT
ATOM      1  O   UNL     1     111.547 127.365 138.534  0.00  0.00    +0.000 OA
ATOM      2  O   UNL     1     108.837 128.907 140.152  0.00  0.00    +0.000 OA
ATOM      3  C   UNL     1     112.518 128.252 137.419  0.00  0.00    +0.000 C 
ATOM      4  C   UNL     1     111.956 129.059 137.573  0.00  0.00    +0.000 C 
ATOM      5  C   UNL     1     112.313 127.404 137.900  0.00  0.00    +0.000 C 
ATOM      6  C   UNL     1     111.190 129.019 138.207  0.00  0.00    +0.000 A 
ATOM      7  C   UNL     1     110.614 129.867 138.358  0.00  0.00    +0.000 A 
ATOM      8  C   UNL     1     110.986 128.171 138.688  0.00  0.00    +0.000 A 
ATOM      9  C   UNL     1     109.816 129.834 139.016  0.00  0.00    +0.000 A 
ATOM     10  C   UNL     1     110.192 128.114 139.352  0.00  0.00    +0.000 A 
ATOM     11  C   UNL     1     109.603 128.951 139.517  0.00  0.00    +0.000 A 
ENDROOT
BRANCH   5  14
ATOM     12  O   UNL     1     112.877 124.427 136.255  0.00  0.00    +0.000 OA
ATOM     13  O   UNL     1     114.562 124.178 137.284  0.00  0.00    +0.000 OA
ATOM     14  C   UNL     1     112.875 126.597 137.746  0.00  0.00    +0.000 A 
ATOM     15  C   UNL     1     112.595 125.915 137.078  0.00  0.00    +0.000 A 
ATOM     16  C   UNL     1     113.719 126.472 138.260  0.00  0.00    +0.000 A 
ATOM     17  C   UNL     1     113.157 125.109 136.923  0.00  0.00    +0.000 A 
ATOM     18  C   UNL     1     114.280 125.666 138.107  0.00  0.00    +0.000 A 
ATOM     19  C   UNL     1     114.001 124.984 137.438  0.00  0.00    +0.000 A 
ENDBRANCH   5  14
BRANCH   7  20
ATOM     20  O   UNL     1     110.827 130.710 137.872  0.00  0.00    +0.000 OA
BRANCH  20  29
ATOM     21  O   UNL     1     109.477 130.477 136.826  0.00  0.00    +0.000 OA
ATOM     22  O   UNL     1     109.754 133.283 135.843  0.00  0.00    +0.000 OA
ATOM     23  O   UNL     1     108.312 132.115 135.125  0.00  0.00    +0.000 OA
ATOM     24  O   UNL     1     111.012 132.580 137.217  0.00  0.00    +0.000 OA
ATOM     25  C   UNL     1     109.662 132.347 136.171  0.00  0.00    +0.000 C 
ATOM     26  C   UNL     1     108.941 131.764 135.812  0.00  0.00    +0.000 C 
ATOM     27  C   UNL     1     110.292 131.997 136.858  0.00  0.00    +0.000 C 
ATOM     28  C   UNL     1     108.849 130.828 136.140  0.00  0.00    +0.000 C 
ATOM     29  C   UNL     1     110.199 131.061 137.186  0.00  0.00    +0.000 C 
BRANCH  28  31
ATOM     30  O   UNL     1     108.122 129.272 135.991  0.00  0.00    +0.000 OA
ATOM     31  C   UNL     1     108.127 130.245 135.780  0.00  0.00    +0.000 C 
ENDBRANCH  28  31
ENDBRANCH  20  29
ENDBRANCH   7  20
BRANCH   3  32
ATOM     32  O   UNL     1     113.284 128.292 136.785  0.00  0.00    +0.000 OA
BRANCH  32  34
ATOM     33  O   UNL     1     112.375 128.844 135.428  0.00  0.00    +0.000 OA
ATOM     34  C   UNL     1     113.218 128.842 135.959  0.00  0.00    +0.000 C 
BRANCH  34  35
ATOM     35  C   UNL     1     113.993 129.392 135.663  0.00  0.00    +0.000 A 
ATOM     36  C   UNL     1     114.587 129.062 134.936  0.00  0.00    +0.000 A 
ATOM     37  C   UNL     1     114.173 130.270 136.094  0.00  0.00    +0.000 A 
ATOM     38  C   UNL     1     115.363 129.612 134.640  0.00  0.00    +0.000 A 
ATOM     39  C   UNL     1     114.949 130.820 135.797  0.00  0.00    +0.000 A 
ATOM     40  C   UNL     1     115.543 130.491 135.071  0.00  0.00    +0.000 A 
ENDBRANCH  34  35
ENDBRANCH  32  34
ENDBRANCH   3  32
TORSDOF 7
ENDMDL
MODEL 2
REMARK VINA RESULT:      -9.3      1.491      2.053
REMARK  Name = 
REMARK  7 active torsions:
REMARK  status: ('A' for Active; 'I' for Inactive)
REMARK    1  A    between atoms: O_2  and  C_17
REMARK    2  A    between atoms: O_2  and  C_23
REMARK    3  A    between atoms: O_7  and  C_18
REMARK    4  A    between atoms: O_7  and  C_31
REMARK    5  A    between atoms: C_16  and  C_22
REMARK    6  A    between atoms: C_20  and  C_25
REMARK    7  A    between atoms: C_31  and  C_35
REMARK                            x       y       z     vdW  Elec       q    Type
REMARK                         _______ _______ _______ _____ _____    ______ ____
ROOT
ATOM      1  O   UNL     1     111.242 126.407 136.607  0.00  0.00    +0.000 OA
ATOM      2  O   UNL     1     107.796 126.775 136.028  0.00  0.00    +0.000 OA
ATOM      3  C   UNL     1     112.314 127.735 136.364  0.00  0.00    +0.000 C 
ATOM      4  C   UNL     1     111.545 128.305 136.091  0.00  0.00    +0.000 C 
ATOM      5  C   UNL     1     112.162 126.785 136.622  0.00  0.00    +0.000 C 
ATOM      6  C   UNL     1     110.625 127.927 136.077  0.00  0.00    +0.000 A 
ATOM      7  C   UNL     1     109.834 128.533 135.791  0.00  0.00    +0.000 A 
ATOM      8  C   UNL     1     110.474 126.977 136.335  0.00  0.00    +0.000 A 
ATOM      9  C   UNL     1     108.873 128.146 135.773  0.00  0.00    +0.000 A 
ATOM     10  C   UNL     1     109.520 126.569 136.325  0.00  0.00    +0.000 A 
ATOM     11  C   UNL     1     108.715 127.157 136.042  0.00  0.00    +0.000 A 
ENDROOT
BRANCH   5  14
ATOM     12  O   UNL     1     114.744 124.655 135.792  0.00  0.00    +0.000 OA
ATOM     13  O   UNL     1     115.238 124.506 137.714  0.00  0.00    +0.000 OA
ATOM     14  C   UNL     1     112.931 126.215 136.894  0.00  0.00    +0.000 A 
ATOM     15  C   UNL     1     113.453 125.720 136.207  0.00  0.00    +0.000 A 
ATOM     16  C   UNL     1     113.179 126.140 137.856  0.00  0.00    +0.000 A 
ATOM     17  C   UNL     1     114.222 125.150 136.479  0.00  0.00    +0.000 A 
ATOM     18  C   UNL     1     113.947 125.571 138.129  0.00  0.00    +0.000 A 
ATOM     19  C   UNL     1     114.470 125.075 137.441  0.00  0.00    +0.000 A 
ENDBRANCH   5  14
BRANCH   7  20
ATOM     20  O   UNL     1     109.997 129.481 135.534  0.00  0.00    +0.000 OA
BRANCH  20  29
ATOM     21  O   UNL     1     109.472 130.102 137.054  0.00  0.00    +0.000 OA
ATOM     22  O   UNL     1     108.674 132.659 135.735  0.00  0.00    +0.000 OA
ATOM     23  O   UNL     1     108.415 132.426 137.694  0.00  0.00    +0.000 OA
ATOM     24  O   UNL     1     109.465 131.185 134.655  0.00  0.00    +0.000 OA
ATOM     25  C   UNL     1     108.940 131.806 136.175  0.00  0.00    +0.000 C 
ATOM     26  C   UNL     1     108.810 131.690 137.154  0.00  0.00    +0.000 C 
ATOM     27  C   UNL     1     109.336 131.070 135.634  0.00  0.00    +0.000 C 
ATOM     28  C   UNL     1     109.077 130.837 137.594  0.00  0.00    +0.000 C 
ATOM     29  C   UNL     1     109.602 130.217 136.074  0.00  0.00    +0.000 C 
BRANCH  28  31
ATOM     30  O   UNL     1     108.825 129.812 138.957  0.00  0.00    +0.000 OA
ATOM     31  C   UNL     1     108.947 130.722 138.574  0.00  0.00    +0.000 C 
ENDBRANCH  28  31
ENDBRANCH  20  29
ENDBRANCH   7  20
BRANCH   3  32
ATOM     32  O   UNL     1     113.234 128.113 136.378  0.00  0.00    +0.000 OA
BRANCH  32  34
ATOM     33  O   UNL     1     112.850 129.541 137.265  0.00  0.00    +0.000 OA
ATOM     34  C   UNL     1     113.370 129.084 136.550  0.00  0.00    +0.000 C 
BRANCH  34  35
ATOM     35  C   UNL     1     114.026 129.599 136.006  0.00  0.00    +0.000 A 
ATOM     36  C   UNL     1     114.460 129.175 135.217  0.00  0.00    +0.000 A 
ATOM     37  C   UNL     1     114.248 130.537 136.253  0.00  0.00    +0.000 A 
ATOM     38  C   UNL     1     115.116 129.691 134.673  0.00  0.00    +0.000 A 
ATOM     39  C   UNL     1     114.904 131.052 135.709  0.00  0.00    +0.000 A 
ATOM     40  C   UNL     1     115.338 130.629 134.920  0.00  0.00    +0.000 A 
ENDBRANCH  34  35
ENDBRANCH  32  34
ENDBRANCH   3  32
TORSDOF 7
ENDMDL
MODEL 3
REMARK VINA RESULT:      -9.3      1.935      3.014
REMARK  Name = 
REMARK  7 active torsions:
REMARK  status: ('A' for Active; 'I' for Inactive)
REMARK    1  A    between atoms: O_2  and  C_17
REMARK    2  A    between atoms: O_2  and  C_23
REMARK    3  A    between atoms: O_7  and  C_18
REMARK    4  A    between atoms: O_7  and  C_31
REMARK    5  A    between atoms: C_16  and  C_22
REMARK    6  A    between atoms: C_20  and  C_25
REMARK    7  A    between atoms: C_31  and  C_35
REMARK                            x       y       z     vdW  Elec       q    Type
REMARK                         _______ _______ _______ _____ _____    ______ ____
ROOT
ATOM      1  O   UNL     1     113.253 127.619 138.438  0.00  0.00    +0.000 OA
ATOM      2  O   UNL     1     113.651 130.410 140.535  0.00  0.00    +0.000 OA
ATOM      3  C   UNL     1     112.577 127.800 136.862  0.00  0.00    +0.000 C 
ATOM      4  C   UNL     1     112.480 128.778 137.018  0.00  0.00    +0.000 C 
ATOM      5  C   UNL     1     112.965 127.220 137.573  0.00  0.00    +0.000 C 
ATOM      6  C   UNL     1     112.768 129.177 137.882  0.00  0.00    +0.000 A 
ATOM      7  C   UNL     1     112.660 130.197 138.030  0.00  0.00    +0.000 A 
ATOM      8  C   UNL     1     113.155 128.596 138.593  0.00  0.00    +0.000 A 
ATOM      9  C   UNL     1     112.958 130.619 138.927  0.00  0.00    +0.000 A 
ATOM     10  C   UNL     1     113.460 128.997 139.499  0.00  0.00    +0.000 A 
ATOM     11  C   UNL     1     113.361 130.014 139.668  0.00  0.00    +0.000 A 
ENDROOT
BRANCH   5  14
ATOM     12  O   UNL     1     111.724 124.014 137.840  0.00  0.00    +0.000 OA
ATOM     13  O   UNL     1     113.357 123.308 136.950  0.00  0.00    +0.000 OA
ATOM     14  C   UNL     1     113.062 126.242 137.418  0.00  0.00    +0.000 A 
ATOM     15  C   UNL     1     112.344 125.617 137.707  0.00  0.00    +0.000 A 
ATOM     16  C   UNL     1     113.880 125.888 136.972  0.00  0.00    +0.000 A 
ATOM     17  C   UNL     1     112.442 124.639 137.551  0.00  0.00    +0.000 A 
ATOM     18  C   UNL     1     113.978 124.911 136.816  0.00  0.00    +0.000 A 
ATOM     19  C   UNL     1     113.259 124.285 137.106  0.00  0.00    +0.000 A 
ENDBRANCH   5  14
BRANCH   7  20
ATOM     20  O   UNL     1     112.272 130.768 137.312  0.00  0.00    +0.000 OA
BRANCH  20  29
ATOM     21  O   UNL     1     110.653 130.745 137.905  0.00  0.00    +0.000 OA
ATOM     22  O   UNL     1     110.281 133.566 137.001  0.00  0.00    +0.000 OA
ATOM     23  O   UNL     1     108.787 132.601 137.895  0.00  0.00    +0.000 OA
ATOM     24  O   UNL     1     112.024 132.649 136.710  0.00  0.00    +0.000 OA
ATOM     25  C   UNL     1     110.405 132.625 137.303  0.00  0.00    +0.000 C 
ATOM     26  C   UNL     1     109.659 132.143 137.749  0.00  0.00    +0.000 C 
ATOM     27  C   UNL     1     111.278 132.167 137.156  0.00  0.00    +0.000 C 
ATOM     28  C   UNL     1     109.783 131.202 138.050  0.00  0.00    +0.000 C 
ATOM     29  C   UNL     1     111.402 131.226 137.458  0.00  0.00    +0.000 C 
BRANCH  28  31
ATOM     30  O   UNL     1     109.053 129.728 138.567  0.00  0.00    +0.000 OA
ATOM     31  C   UNL     1     109.035 130.721 138.497  0.00  0.00    +0.000 C 
ENDBRANCH  28  31
ENDBRANCH  20  29
ENDBRANCH   7  20
BRANCH   3  32
ATOM     32  O   UNL     1     112.289 127.402 135.997  0.00  0.00    +0.000 OA
BRANCH  32  34
ATOM     33  O   UNL     1     111.615 128.725 135.122  0.00  0.00    +0.000 OA
ATOM     34  C   UNL     1     111.532 127.804 135.492  0.00  0.00    +0.000 C 
BRANCH  34  35
ATOM     35  C   UNL     1     110.692 127.287 135.356  0.00  0.00    +0.000 A 
ATOM     36  C   UNL     1     110.688 126.494 134.755  0.00  0.00    +0.000 A 
ATOM     37  C   UNL     1     109.858 127.564 135.823  0.00  0.00    +0.000 A 
ATOM     38  C   UNL     1     109.847 125.977 134.620  0.00  0.00    +0.000 A 
ATOM     39  C   UNL     1     109.017 127.047 135.687  0.00  0.00    +0.000 A 
ATOM     40  C   UNL     1     109.013 126.254 135.086  0.00  0.00    +0.000 A 
ENDBRANCH  34  35
ENDBRANCH  32  34
ENDBRANCH   3  32
TORSDOF 7
ENDMDL
MODEL 4
REMARK VINA RESULT:      -9.2      4.464      7.847
REMARK  Name = 
REMARK  7 active torsions:
REMARK  status: ('A' for Active; 'I' for Inactive)
REMARK    1  A    between atoms: O_2  and  C_17
REMARK    2  A    between atoms: O_2  and  C_23
REMARK    3  A    between atoms: O_7  and  C_18
REMARK    4  A    between atoms: O_7  and  C_31
REMARK    5  A    between atoms: C_16  and  C_22
REMARK    6  A    between atoms: C_20  and  C_25
REMARK    7  A    between atoms: C_31  and  C_35
REMARK                            x       y       z     vdW  Elec       q    Type
REMARK                         _______ _______ _______ _____ _____    ______ ____
ROOT
ATOM      1  O   UNL     1     107.957 125.317 140.789  0.00  0.00    +0.000 OA
ATOM      2  O   UNL     1     111.375 126.125 140.902  0.00  0.00    +0.000 OA
ATOM      3  C   UNL     1     106.779 126.423 141.390  0.00  0.00    +0.000 C 
ATOM      4  C   UNL     1     107.503 127.063 141.630  0.00  0.00    +0.000 C 
ATOM      5  C   UNL     1     107.007 125.550 140.969  0.00  0.00    +0.000 C 
ATOM      6  C   UNL     1     108.453 126.830 141.450  0.00  0.00    +0.000 A 
ATOM      7  C   UNL     1     109.196 127.506 141.705  0.00  0.00    +0.000 A 
ATOM      8  C   UNL     1     108.680 125.956 141.029  0.00  0.00    +0.000 A 
ATOM      9  C   UNL     1     110.188 127.271 141.521  0.00  0.00    +0.000 A 
ATOM     10  C   UNL     1     109.666 125.700 140.836  0.00  0.00    +0.000 A 
ATOM     11  C   UNL     1     110.424 126.361 141.083  0.00  0.00    +0.000 A 
ENDROOT
BRANCH   5  14
ATOM     12  O   UNL     1     104.725 124.341 138.684  0.00  0.00    +0.000 OA
ATOM     13  O   UNL     1     104.111 122.991 140.011  0.00  0.00    +0.000 OA
ATOM     14  C   UNL     1     106.283 124.910 140.729  0.00  0.00    +0.000 A 
ATOM     15  C   UNL     1     105.866 124.945 139.826  0.00  0.00    +0.000 A 
ATOM     16  C   UNL     1     105.975 124.234 141.393  0.00  0.00    +0.000 A 
ATOM     17  C   UNL     1     105.142 124.306 139.586  0.00  0.00    +0.000 A 
ATOM     18  C   UNL     1     105.252 123.595 141.153  0.00  0.00    +0.000 A 
ATOM     19  C   UNL     1     104.834 123.630 140.250  0.00  0.00    +0.000 A 
ENDBRANCH   5  14
BRANCH   7  20
ATOM     20  O   UNL     1     108.957 128.377 142.126  0.00  0.00    +0.000 OA
BRANCH  20  29
ATOM     21  O   UNL     1     109.191 129.373 140.738  0.00  0.00    +0.000 OA
ATOM     22  O   UNL     1     110.388 131.496 142.463  0.00  0.00    +0.000 OA
ATOM     23  O   UNL     1     110.223 131.783 140.501  0.00  0.00    +0.000 OA
ATOM     24  O   UNL     1     109.755 129.792 143.275  0.00  0.00    +0.000 OA
ATOM     25  C   UNL     1     109.989 130.788 141.888  0.00  0.00    +0.000 C 
ATOM     26  C   UNL     1     109.906 130.932 140.908  0.00  0.00    +0.000 C 
ATOM     27  C   UNL     1     109.673 129.936 142.295  0.00  0.00    +0.000 C 
ATOM     28  C   UNL     1     109.507 130.224 140.332  0.00  0.00    +0.000 C 
ATOM     29  C   UNL     1     109.273 129.228 141.720  0.00  0.00    +0.000 C 
BRANCH  28  31
ATOM     30  O   UNL     1     108.681 129.942 138.845  0.00  0.00    +0.000 OA
ATOM     31  C   UNL     1     109.425 130.369 139.351  0.00  0.00    +0.000 C 
ENDBRANCH  28  31
ENDBRANCH  20  29
ENDBRANCH   7  20
BRANCH   3  32
ATOM     32  O   UNL     1     105.828 126.656 141.569  0.00  0.00    +0.000 OA
BRANCH  32  34
ATOM     33  O   UNL     1     106.012 127.060 143.235  0.00  0.00    +0.000 OA
ATOM     34  C   UNL     1     105.595 127.231 142.347  0.00  0.00    +0.000 C 
BRANCH  34  35
ATOM     35  C   UNL     1     104.946 127.977 142.239  0.00  0.00    +0.000 A 
ATOM     36  C   UNL     1     104.411 128.054 141.403  0.00  0.00    +0.000 A 
ATOM     37  C   UNL     1     104.833 128.647 142.966  0.00  0.00    +0.000 A 
ATOM     38  C   UNL     1     103.761 128.801 141.295  0.00  0.00    +0.000 A 
ATOM     39  C   UNL     1     104.183 129.394 142.858  0.00  0.00    +0.000 A 
ATOM     40  C   UNL     1     103.648 129.470 142.022  0.00  0.00    +0.000 A 
ENDBRANCH  34  35
ENDBRANCH  32  34
ENDBRANCH   3  32
TORSDOF 7
ENDMDL
MODEL 5
REMARK VINA RESULT:      -9.2      1.319      5.515
REMARK  Name = 
REMARK  7 active torsions:
REMARK  status: ('A' for Active; 'I' for Inactive)
REMARK    1  A    between atoms: O_2  and  C_17
REMARK    2  A    between atoms: O_2  and  C_23
REMARK    3  A    between atoms: O_7  and  C_18
REMARK    4  A    between atoms: O_7  and  C_31
REMARK    5  A    between atoms: C_16  and  C_22
REMARK    6  A    between atoms: C_20  and  C_25
REMARK    7  A    between atoms: C_31  and  C_35
REMARK                            x       y       z     vdW  Elec       q    Type
REMARK                         _______ _______ _______ _____ _____    ______ ____
ROOT
ATOM      1  O   UNL     1     110.052 129.309 138.104  0.00  0.00    +0.000 OA
ATOM      2  O   UNL     1     108.915 126.235 139.368  0.00  0.00    +0.000 OA
ATOM      3  C   UNL     1     111.732 129.564 137.810  0.00  0.00    +0.000 C 
ATOM      4  C   UNL     1     111.926 128.640 138.126  0.00  0.00    +0.000 C 
ATOM      5  C   UNL     1     110.794 129.898 137.800  0.00  0.00    +0.000 C 
ATOM      6  C   UNL     1     111.185 128.051 138.430  0.00  0.00    +0.000 A 
ATOM      7  C   UNL     1     111.403 127.092 138.756  0.00  0.00    +0.000 A 
ATOM      8  C   UNL     1     110.247 128.387 138.420  0.00  0.00    +0.000 A 
ATOM      9  C   UNL     1     110.636 126.473 139.075  0.00  0.00    +0.000 A 
ATOM     10  C   UNL     1     109.464 127.784 138.734  0.00  0.00    +0.000 A 
ATOM     11  C   UNL     1     109.660 126.822 139.064  0.00  0.00    +0.000 A 
ENDROOT
BRANCH   5  14
ATOM     12  O   UNL     1     110.281 133.240 138.476  0.00  0.00    +0.000 OA
ATOM     13  O   UNL     1     110.016 133.593 136.535  0.00  0.00    +0.000 OA
ATOM     14  C   UNL     1     110.599 130.822 137.484  0.00  0.00    +0.000 A 
ATOM     15  C   UNL     1     110.537 131.569 138.138  0.00  0.00    +0.000 A 
ATOM     16  C   UNL     1     110.467 130.999 136.513  0.00  0.00    +0.000 A 
ATOM     17  C   UNL     1     110.343 132.493 137.822  0.00  0.00    +0.000 A 
ATOM     18  C   UNL     1     110.272 131.922 136.197  0.00  0.00    +0.000 A 
ATOM     19  C   UNL     1     110.210 132.670 136.851  0.00  0.00    +0.000 A 
ENDBRANCH   5  14
BRANCH   7  20
ATOM     20  O   UNL     1     112.345 126.767 138.763  0.00  0.00    +0.000 OA
BRANCH  20  29
ATOM     21  O   UNL     1     111.985 125.697 137.460  0.00  0.00    +0.000 OA
ATOM     22  O   UNL     1     114.793 124.685 137.515  0.00  0.00    +0.000 OA
ATOM     23  O   UNL     1     113.497 123.952 136.195  0.00  0.00    +0.000 OA
ATOM     24  O   UNL     1     114.217 126.093 138.799  0.00  0.00    +0.000 OA
ATOM     25  C   UNL     1     113.856 125.022 137.497  0.00  0.00    +0.000 C 
ATOM     26  C   UNL     1     113.209 124.656 136.837  0.00  0.00    +0.000 C 
ATOM     27  C   UNL     1     113.569 125.727 138.140  0.00  0.00    +0.000 C 
ATOM     28  C   UNL     1     112.272 124.994 136.819  0.00  0.00    +0.000 C 
ATOM     29  C   UNL     1     112.632 126.064 138.121  0.00  0.00    +0.000 C 
BRANCH  28  31
ATOM     30  O   UNL     1     110.881 125.195 135.820  0.00  0.00    +0.000 OA
ATOM     31  C   UNL     1     111.625 124.627 136.158  0.00  0.00    +0.000 C 
ENDBRANCH  28  31
ENDBRANCH  20  29
ENDBRANCH   7  20
BRANCH   3  32
ATOM     32  O   UNL     1     112.473 130.153 137.505  0.00  0.00    +0.000 OA
BRANCH  32  34
ATOM     33  O   UNL     1     113.819 129.464 138.334  0.00  0.00    +0.000 OA
ATOM     34  C   UNL     1     113.408 129.812 137.496  0.00  0.00    +0.000 C 
BRANCH  34  35
ATOM     35  C   UNL     1     113.933 129.819 136.651  0.00  0.00    +0.000 A 
ATOM     36  C   UNL     1     114.403 130.648 136.364  0.00  0.00    +0.000 A 
ATOM     37  C   UNL     1     113.988 128.997 136.094  0.00  0.00    +0.000 A 
ATOM     38  C   UNL     1     114.929 130.655 135.517  0.00  0.00    +0.000 A 
ATOM     39  C   UNL     1     114.514 129.003 135.247  0.00  0.00    +0.000 A 
ATOM     40  C   UNL     1     114.983 129.832 134.960  0.00  0.00    +0.000 A 
ENDBRANCH  34  35
ENDBRANCH  32  34
ENDBRANCH   3  32
TORSDOF 7
ENDMDL
MODEL 6
REMARK VINA RESULT:      -9.2      1.769      2.885
REMARK  Name = 
REMARK  7 active torsions:
REMARK  status: ('A' for Active; 'I' for Inactive)
REMARK    1  A    between atoms: O_2  and  C_17
REMARK    2  A    between atoms: O_2  and  C_23
REMARK    3  A    between atoms: O_7  and  C_18
REMARK    4  A    between atoms: O_7  and  C_31
REMARK    5  A    between atoms: C_16  and  C_22
REMARK    6  A    between atoms: C_20  and  C_25
REMARK    7  A    between atoms: C_31  and  C_35
REMARK                            x       y       z     vdW  Elec       q    Type
REMARK                         _______ _______ _______ _____ _____    ______ ____
ROOT
ATOM      1  O   UNL     1     111.142 129.210 140.426  0.00  0.00    +0.000 OA
ATOM      2  O   UNL     1     108.343 131.251 141.015  0.00  0.00    +0.000 OA
ATOM      3  C   UNL     1     111.416 128.533 138.864  0.00  0.00    +0.000 C 
ATOM      4  C   UNL     1     110.589 128.974 138.529  0.00  0.00    +0.000 C 
ATOM      5  C   UNL     1     111.692 128.652 139.814  0.00  0.00    +0.000 C 
ATOM      6  C   UNL     1     110.039 129.533 139.142  0.00  0.00    +0.000 A 
ATOM      7  C   UNL     1     109.180 129.985 138.779  0.00  0.00    +0.000 A 
ATOM      8  C   UNL     1     110.316 129.651 140.091  0.00  0.00    +0.000 A 
ATOM      9  C   UNL     1     108.603 130.569 139.410  0.00  0.00    +0.000 A 
ATOM     10  C   UNL     1     109.753 130.230 140.741  0.00  0.00    +0.000 A 
ATOM     11  C   UNL     1     108.891 130.692 140.399  0.00  0.00    +0.000 A 
ENDROOT
BRANCH   5  14
ATOM     12  O   UNL     1     115.014 128.829 140.722  0.00  0.00    +0.000 OA
ATOM     13  O   UNL     1     115.000 126.886 141.154  0.00  0.00    +0.000 OA
ATOM     14  C   UNL     1     112.519 128.211 140.149  0.00  0.00    +0.000 A 
ATOM     15  C   UNL     1     113.353 128.740 140.268  0.00  0.00    +0.000 A 
ATOM     16  C   UNL     1     112.513 127.238 140.365  0.00  0.00    +0.000 A 
ATOM     17  C   UNL     1     114.180 128.299 140.603  0.00  0.00    +0.000 A 
ATOM     18  C   UNL     1     113.339 126.797 140.700  0.00  0.00    +0.000 A 
ATOM     19  C   UNL     1     114.173 127.327 140.819  0.00  0.00    +0.000 A 
ENDBRANCH   5  14
BRANCH   7  20
ATOM     20  O   UNL     1     108.912 129.860 137.827  0.00  0.00    +0.000 OA
BRANCH  20  29
ATOM     21  O   UNL     1     109.592 131.384 137.394  0.00  0.00    +0.000 OA
ATOM     22  O   UNL     1     108.061 131.337 134.830  0.00  0.00    +0.000 OA
ATOM     23  O   UNL     1     109.251 132.875 135.251  0.00  0.00    +0.000 OA
ATOM     24  O   UNL     1     107.892 129.829 136.119  0.00  0.00    +0.000 OA
ATOM     25  C   UNL     1     108.572 131.353 135.685  0.00  0.00    +0.000 C 
ATOM     26  C   UNL     1     109.166 132.121 135.895  0.00  0.00    +0.000 C 
ATOM     27  C   UNL     1     108.486 130.598 136.329  0.00  0.00    +0.000 C 
ATOM     28  C   UNL     1     109.677 132.137 136.750  0.00  0.00    +0.000 C 
ATOM     29  C   UNL     1     108.997 130.613 137.184  0.00  0.00    +0.000 C 
BRANCH  28  31
ATOM     30  O   UNL     1     110.400 133.194 137.904  0.00  0.00    +0.000 OA
ATOM     31  C   UNL     1     110.271 132.907 136.960  0.00  0.00    +0.000 C 
ENDBRANCH  28  31
ENDBRANCH  20  29
ENDBRANCH   7  20
BRANCH   3  32
ATOM     32  O   UNL     1     111.966 127.974 138.252  0.00  0.00    +0.000 OA
BRANCH  32  34
ATOM     33  O   UNL     1     110.917 127.623 136.930  0.00  0.00    +0.000 OA
ATOM     34  C   UNL     1     111.781 127.978 137.274  0.00  0.00    +0.000 C 
BRANCH  34  35
ATOM     35  C   UNL     1     112.460 128.336 136.640  0.00  0.00    +0.000 A 
ATOM     36  C   UNL     1     112.253 129.141 136.092  0.00  0.00    +0.000 A 
ATOM     37  C   UNL     1     113.345 127.890 136.556  0.00  0.00    +0.000 A 
ATOM     38  C   UNL     1     112.932 129.499 135.458  0.00  0.00    +0.000 A 
ATOM     39  C   UNL     1     114.024 128.248 135.921  0.00  0.00    +0.000 A 
ATOM     40  C   UNL     1     113.817 129.052 135.373  0.00  0.00    +0.000 A 
ENDBRANCH  34  35
ENDBRANCH  32  34
ENDBRANCH   3  32
TORSDOF 7
ENDMDL
MODEL 7
REMARK VINA RESULT:      -9.2      2.165      3.604
REMARK  Name = 
REMARK  7 active torsions:
REMARK  status: ('A' for Active; 'I' for Inactive)
REMARK    1  A    between atoms: O_2  and  C_17
REMARK    2  A    between atoms: O_2  and  C_23
REMARK    3  A    between atoms: O_7  and  C_18
REMARK    4  A    between atoms: O_7  and  C_31
REMARK    5  A    between atoms: C_16  and  C_22
REMARK    6  A    between atoms: C_20  and  C_25
REMARK    7  A    between atoms: C_31  and  C_35
REMARK                            x       y       z     vdW  Elec       q    Type
REMARK                         _______ _______ _______ _____ _____    ______ ____
ROOT
ATOM      1  O   UNL     1     113.525 127.668 138.825  0.00  0.00    +0.000 OA
ATOM      2  O   UNL     1     113.225 129.942 141.486  0.00  0.00    +0.000 OA
ATOM      3  C   UNL     1     112.147 127.243 137.881  0.00  0.00    +0.000 C 
ATOM      4  C   UNL     1     111.582 127.846 138.435  0.00  0.00    +0.000 C 
ATOM      5  C   UNL     1     113.119 127.154 138.076  0.00  0.00    +0.000 C 
ATOM      6  C   UNL     1     111.988 128.360 139.184  0.00  0.00    +0.000 A 
ATOM      7  C   UNL     1     111.387 128.984 139.753  0.00  0.00    +0.000 A 
ATOM      8  C   UNL     1     112.961 128.270 139.379  0.00  0.00    +0.000 A 
ATOM      9  C   UNL     1     111.803 129.522 140.534  0.00  0.00    +0.000 A 
ATOM     10  C   UNL     1     113.398 128.799 140.156  0.00  0.00    +0.000 A 
ATOM     11  C   UNL     1     112.815 129.429 140.737  0.00  0.00    +0.000 A 
ENDROOT
BRANCH   5  14
ATOM     12  O   UNL     1     114.769 124.155 137.657  0.00  0.00    +0.000 OA
ATOM     13  O   UNL     1     115.379 124.742 135.855  0.00  0.00    +0.000 OA
ATOM     14  C   UNL     1     113.684 126.551 137.521  0.00  0.00    +0.000 A 
ATOM     15  C   UNL     1     113.944 125.655 137.866  0.00  0.00    +0.000 A 
ATOM     16  C   UNL     1     113.989 126.844 136.620  0.00  0.00    +0.000 A 
ATOM     17  C   UNL     1     114.509 125.051 137.312  0.00  0.00    +0.000 A 
ATOM     18  C   UNL     1     114.554 126.242 136.065  0.00  0.00    +0.000 A 
ATOM     19  C   UNL     1     114.814 125.345 136.410  0.00  0.00    +0.000 A 
ENDBRANCH   5  14
BRANCH   7  20
ATOM     20  O   UNL     1     110.415 129.066 139.549  0.00  0.00    +0.000 OA
BRANCH  20  29
ATOM     21  O   UNL     1     110.610 130.514 138.635  0.00  0.00    +0.000 OA
ATOM     22  O   UNL     1     107.827 131.334 139.341  0.00  0.00    +0.000 OA
ATOM     23  O   UNL     1     108.949 132.508 138.192  0.00  0.00    +0.000 OA
ATOM     24  O   UNL     1     108.561 129.612 140.020  0.00  0.00    +0.000 OA
ATOM     25  C   UNL     1     108.755 131.060 139.106  0.00  0.00    +0.000 C 
ATOM     26  C   UNL     1     109.315 131.647 138.531  0.00  0.00    +0.000 C 
ATOM     27  C   UNL     1     109.121 130.199 139.446  0.00  0.00    +0.000 C 
ATOM     28  C   UNL     1     110.244 131.374 138.296  0.00  0.00    +0.000 C 
ATOM     29  C   UNL     1     110.049 129.925 139.210  0.00  0.00    +0.000 C 
BRANCH  28  31
ATOM     30  O   UNL     1     111.782 131.794 137.639  0.00  0.00    +0.000 OA
ATOM     31  C   UNL     1     110.804 131.962 137.721  0.00  0.00    +0.000 C 
ENDBRANCH  28  31
ENDBRANCH  20  29
ENDBRANCH   7  20
BRANCH   3  32
ATOM     32  O   UNL     1     111.741 126.729 137.132  0.00  0.00    +0.000 OA
BRANCH  32  34
ATOM     33  O   UNL     1     110.497 126.038 138.106  0.00  0.00    +0.000 OA
ATOM     34  C   UNL     1     110.820 126.362 137.221  0.00  0.00    +0.000 C 
BRANCH  34  35
ATOM     35  C   UNL     1     110.221 126.320 136.427  0.00  0.00    +0.000 A 
ATOM     36  C   UNL     1     110.474 125.762 135.643  0.00  0.00    +0.000 A 
ATOM     37  C   UNL     1     109.370 126.834 136.419  0.00  0.00    +0.000 A 
ATOM     38  C   UNL     1     109.874 125.720 134.848  0.00  0.00    +0.000 A 
ATOM     39  C   UNL     1     108.770 126.792 135.625  0.00  0.00    +0.000 A 
ATOM     40  C   UNL     1     109.023 126.235 134.840  0.00  0.00    +0.000 A 
ENDBRANCH  34  35
ENDBRANCH  32  34
ENDBRANCH   3  32
TORSDOF 7
ENDMDL
MODEL 8
REMARK VINA RESULT:      -9.2      2.888      4.446
REMARK  Name = 
REMARK  7 active torsions:
REMARK  status: ('A' for Active; 'I' for Inactive)
REMARK    1  A    between atoms: O_2  and  C_17
REMARK    2  A    between atoms: O_2  and  C_23
REMARK    3  A    between atoms: O_7  and  C_18
REMARK    4  A    between atoms: O_7  and  C_31
REMARK    5  A    between atoms: C_16  and  C_22
REMARK    6  A    between atoms: C_20  and  C_25
REMARK    7  A    between atoms: C_31  and  C_35
REMARK                            x       y       z     vdW  Elec       q    Type
REMARK                         _______ _______ _______ _____ _____    ______ ____
ROOT
ATOM      1  O   UNL     1     111.508 126.554 138.554  0.00  0.00    +0.000 OA
ATOM      2  O   UNL     1     112.514 126.255 141.908  0.00  0.00    +0.000 OA
ATOM      3  C   UNL     1     112.144 127.813 137.562  0.00  0.00    +0.000 C 
ATOM      4  C   UNL     1     112.690 128.140 138.327  0.00  0.00    +0.000 C 
ATOM      5  C   UNL     1     111.553 127.019 137.676  0.00  0.00    +0.000 C 
ATOM      6  C   UNL     1     112.645 127.675 139.206  0.00  0.00    +0.000 A 
ATOM      7  C   UNL     1     113.218 128.028 139.994  0.00  0.00    +0.000 A 
ATOM      8  C   UNL     1     112.053 126.882 139.319  0.00  0.00    +0.000 A 
ATOM      9  C   UNL     1     113.177 127.549 140.911  0.00  0.00    +0.000 A 
ATOM     10  C   UNL     1     111.996 126.387 140.229  0.00  0.00    +0.000 A 
ATOM     11  C   UNL     1     112.562 126.723 141.030  0.00  0.00    +0.000 A 
ENDROOT
BRANCH   5  14
ATOM     12  O   UNL     1     108.598 127.015 135.898  0.00  0.00    +0.000 OA
ATOM     13  O   UNL     1     109.374 125.709 134.613  0.00  0.00    +0.000 OA
ATOM     14  C   UNL     1     111.008 126.692 136.910  0.00  0.00    +0.000 A 
ATOM     15  C   UNL     1     110.076 127.017 136.787  0.00  0.00    +0.000 A 
ATOM     16  C   UNL     1     111.395 126.038 136.267  0.00  0.00    +0.000 A 
ATOM     17  C   UNL     1     109.531 126.690 136.022  0.00  0.00    +0.000 A 
ATOM     18  C   UNL     1     110.851 125.711 135.501  0.00  0.00    +0.000 A 
ATOM     19  C   UNL     1     109.918 126.036 135.378  0.00  0.00    +0.000 A 
ENDBRANCH   5  14
BRANCH   7  20
ATOM     20  O   UNL     1     113.806 128.822 139.869  0.00  0.00    +0.000 OA
BRANCH  20  29
ATOM     21  O   UNL     1     112.878 129.763 140.977  0.00  0.00    +0.000 OA
ATOM     22  O   UNL     1     115.195 131.609 141.350  0.00  0.00    +0.000 OA
ATOM     23  O   UNL     1     113.495 131.933 142.332  0.00  0.00    +0.000 OA
ATOM     24  O   UNL     1     115.350 130.053 140.118  0.00  0.00    +0.000 OA
ATOM     25  C   UNL     1     114.423 130.993 141.225  0.00  0.00    +0.000 C 
ATOM     26  C   UNL     1     113.574 131.156 141.716  0.00  0.00    +0.000 C 
ATOM     27  C   UNL     1     114.501 130.215 140.609  0.00  0.00    +0.000 C 
ATOM     28  C   UNL     1     112.801 130.540 141.592  0.00  0.00    +0.000 C 
ATOM     29  C   UNL     1     113.729 129.599 140.484  0.00  0.00    +0.000 C 
BRANCH  28  31
ATOM     30  O   UNL     1     111.316 129.954 142.244  0.00  0.00    +0.000 OA
ATOM     31  C   UNL     1     111.951 130.703 142.084  0.00  0.00    +0.000 C 
ENDBRANCH  28  31
ENDBRANCH  20  29
ENDBRANCH   7  20
BRANCH   3  32
ATOM     32  O   UNL     1     112.189 128.278 136.683  0.00  0.00    +0.000 OA
BRANCH  32  34
ATOM     33  O   UNL     1     111.965 129.933 137.109  0.00  0.00    +0.000 OA
ATOM     34  C   UNL     1     112.484 129.227 136.637  0.00  0.00    +0.000 C 
BRANCH  34  35
ATOM     35  C   UNL     1     113.299 129.471 136.119  0.00  0.00    +0.000 A 
ATOM     36  C   UNL     1     113.931 130.150 136.477  0.00  0.00    +0.000 A 
ATOM     37  C   UNL     1     113.480 129.034 135.243  0.00  0.00    +0.000 A 
ATOM     38  C   UNL     1     114.746 130.394 135.959  0.00  0.00    +0.000 A 
ATOM     39  C   UNL     1     114.295 129.278 134.725  0.00  0.00    +0.000 A 
ATOM     40  C   UNL     1     114.927 129.958 135.083  0.00  0.00    +0.000 A 
ENDBRANCH  34  35
ENDBRANCH  32  34
ENDBRANCH   3  32
TORSDOF 7
ENDMDL
MODEL 9
REMARK VINA RESULT:      -9.2      2.263      3.809
REMARK  Name = 
REMARK  7 active torsions:
REMARK  status: ('A' for Active; 'I' for Inactive)
REMARK    1  A    between atoms: O_2  and  C_17
REMARK    2  A    between atoms: O_2  and  C_23
REMARK    3  A    between atoms: O_7  and  C_18
REMARK    4  A    between atoms: O_7  and  C_31
REMARK    5  A    between atoms: C_16  and  C_22
REMARK    6  A    between atoms: C_20  and  C_25
REMARK    7  A    between atoms: C_31  and  C_35
REMARK                            x       y       z     vdW  Elec       q    Type
REMARK                         _______ _______ _______ _____ _____    ______ ____
ROOT
ATOM      1  O   UNL     1     111.307 125.804 139.371  0.00  0.00    +0.000 OA
ATOM      2  O   UNL     1     108.514 125.529 141.486  0.00  0.00    +0.000 OA
ATOM      3  C   UNL     1     111.697 127.312 138.634  0.00  0.00    +0.000 C 
ATOM      4  C   UNL     1     110.912 127.732 139.078  0.00  0.00    +0.000 C 
ATOM      5  C   UNL     1     111.894 126.347 138.781  0.00  0.00    +0.000 C 
ATOM      6  C   UNL     1     110.324 127.189 139.669  0.00  0.00    +0.000 A 
ATOM      7  C   UNL     1     109.511 127.640 140.126  0.00  0.00    +0.000 A 
ATOM      8  C   UNL     1     110.522 126.224 139.816  0.00  0.00    +0.000 A 
ATOM      9  C   UNL     1     108.894 127.081 140.742  0.00  0.00    +0.000 A 
ATOM     10  C   UNL     1     109.919 125.645 140.429  0.00  0.00    +0.000 A 
ATOM     11  C   UNL     1     109.100 126.076 140.895  0.00  0.00    +0.000 A 
ENDROOT
BRANCH   5  14
ATOM     12  O   UNL     1     113.201 124.318 136.318  0.00  0.00    +0.000 OA
ATOM     13  O   UNL     1     115.036 124.668 137.003  0.00  0.00    +0.000 OA
ATOM     14  C   UNL     1     112.679 125.927 138.336  0.00  0.00    +0.000 A 
ATOM     15  C   UNL     1     112.548 125.332 137.549  0.00  0.00    +0.000 A 
ATOM     16  C   UNL     1     113.598 126.102 138.678  0.00  0.00    +0.000 A 
ATOM     17  C   UNL     1     113.333 124.912 137.104  0.00  0.00    +0.000 A 
ATOM     18  C   UNL     1     114.383 125.683 138.234  0.00  0.00    +0.000 A 
ATOM     19  C   UNL     1     114.252 125.088 137.447  0.00  0.00    +0.000 A 
ENDBRANCH   5  14
BRANCH   7  20
ATOM     20  O   UNL     1     109.322 128.606 139.972  0.00  0.00    +0.000 OA
BRANCH  20  29
ATOM     21  O   UNL     1     109.842 129.101 141.539  0.00  0.00    +0.000 OA
ATOM     22  O   UNL     1     107.884 131.354 141.477  0.00  0.00    +0.000 OA
ATOM     23  O   UNL     1     109.056 131.098 143.064  0.00  0.00    +0.000 OA
ATOM     24  O   UNL     1     108.017 130.108 139.930  0.00  0.00    +0.000 OA
ATOM     25  C   UNL     1     108.537 130.603 141.498  0.00  0.00    +0.000 C 
ATOM     26  C   UNL     1     109.123 130.475 142.291  0.00  0.00    +0.000 C 
ATOM     27  C   UNL     1     108.603 129.980 140.724  0.00  0.00    +0.000 C 
ATOM     28  C   UNL     1     109.776 129.723 142.312  0.00  0.00    +0.000 C 
ATOM     29  C   UNL     1     109.256 129.228 140.744  0.00  0.00    +0.000 C 
BRANCH  28  31
ATOM     30  O   UNL     1     110.700 128.689 143.336  0.00  0.00    +0.000 OA
ATOM     31  C   UNL     1     110.362 129.596 143.106  0.00  0.00    +0.000 C 
ENDBRANCH  28  31
ENDBRANCH  20  29
ENDBRANCH   7  20
BRANCH   3  32
ATOM     32  O   UNL     1     112.285 127.856 138.043  0.00  0.00    +0.000 OA
BRANCH  32  34
ATOM     33  O   UNL     1     111.004 128.426 137.041  0.00  0.00    +0.000 OA
ATOM     34  C   UNL     1     111.892 128.566 137.468  0.00  0.00    +0.000 C 
BRANCH  34  35
ATOM     35  C   UNL     1     112.387 129.417 137.319  0.00  0.00    +0.000 A 
ATOM     36  C   UNL     1     111.971 130.285 137.573  0.00  0.00    +0.000 A 
ATOM     37  C   UNL     1     113.296 129.399 136.915  0.00  0.00    +0.000 A 
ATOM     38  C   UNL     1     112.467 131.136 137.424  0.00  0.00    +0.000 A 
ATOM     39  C   UNL     1     113.791 130.251 136.766  0.00  0.00    +0.000 A 
ATOM     40  C   UNL     1     113.376 131.118 137.021  0.00  0.00    +0.000 A 
ENDBRANCH  34  35
ENDBRANCH  32  34
ENDBRANCH   3  32
TORSDOF 7
ENDMDL
MODEL 10
REMARK VINA RESULT:      -9.1      9.092     12.062
REMARK  Name = 
REMARK  7 active torsions:
REMARK  status: ('A' for Active; 'I' for Inactive)
REMARK    1  A    between atoms: O_2  and  C_17
REMARK    2  A    between atoms: O_2  and  C_23
REMARK    3  A    between atoms: O_7  and  C_18
REMARK    4  A    between atoms: O_7  and  C_31
REMARK    5  A    between atoms: C_16  and  C_22
REMARK    6  A    between atoms: C_20  and  C_25
REMARK    7  A    between atoms: C_31  and  C_35
REMARK                            x       y       z     vdW  Elec       q    Type
REMARK                         _______ _______ _______ _____ _____    ______ ____
ROOT
ATOM      1  O   UNL     1     107.434 127.609 146.603  0.00  0.00    +0.000 OA
ATOM      2  O   UNL     1     107.483 124.600 148.417  0.00  0.00    +0.000 OA
ATOM      3  C   UNL     1     106.278 127.853 145.348  0.00  0.00    +0.000 C 
ATOM      4  C   UNL     1     105.903 126.947 145.519  0.00  0.00    +0.000 C 
ATOM      5  C   UNL     1     107.044 128.184 145.891  0.00  0.00    +0.000 C 
ATOM      6  C   UNL     1     106.292 126.372 146.232  0.00  0.00    +0.000 A 
ATOM      7  C   UNL     1     105.891 125.431 146.398  0.00  0.00    +0.000 A 
ATOM      8  C   UNL     1     107.059 126.704 146.774  0.00  0.00    +0.000 A 
ATOM      9  C   UNL     1     106.292 124.828 147.138  0.00  0.00    +0.000 A 
ATOM     10  C   UNL     1     107.476 126.117 147.520  0.00  0.00    +0.000 A 
ATOM     11  C   UNL     1     107.090 125.173 147.703  0.00  0.00    +0.000 A 
ENDROOT
BRANCH   5  14
ATOM     12  O   UNL     1     106.859 131.609 146.240  0.00  0.00    +0.000 OA
ATOM     13  O   UNL     1     108.547 131.806 145.206  0.00  0.00    +0.000 OA
ATOM     14  C   UNL     1     107.420 129.090 145.720  0.00  0.00    +0.000 A 
ATOM     15  C   UNL     1     106.952 129.897 146.066  0.00  0.00    +0.000 A 
ATOM     16  C   UNL     1     108.265 129.189 145.202  0.00  0.00    +0.000 A 
ATOM     17  C   UNL     1     107.327 130.802 145.895  0.00  0.00    +0.000 A 
ATOM     18  C   UNL     1     108.640 130.094 145.031  0.00  0.00    +0.000 A 
ATOM     19  C   UNL     1     108.172 130.902 145.377  0.00  0.00    +0.000 A 
ENDBRANCH   5  14
BRANCH   7  20
ATOM     20  O   UNL     1     105.124 125.110 145.850  0.00  0.00    +0.000 OA
BRANCH  20  29
ATOM     21  O   UNL     1     103.980 125.110 147.139  0.00  0.00    +0.000 OA
ATOM     22  O   UNL     1     102.622 122.739 145.934  0.00  0.00    +0.000 OA
ATOM     23  O   UNL     1     101.931 123.530 147.625  0.00  0.00    +0.000 OA
ATOM     24  O   UNL     1     104.220 123.530 145.047  0.00  0.00    +0.000 OA
ATOM     25  C   UNL     1     103.075 123.530 146.336  0.00  0.00    +0.000 C 
ATOM     26  C   UNL     1     102.729 123.925 147.181  0.00  0.00    +0.000 C 
ATOM     27  C   UNL     1     103.874 123.925 145.891  0.00  0.00    +0.000 C 
ATOM     28  C   UNL     1     103.182 124.716 147.582  0.00  0.00    +0.000 C 
ATOM     29  C   UNL     1     104.327 124.715 146.293  0.00  0.00    +0.000 C 
BRANCH  28  31
ATOM     30  O   UNL     1     103.311 125.876 148.851  0.00  0.00    +0.000 OA
ATOM     31  C   UNL     1     102.836 125.111 148.427  0.00  0.00    +0.000 C 
ENDBRANCH  28  31
ENDBRANCH  20  29
ENDBRANCH   7  20
BRANCH   3  32
ATOM     32  O   UNL     1     105.888 128.428 144.636  0.00  0.00    +0.000 OA
BRANCH  32  34
ATOM     33  O   UNL     1     105.964 127.141 143.491  0.00  0.00    +0.000 OA
ATOM     34  C   UNL     1     105.601 128.024 143.772  0.00  0.00    +0.000 C 
BRANCH  34  35
ATOM     35  C   UNL     1     104.950 128.503 143.190  0.00  0.00    +0.000 A 
ATOM     36  C   UNL     1     104.799 128.196 142.256  0.00  0.00    +0.000 A 
ATOM     37  C   UNL     1     104.452 129.288 143.544  0.00  0.00    +0.000 A 
ATOM     38  C   UNL     1     104.148 128.675 141.674  0.00  0.00    +0.000 A 
ATOM     39  C   UNL     1     103.801 129.767 142.962  0.00  0.00    +0.000 A 
ATOM     40  C   UNL     1     103.650 129.460 142.027  0.00  0.00    +0.000 A 
ENDBRANCH  34  35
ENDBRANCH  32  34
ENDBRANCH   3  32
TORSDOF 7
ENDMDL
