MODEL 1
REMARK VINA RESULT:     -10.2      0.000      0.000
REMARK  Name = 5353588
REMARK  7 active torsions:
REMARK  status: ('A' for Active; 'I' for Inactive)
REMARK    1  A    between atoms: O_3  and  C_21
REMARK    2  A    between atoms: O_3  and  C_26
REMARK    3  A    between atoms: O_6  and  C_24
REMARK    4  A    between atoms: O_6  and  C_28
REMARK    5  A    between atoms: O_14  and  C_42
REMARK    6  A    between atoms: C_16  and  C_26
REMARK    7  A    between atoms: C_35  and  C_37
REMARK                            x       y       z     vdW  Elec       q    Type
REMARK                         _______ _______ _______ _____ _____    ______ ____
ROOT
ATOM      1  O   UNL     1     113.317 128.908 138.537  0.00  0.00    +0.000 OA
ENDROOT
BRANCH   1   5
ATOM      2  O   UNL     1     111.070 129.685 136.855  0.00  0.00    +0.000 OA
ATOM      3  O   UNL     1     113.556 128.876 135.627  0.00  0.00    +0.000 OA
ATOM      4  O   UNL     1     112.422 129.268 134.825  0.00  0.00    +0.000 OA
ATOM      5  C   UNL     1     112.991 129.029 137.788  0.00  0.00    +0.000 A 
ATOM      6  C   UNL     1     112.180 129.301 137.709  0.00  0.00    +0.000 A 
ATOM      7  C   UNL     1     113.461 128.884 137.084  0.00  0.00    +0.000 A 
ATOM      8  C   UNL     1     111.849 129.424 136.925  0.00  0.00    +0.000 A 
ATOM      9  C   UNL     1     113.113 129.013 136.308  0.00  0.00    +0.000 A 
ATOM     10  C   UNL     1     112.300 129.285 136.249  0.00  0.00    +0.000 A 
ATOM     11  C   UNL     1     111.971 129.407 135.502  0.00  0.00    +0.000 A 
ATOM     12  C   UNL     1     110.742 129.807 136.108  0.00  0.00    +0.000 A 
ATOM     13  C   UNL     1     111.192 129.668 135.431  0.00  0.00    +0.000 A 
BRANCH  12  15
ATOM     14  O   UNL     1     107.950 129.234 135.885  0.00  0.00    +0.000 OA
ATOM     15  C   UNL     1     109.962 130.068 136.038  0.00  0.00    +0.000 A 
ATOM     16  C   UNL     1     109.346 129.521 135.997  0.00  0.00    +0.000 A 
ATOM     17  C   UNL     1     109.798 130.876 136.008  0.00  0.00    +0.000 A 
ATOM     18  C   UNL     1     108.566 129.781 135.926  0.00  0.00    +0.000 A 
ATOM     19  C   UNL     1     109.019 131.136 135.938  0.00  0.00    +0.000 A 
ATOM     20  C   UNL     1     108.403 130.589 135.897  0.00  0.00    +0.000 A 
BRANCH  20  21
ATOM     21  O   UNL     1     107.624 130.850 135.826  0.00  0.00    +0.000 OA
ATOM     22  C   UNL     1     107.453 131.657 135.865  0.00  0.00    +0.000 C 
ENDBRANCH  20  21
ENDBRANCH  12  15
ENDBRANCH   1   5
BRANCH   1  31
ATOM     23  O   UNL     1     112.918 127.537 138.600  0.00  0.00    +0.000 OA
ATOM     24  O   UNL     1     112.445 126.264 140.309  0.00  0.00    +0.000 OA
ATOM     25  O   UNL     1     112.807 127.684 141.069  0.00  0.00    +0.000 OA
ATOM     26  O   UNL     1     113.244 129.005 140.182  0.00  0.00    +0.000 OA
ATOM     27  C   UNL     1     112.700 126.877 139.043  0.00  0.00    +0.000 C 
ATOM     28  C   UNL     1     112.663 126.925 139.866  0.00  0.00    +0.000 C 
ATOM     29  C   UNL     1     112.844 127.635 140.245  0.00  0.00    +0.000 C 
ATOM     30  C   UNL     1     113.062 128.296 139.802  0.00  0.00    +0.000 C 
ATOM     31  C   UNL     1     113.099 128.247 138.980  0.00  0.00    +0.000 C 
BRANCH  27  32
ATOM     32  C   UNL     1     112.518 126.167 138.664  0.00  0.00    +0.000 C 
BRANCH  32  33
ATOM     33  O   UNL     1     111.881 126.129 138.141  0.00  0.00    +0.000 OA
BRANCH  33  39
ATOM     34  O   UNL     1     112.391 124.909 137.599  0.00  0.00    +0.000 OA
ATOM     35  O   UNL     1     110.717 126.162 136.972  0.00  0.00    +0.000 OA
ATOM     36  O   UNL     1     110.646 124.958 135.845  0.00  0.00    +0.000 OA
ATOM     37  O   UNL     1     111.737 123.722 135.888  0.00  0.00    +0.000 OA
ATOM     38  C   UNL     1     111.264 125.543 136.993  0.00  0.00    +0.000 C 
ATOM     39  C   UNL     1     111.846 125.527 137.578  0.00  0.00    +0.000 C 
ATOM     40  C   UNL     1     111.227 124.942 136.430  0.00  0.00    +0.000 C 
ATOM     41  C   UNL     1     111.773 124.324 136.452  0.00  0.00    +0.000 C 
ATOM     42  C   UNL     1     112.355 124.307 137.036  0.00  0.00    +0.000 C 
ATOM     43  C   UNL     1     112.901 123.689 137.057  0.00  0.00    +0.000 C 
ENDBRANCH  33  39
ENDBRANCH  32  33
ENDBRANCH  27  32
ENDBRANCH   1  31
TORSDOF 7
ENDMDL
MODEL 2
REMARK VINA RESULT:     -10.1      9.498     10.798
REMARK  Name = 5353588
REMARK  7 active torsions:
REMARK  status: ('A' for Active; 'I' for Inactive)
REMARK    1  A    between atoms: O_3  and  C_21
REMARK    2  A    between atoms: O_3  and  C_26
REMARK    3  A    between atoms: O_6  and  C_24
REMARK    4  A    between atoms: O_6  and  C_28
REMARK    5  A    between atoms: O_14  and  C_42
REMARK    6  A    between atoms: C_16  and  C_26
REMARK    7  A    between atoms: C_35  and  C_37
REMARK                            x       y       z     vdW  Elec       q    Type
REMARK                         _______ _______ _______ _____ _____    ______ ____
ROOT
ATOM      1  O   UNL     1     107.205 126.334 146.101  0.00  0.00    +0.000 OA
ENDROOT
BRANCH   1   5
ATOM      2  O   UNL     1     105.596 127.866 144.218  0.00  0.00    +0.000 OA
ATOM      3  O   UNL     1     105.996 128.870 146.897  0.00  0.00    +0.000 OA
ATOM      4  O   UNL     1     105.204 129.602 145.938  0.00  0.00    +0.000 OA
ATOM      5  C   UNL     1     106.746 126.998 145.925  0.00  0.00    +0.000 A 
ATOM      6  C   UNL     1     106.401 127.089 145.144  0.00  0.00    +0.000 A 
ATOM      7  C   UNL     1     106.610 127.600 146.522  0.00  0.00    +0.000 A 
ATOM      8  C   UNL     1     105.925 127.783 144.970  0.00  0.00    +0.000 A 
ATOM      9  C   UNL     1     106.131 128.287 146.330  0.00  0.00    +0.000 A 
ATOM     10  C   UNL     1     105.794 128.362 145.544  0.00  0.00    +0.000 A 
ATOM     11  C   UNL     1     105.335 129.024 145.364  0.00  0.00    +0.000 A 
ATOM     12  C   UNL     1     105.136 128.528 144.039  0.00  0.00    +0.000 A 
ATOM     13  C   UNL     1     105.006 129.107 144.612  0.00  0.00    +0.000 A 
BRANCH  12  15
ATOM     14  O   UNL     1     104.854 127.612 141.346  0.00  0.00    +0.000 OA
ATOM     15  C   UNL     1     104.808 128.611 143.287  0.00  0.00    +0.000 A 
ATOM     16  C   UNL     1     104.995 128.070 142.693  0.00  0.00    +0.000 A 
ATOM     17  C   UNL     1     104.291 129.234 143.129  0.00  0.00    +0.000 A 
ATOM     18  C   UNL     1     104.667 128.153 141.941  0.00  0.00    +0.000 A 
ATOM     19  C   UNL     1     103.963 129.317 142.377  0.00  0.00    +0.000 A 
ATOM     20  C   UNL     1     104.150 128.777 141.783  0.00  0.00    +0.000 A 
BRANCH  20  21
ATOM     21  O   UNL     1     103.821 128.860 141.031  0.00  0.00    +0.000 OA
ATOM     22  C   UNL     1     103.277 129.462 140.882  0.00  0.00    +0.000 C 
ENDBRANCH  20  21
ENDBRANCH  12  15
ENDBRANCH   1   5
BRANCH   1  31
ATOM     23  O   UNL     1     106.191 125.486 146.642  0.00  0.00    +0.000 OA
ATOM     24  O   UNL     1     106.199 124.194 148.402  0.00  0.00    +0.000 OA
ATOM     25  O   UNL     1     107.724 124.821 148.469  0.00  0.00    +0.000 OA
ATOM     26  O   UNL     1     108.227 125.891 147.319  0.00  0.00    +0.000 OA
ATOM     27  C   UNL     1     105.939 124.951 147.218  0.00  0.00    +0.000 C 
ATOM     28  C   UNL     1     106.450 124.729 147.827  0.00  0.00    +0.000 C 
ATOM     29  C   UNL     1     107.212 125.043 147.860  0.00  0.00    +0.000 C 
ATOM     30  C   UNL     1     107.464 125.578 147.285  0.00  0.00    +0.000 C 
ATOM     31  C   UNL     1     106.953 125.799 146.676  0.00  0.00    +0.000 C 
BRANCH  27  32
ATOM     32  C   UNL     1     105.177 124.637 147.185  0.00  0.00    +0.000 C 
BRANCH  32  33
ATOM     33  O   UNL     1     104.897 124.304 146.484  0.00  0.00    +0.000 OA
BRANCH  33  39
ATOM     34  O   UNL     1     103.542 124.420 146.922  0.00  0.00    +0.000 OA
ATOM     35  O   UNL     1     104.435 123.203 145.345  0.00  0.00    +0.000 OA
ATOM     36  O   UNL     1     102.849 122.768 145.214  0.00  0.00    +0.000 OA
ATOM     37  O   UNL     1     101.725 123.435 146.221  0.00  0.00    +0.000 OA
ATOM     38  C   UNL     1     103.873 123.537 145.849  0.00  0.00    +0.000 C 
ATOM     39  C   UNL     1     104.104 124.087 146.419  0.00  0.00    +0.000 C 
ATOM     40  C   UNL     1     103.080 123.319 145.783  0.00  0.00    +0.000 C 
ATOM     41  C   UNL     1     102.518 123.652 146.287  0.00  0.00    +0.000 C 
ATOM     42  C   UNL     1     102.750 124.203 146.856  0.00  0.00    +0.000 C 
ATOM     43  C   UNL     1     102.187 124.536 147.360  0.00  0.00    +0.000 C 
ENDBRANCH  33  39
ENDBRANCH  32  33
ENDBRANCH  27  32
ENDBRANCH   1  31
TORSDOF 7
ENDMDL
MODEL 3
REMARK VINA RESULT:     -10.1      1.335      4.320
REMARK  Name = 5353588
REMARK  7 active torsions:
REMARK  status: ('A' for Active; 'I' for Inactive)
REMARK    1  A    between atoms: O_3  and  C_21
REMARK    2  A    between atoms: O_3  and  C_26
REMARK    3  A    between atoms: O_6  and  C_24
REMARK    4  A    between atoms: O_6  and  C_28
REMARK    5  A    between atoms: O_14  and  C_42
REMARK    6  A    between atoms: C_16  and  C_26
REMARK    7  A    between atoms: C_35  and  C_37
REMARK                            x       y       z     vdW  Elec       q    Type
REMARK                         _______ _______ _______ _____ _____    ______ ____
ROOT
ATOM      1  O   UNL     1     110.538 129.625 135.346  0.00  0.00    +0.000 OA
ENDROOT
BRANCH   1   5
ATOM      2  O   UNL     1     112.656 129.804 137.338  0.00  0.00    +0.000 OA
ATOM      3  O   UNL     1     113.309 129.047 134.627  0.00  0.00    +0.000 OA
ATOM      4  O   UNL     1     114.332 129.146 135.639  0.00  0.00    +0.000 OA
ATOM      5  C   UNL     1     111.335 129.560 135.552  0.00  0.00    +0.000 A 
ATOM      6  C   UNL     1     111.588 129.720 136.358  0.00  0.00    +0.000 A 
ATOM      7  C   UNL     1     111.916 129.331 134.963  0.00  0.00    +0.000 A 
ATOM      8  C   UNL     1     112.419 129.649 136.563  0.00  0.00    +0.000 A 
ATOM      9  C   UNL     1     112.744 129.266 135.186  0.00  0.00    +0.000 A 
ATOM     10  C   UNL     1     112.978 129.430 135.996  0.00  0.00    +0.000 A 
ATOM     11  C   UNL     1     113.774 129.366 136.206  0.00  0.00    +0.000 A 
ATOM     12  C   UNL     1     113.452 129.740 137.546  0.00  0.00    +0.000 A 
ATOM     13  C   UNL     1     114.011 129.520 136.981  0.00  0.00    +0.000 A 
BRANCH  12  15
ATOM     14  O   UNL     1     113.509 129.011 140.310  0.00  0.00    +0.000 OA
ATOM     15  C   UNL     1     113.689 129.894 138.321  0.00  0.00    +0.000 A 
ATOM     16  C   UNL     1     113.481 129.376 138.928  0.00  0.00    +0.000 A 
ATOM     17  C   UNL     1     114.135 130.567 138.490  0.00  0.00    +0.000 A 
ATOM     18  C   UNL     1     113.717 129.530 139.703  0.00  0.00    +0.000 A 
ATOM     19  C   UNL     1     114.372 130.722 139.264  0.00  0.00    +0.000 A 
ATOM     20  C   UNL     1     114.163 130.203 139.871  0.00  0.00    +0.000 A 
BRANCH  20  21
ATOM     21  O   UNL     1     114.400 130.358 140.646  0.00  0.00    +0.000 OA
ATOM     22  C   UNL     1     114.905 130.991 140.805  0.00  0.00    +0.000 C 
ENDBRANCH  20  21
ENDBRANCH  12  15
ENDBRANCH   1   5
BRANCH   1  31
ATOM     23  O   UNL     1     110.278 128.316 135.857  0.00  0.00    +0.000 OA
ATOM     24  O   UNL     1     108.394 127.300 136.289  0.00  0.00    +0.000 OA
ATOM     25  O   UNL     1     107.844 128.756 135.739  0.00  0.00    +0.000 OA
ATOM     26  O   UNL     1     108.916 129.918 135.268  0.00  0.00    +0.000 OA
ATOM     27  C   UNL     1     109.742 127.735 136.093  0.00  0.00    +0.000 C 
ATOM     28  C   UNL     1     108.930 127.881 136.054  0.00  0.00    +0.000 C 
ATOM     29  C   UNL     1     108.656 128.609 135.778  0.00  0.00    +0.000 C 
ATOM     30  C   UNL     1     109.192 129.190 135.543  0.00  0.00    +0.000 C 
ATOM     31  C   UNL     1     110.002 129.044 135.582  0.00  0.00    +0.000 C 
BRANCH  27  32
ATOM     32  C   UNL     1     110.016 127.007 136.368  0.00  0.00    +0.000 C 
BRANCH  32  33
ATOM     33  O   UNL     1     110.530 126.558 135.905  0.00  0.00    +0.000 OA
BRANCH  33  39
ATOM     34  O   UNL     1     111.499 126.232 136.904  0.00  0.00    +0.000 OA
ATOM     35  O   UNL     1     110.600 125.012 135.334  0.00  0.00    +0.000 OA
ATOM     36  O   UNL     1     111.603 123.913 136.046  0.00  0.00    +0.000 OA
ATOM     37  O   UNL     1     112.537 124.360 137.330  0.00  0.00    +0.000 OA
ATOM     38  C   UNL     1     111.067 125.236 135.976  0.00  0.00    +0.000 C 
ATOM     39  C   UNL     1     111.032 126.009 136.262  0.00  0.00    +0.000 C 
ATOM     40  C   UNL     1     111.569 124.686 136.332  0.00  0.00    +0.000 C 
ATOM     41  C   UNL     1     112.035 124.910 136.974  0.00  0.00    +0.000 C 
ATOM     42  C   UNL     1     112.001 125.683 137.260  0.00  0.00    +0.000 C 
ATOM     43  C   UNL     1     112.468 125.906 137.902  0.00  0.00    +0.000 C 
ENDBRANCH  33  39
ENDBRANCH  32  33
ENDBRANCH  27  32
ENDBRANCH   1  31
TORSDOF 7
ENDMDL
MODEL 4
REMARK VINA RESULT:     -10.1      2.004      5.910
REMARK  Name = 5353588
REMARK  7 active torsions:
REMARK  status: ('A' for Active; 'I' for Inactive)
REMARK    1  A    between atoms: O_3  and  C_21
REMARK    2  A    between atoms: O_3  and  C_26
REMARK    3  A    between atoms: O_6  and  C_24
REMARK    4  A    between atoms: O_6  and  C_28
REMARK    5  A    between atoms: O_14  and  C_42
REMARK    6  A    between atoms: C_16  and  C_26
REMARK    7  A    between atoms: C_35  and  C_37
REMARK                            x       y       z     vdW  Elec       q    Type
REMARK                         _______ _______ _______ _____ _____    ______ ____
ROOT
ATOM      1  O   UNL     1     108.945 128.437 136.678  0.00  0.00    +0.000 OA
ENDROOT
BRANCH   1   5
ATOM      2  O   UNL     1     111.245 126.655 136.542  0.00  0.00    +0.000 OA
ATOM      3  O   UNL     1     108.942 126.139 134.876  0.00  0.00    +0.000 OA
ATOM      4  O   UNL     1     110.099 125.278 134.835  0.00  0.00    +0.000 OA
ATOM      5  C   UNL     1     109.319 127.772 136.361  0.00  0.00    +0.000 A 
ATOM      6  C   UNL     1     110.107 127.554 136.623  0.00  0.00    +0.000 A 
ATOM      7  C   UNL     1     108.920 127.295 135.769  0.00  0.00    +0.000 A 
ATOM      8  C   UNL     1     110.488 126.860 136.288  0.00  0.00    +0.000 A 
ATOM      9  C   UNL     1     109.316 126.603 135.445  0.00  0.00    +0.000 A 
ATOM     10  C   UNL     1     110.105 126.401 135.719  0.00  0.00    +0.000 A 
ATOM     11  C   UNL     1     110.481 125.737 135.404  0.00  0.00    +0.000 A 
ATOM     12  C   UNL     1     111.620 125.991 136.228  0.00  0.00    +0.000 A 
ATOM     13  C   UNL     1     111.239 125.531 135.659  0.00  0.00    +0.000 A 
BRANCH  12  15
ATOM     14  O   UNL     1     114.412 126.577 136.415  0.00  0.00    +0.000 OA
ATOM     15  C   UNL     1     112.378 125.785 136.482  0.00  0.00    +0.000 A 
ATOM     16  C   UNL     1     113.016 126.283 136.322  0.00  0.00    +0.000 A 
ATOM     17  C   UNL     1     112.498 125.083 136.897  0.00  0.00    +0.000 A 
ATOM     18  C   UNL     1     113.773 126.079 136.576  0.00  0.00    +0.000 A 
ATOM     19  C   UNL     1     113.255 124.878 137.151  0.00  0.00    +0.000 A 
ATOM     20  C   UNL     1     113.893 125.376 136.991  0.00  0.00    +0.000 A 
BRANCH  20  21
ATOM     21  O   UNL     1     114.650 125.171 137.245  0.00  0.00    +0.000 OA
ATOM     22  C   UNL     1     114.784 124.434 137.592  0.00  0.00    +0.000 C 
ENDBRANCH  20  21
ENDBRANCH  12  15
ENDBRANCH   1   5
BRANCH   1  31
ATOM     23  O   UNL     1     109.912 129.462 136.439  0.00  0.00    +0.000 OA
ATOM     24  O   UNL     1     109.701 131.446 135.553  0.00  0.00    +0.000 OA
ATOM     25  O   UNL     1     108.147 130.900 135.468  0.00  0.00    +0.000 OA
ATOM     26  O   UNL     1     107.769 129.396 136.031  0.00  0.00    +0.000 OA
ATOM     27  C   UNL     1     110.101 130.214 136.158  0.00  0.00    +0.000 C 
ATOM     28  C   UNL     1     109.512 130.694 135.834  0.00  0.00    +0.000 C 
ATOM     29  C   UNL     1     108.735 130.420 135.792  0.00  0.00    +0.000 C 
ATOM     30  C   UNL     1     108.546 129.668 136.073  0.00  0.00    +0.000 C 
ATOM     31  C   UNL     1     109.134 129.189 136.397  0.00  0.00    +0.000 C 
BRANCH  27  32
ATOM     32  C   UNL     1     110.878 130.487 136.200  0.00  0.00    +0.000 C 
BRANCH  32  33
ATOM     33  O   UNL     1     111.299 130.429 136.907  0.00  0.00    +0.000 OA
BRANCH  33  39
ATOM     34  O   UNL     1     112.546 130.148 136.269  0.00  0.00    +0.000 OA
ATOM     35  O   UNL     1     112.100 131.146 138.159  0.00  0.00    +0.000 OA
ATOM     36  O   UNL     1     113.748 131.223 138.147  0.00  0.00    +0.000 OA
ATOM     37  O   UNL     1     114.595 130.584 136.883  0.00  0.00    +0.000 OA
ATOM     38  C   UNL     1     112.524 130.826 137.527  0.00  0.00    +0.000 C 
ATOM     39  C   UNL     1     112.123 130.468 136.901  0.00  0.00    +0.000 C 
ATOM     40  C   UNL     1     113.348 130.865 137.521  0.00  0.00    +0.000 C 
ATOM     41  C   UNL     1     113.770 130.545 136.889  0.00  0.00    +0.000 C 
ATOM     42  C   UNL     1     113.370 130.187 136.263  0.00  0.00    +0.000 C 
ATOM     43  C   UNL     1     113.794 129.867 135.632  0.00  0.00    +0.000 C 
ENDBRANCH  33  39
ENDBRANCH  32  33
ENDBRANCH  27  32
ENDBRANCH   1  31
TORSDOF 7
ENDMDL
MODEL 5
REMARK VINA RESULT:     -10.0      1.666      5.403
REMARK  Name = 5353588
REMARK  7 active torsions:
REMARK  status: ('A' for Active; 'I' for Inactive)
REMARK    1  A    between atoms: O_3  and  C_21
REMARK    2  A    between atoms: O_3  and  C_26
REMARK    3  A    between atoms: O_6  and  C_24
REMARK    4  A    between atoms: O_6  and  C_28
REMARK    5  A    between atoms: O_14  and  C_42
REMARK    6  A    between atoms: C_16  and  C_26
REMARK    7  A    between atoms: C_35  and  C_37
REMARK                            x       y       z     vdW  Elec       q    Type
REMARK                         _______ _______ _______ _____ _____    ______ ____
ROOT
ATOM      1  O   UNL     1     110.412 130.369 135.865  0.00  0.00    +0.000 OA
ENDROOT
BRANCH   1   5
ATOM      2  O   UNL     1     110.508 127.514 136.431  0.00  0.00    +0.000 OA
ATOM      3  O   UNL     1     107.987 128.747 135.745  0.00  0.00    +0.000 OA
ATOM      4  O   UNL     1     108.072 127.335 136.031  0.00  0.00    +0.000 OA
ATOM      5  C   UNL     1     110.032 129.640 135.938  0.00  0.00    +0.000 A 
ATOM      6  C   UNL     1     110.478 128.939 136.152  0.00  0.00    +0.000 A 
ATOM      7  C   UNL     1     109.186 129.579 135.799  0.00  0.00    +0.000 A 
ATOM      8  C   UNL     1     110.074 128.184 136.225  0.00  0.00    +0.000 A 
ATOM      9  C   UNL     1     108.798 128.816 135.876  0.00  0.00    +0.000 A 
ATOM     10  C   UNL     1     109.262 128.125 136.091  0.00  0.00    +0.000 A 
ATOM     11  C   UNL     1     108.884 127.394 136.165  0.00  0.00    +0.000 A 
ATOM     12  C   UNL     1     110.130 126.784 136.503  0.00  0.00    +0.000 A 
ATOM     13  C   UNL     1     109.318 126.724 136.371  0.00  0.00    +0.000 A 
BRANCH  12  15
ATOM     14  O   UNL     1     111.228 125.065 138.506  0.00  0.00    +0.000 OA
ATOM     15  C   UNL     1     110.564 126.113 136.710  0.00  0.00    +0.000 A 
ATOM     16  C   UNL     1     110.679 125.924 137.504  0.00  0.00    +0.000 A 
ATOM     17  C   UNL     1     110.884 125.631 136.122  0.00  0.00    +0.000 A 
ATOM     18  C   UNL     1     111.113 125.254 137.711  0.00  0.00    +0.000 A 
ATOM     19  C   UNL     1     111.318 124.962 136.328  0.00  0.00    +0.000 A 
ATOM     20  C   UNL     1     111.432 124.772 137.123  0.00  0.00    +0.000 A 
BRANCH  20  21
ATOM     21  O   UNL     1     111.867 124.102 137.329  0.00  0.00    +0.000 OA
ATOM     22  C   UNL     1     112.149 123.596 136.741  0.00  0.00    +0.000 C 
ENDBRANCH  20  21
ENDBRANCH  12  15
ENDBRANCH   1   5
BRANCH   1  31
ATOM     23  O   UNL     1     110.783 130.603 137.225  0.00  0.00    +0.000 OA
ATOM     24  O   UNL     1     110.611 132.392 138.465  0.00  0.00    +0.000 OA
ATOM     25  O   UNL     1     109.970 132.935 137.044  0.00  0.00    +0.000 OA
ATOM     26  O   UNL     1     109.870 131.923 135.745  0.00  0.00    +0.000 OA
ATOM     27  C   UNL     1     110.832 131.109 137.875  0.00  0.00    +0.000 C 
ATOM     28  C   UNL     1     110.561 131.887 137.815  0.00  0.00    +0.000 C 
ATOM     29  C   UNL     1     110.241 132.157 137.105  0.00  0.00    +0.000 C 
ATOM     30  C   UNL     1     110.191 131.651 136.455  0.00  0.00    +0.000 C 
ATOM     31  C   UNL     1     110.462 130.875 136.515  0.00  0.00    +0.000 C 
BRANCH  27  32
ATOM     32  C   UNL     1     111.153 130.839 138.585  0.00  0.00    +0.000 C 
BRANCH  32  33
ATOM     33  O   UNL     1     111.926 130.552 138.607  0.00  0.00    +0.000 OA
BRANCH  33  39
ATOM     34  O   UNL     1     111.652 129.437 139.458  0.00  0.00    +0.000 OA
ATOM     35  O   UNL     1     113.405 130.731 139.317  0.00  0.00    +0.000 OA
ATOM     36  O   UNL     1     113.870 129.705 140.523  0.00  0.00    +0.000 OA
ATOM     37  O   UNL     1     112.858 128.500 141.018  0.00  0.00    +0.000 OA
ATOM     38  C   UNL     1     112.898 130.128 139.565  0.00  0.00    +0.000 C 
ATOM     39  C   UNL     1     112.158 130.039 139.210  0.00  0.00    +0.000 C 
ATOM     40  C   UNL     1     113.131 129.615 140.168  0.00  0.00    +0.000 C 
ATOM     41  C   UNL     1     112.624 129.013 140.415  0.00  0.00    +0.000 C 
ATOM     42  C   UNL     1     111.885 128.924 140.060  0.00  0.00    +0.000 C 
ATOM     43  C   UNL     1     111.379 128.321 140.308  0.00  0.00    +0.000 C 
ENDBRANCH  33  39
ENDBRANCH  32  33
ENDBRANCH  27  32
ENDBRANCH   1  31
TORSDOF 7
ENDMDL
MODEL 6
REMARK VINA RESULT:     -10.0      1.089      1.551
REMARK  Name = 5353588
REMARK  7 active torsions:
REMARK  status: ('A' for Active; 'I' for Inactive)
REMARK    1  A    between atoms: O_3  and  C_21
REMARK    2  A    between atoms: O_3  and  C_26
REMARK    3  A    between atoms: O_6  and  C_24
REMARK    4  A    between atoms: O_6  and  C_28
REMARK    5  A    between atoms: O_14  and  C_42
REMARK    6  A    between atoms: C_16  and  C_26
REMARK    7  A    between atoms: C_35  and  C_37
REMARK                            x       y       z     vdW  Elec       q    Type
REMARK                         _______ _______ _______ _____ _____    ______ ____
ROOT
ATOM      1  O   UNL     1     112.652 129.176 139.658  0.00  0.00    +0.000 OA
ENDROOT
BRANCH   1   5
ATOM      2  O   UNL     1     110.773 129.947 137.570  0.00  0.00    +0.000 OA
ATOM      3  O   UNL     1     113.575 129.656 136.929  0.00  0.00    +0.000 OA
ATOM      4  O   UNL     1     112.616 130.037 135.921  0.00  0.00    +0.000 OA
ATOM      5  C   UNL     1     112.498 129.379 138.873  0.00  0.00    +0.000 A 
ATOM      6  C   UNL     1     111.696 129.562 138.623  0.00  0.00    +0.000 A 
ATOM      7  C   UNL     1     113.137 129.410 138.301  0.00  0.00    +0.000 A 
ATOM      8  C   UNL     1     111.545 129.773 137.804  0.00  0.00    +0.000 A 
ATOM      9  C   UNL     1     112.968 129.624 137.485  0.00  0.00    +0.000 A 
ATOM     10  C   UNL     1     112.160 129.803 137.254  0.00  0.00    +0.000 A 
ATOM     11  C   UNL     1     112.001 130.007 136.470  0.00  0.00    +0.000 A 
ATOM     12  C   UNL     1     110.616 130.151 136.786  0.00  0.00    +0.000 A 
ATOM     13  C   UNL     1     111.230 130.181 136.236  0.00  0.00    +0.000 A 
BRANCH  12  15
ATOM     14  O   UNL     1     108.052 129.283 135.869  0.00  0.00    +0.000 OA
ATOM     15  C   UNL     1     109.845 130.326 136.552  0.00  0.00    +0.000 A 
ATOM     16  C   UNL     1     109.334 129.718 136.328  0.00  0.00    +0.000 A 
ATOM     17  C   UNL     1     109.582 131.107 136.542  0.00  0.00    +0.000 A 
ATOM     18  C   UNL     1     108.562 129.891 136.094  0.00  0.00    +0.000 A 
ATOM     19  C   UNL     1     108.811 131.282 136.308  0.00  0.00    +0.000 A 
ATOM     20  C   UNL     1     108.301 130.673 136.084  0.00  0.00    +0.000 A 
BRANCH  20  21
ATOM     21  O   UNL     1     107.529 130.848 135.850  0.00  0.00    +0.000 OA
ATOM     22  C   UNL     1     107.278 131.633 135.807  0.00  0.00    +0.000 C 
ENDBRANCH  20  21
ENDBRANCH  12  15
ENDBRANCH   1   5
BRANCH   1  31
ATOM     23  O   UNL     1     112.617 127.764 139.438  0.00  0.00    +0.000 OA
ATOM     24  O   UNL     1     111.972 126.132 140.737  0.00  0.00    +0.000 OA
ATOM     25  O   UNL     1     111.703 127.434 141.715  0.00  0.00    +0.000 OA
ATOM     26  O   UNL     1     112.043 128.955 141.175  0.00  0.00    +0.000 OA
ATOM     27  C   UNL     1     112.447 127.003 139.708  0.00  0.00    +0.000 C 
ATOM     28  C   UNL     1     112.142 126.893 140.467  0.00  0.00    +0.000 C 
ATOM     29  C   UNL     1     112.008 127.544 140.956  0.00  0.00    +0.000 C 
ATOM     30  C   UNL     1     112.178 128.305 140.686  0.00  0.00    +0.000 C 
ATOM     31  C   UNL     1     112.482 128.415 139.928  0.00  0.00    +0.000 C 
BRANCH  27  32
ATOM     32  C   UNL     1     112.581 126.352 139.219  0.00  0.00    +0.000 C 
BRANCH  32  33
ATOM     33  O   UNL     1     113.295 126.282 138.812  0.00  0.00    +0.000 OA
BRANCH  33  39
ATOM     34  O   UNL     1     112.703 125.451 137.811  0.00  0.00    +0.000 OA
ATOM     35  O   UNL     1     114.788 125.710 138.404  0.00  0.00    +0.000 OA
ATOM     36  O   UNL     1     114.943 124.594 137.198  0.00  0.00    +0.000 OA
ATOM     37  O   UNL     1     113.604 124.050 136.401  0.00  0.00    +0.000 OA
ATOM     38  C   UNL     1     114.118 125.438 138.005  0.00  0.00    +0.000 C 
ATOM     39  C   UNL     1     113.371 125.724 138.209  0.00  0.00    +0.000 C 
ATOM     40  C   UNL     1     114.196 124.880 137.402  0.00  0.00    +0.000 C 
ATOM     41  C   UNL     1     113.527 124.608 137.004  0.00  0.00    +0.000 C 
ATOM     42  C   UNL     1     112.780 124.894 137.208  0.00  0.00    +0.000 C 
ATOM     43  C   UNL     1     112.111 124.621 136.809  0.00  0.00    +0.000 C 
ENDBRANCH  33  39
ENDBRANCH  32  33
ENDBRANCH  27  32
ENDBRANCH   1  31
TORSDOF 7
ENDMDL
MODEL 7
REMARK VINA RESULT:      -9.9      6.525      7.550
REMARK  Name = 5353588
REMARK  7 active torsions:
REMARK  status: ('A' for Active; 'I' for Inactive)
REMARK    1  A    between atoms: O_3  and  C_21
REMARK    2  A    between atoms: O_3  and  C_26
REMARK    3  A    between atoms: O_6  and  C_24
REMARK    4  A    between atoms: O_6  and  C_28
REMARK    5  A    between atoms: O_14  and  C_42
REMARK    6  A    between atoms: C_16  and  C_26
REMARK    7  A    between atoms: C_35  and  C_37
REMARK                            x       y       z     vdW  Elec       q    Type
REMARK                         _______ _______ _______ _____ _____    ______ ____
ROOT
ATOM      1  O   UNL     1     107.982 127.634 141.525  0.00  0.00    +0.000 OA
ENDROOT
BRANCH   1   5
ATOM      2  O   UNL     1     105.306 128.737 141.849  0.00  0.00    +0.000 OA
ATOM      3  O   UNL     1     106.585 127.420 144.079  0.00  0.00    +0.000 OA
ATOM      4  O   UNL     1     105.260 127.977 144.204  0.00  0.00    +0.000 OA
ATOM      5  C   UNL     1     107.319 127.778 141.995  0.00  0.00    +0.000 A 
ATOM      6  C   UNL     1     106.640 128.193 141.670  0.00  0.00    +0.000 A 
ATOM      7  C   UNL     1     107.304 127.515 142.812  0.00  0.00    +0.000 A 
ATOM      8  C   UNL     1     105.955 128.338 142.167  0.00  0.00    +0.000 A 
ATOM      9  C   UNL     1     106.609 127.669 143.294  0.00  0.00    +0.000 A 
ATOM     10  C   UNL     1     105.940 128.085 142.952  0.00  0.00    +0.000 A 
ATOM     11  C   UNL     1     105.275 128.231 143.419  0.00  0.00    +0.000 A 
ATOM     12  C   UNL     1     104.642 128.882 142.317  0.00  0.00    +0.000 A 
ATOM     13  C   UNL     1     104.626 128.629 143.101  0.00  0.00    +0.000 A 
BRANCH  12  15
ATOM     14  O   UNL     1     102.637 129.131 140.294  0.00  0.00    +0.000 OA
ATOM     15  C   UNL     1     103.993 129.281 141.999  0.00  0.00    +0.000 A 
ATOM     16  C   UNL     1     103.640 129.007 141.306  0.00  0.00    +0.000 A 
ATOM     17  C   UNL     1     103.697 129.953 142.374  0.00  0.00    +0.000 A 
ATOM     18  C   UNL     1     102.991 129.405 140.988  0.00  0.00    +0.000 A 
ATOM     19  C   UNL     1     103.049 130.351 142.057  0.00  0.00    +0.000 A 
ATOM     20  C   UNL     1     102.695 130.077 141.364  0.00  0.00    +0.000 A 
BRANCH  20  21
ATOM     21  O   UNL     1     102.046 130.476 141.046  0.00  0.00    +0.000 OA
ATOM     22  C   UNL     1     101.701 131.100 141.461  0.00  0.00    +0.000 C 
ENDBRANCH  20  21
ENDBRANCH  12  15
ENDBRANCH   1   5
BRANCH   1  31
ATOM     23  O   UNL     1     107.615 126.309 141.137  0.00  0.00    +0.000 OA
ATOM     24  O   UNL     1     108.836 124.535 140.780  0.00  0.00    +0.000 OA
ATOM     25  O   UNL     1     109.996 125.636 141.183  0.00  0.00    +0.000 OA
ATOM     26  O   UNL     1     109.570 127.185 141.556  0.00  0.00    +0.000 OA
ATOM     27  C   UNL     1     107.828 125.534 140.950  0.00  0.00    +0.000 C 
ATOM     28  C   UNL     1     108.622 125.310 140.966  0.00  0.00    +0.000 C 
ATOM     29  C   UNL     1     109.202 125.860 141.168  0.00  0.00    +0.000 C 
ATOM     30  C   UNL     1     108.989 126.635 141.354  0.00  0.00    +0.000 C 
ATOM     31  C   UNL     1     108.196 126.859 141.338  0.00  0.00    +0.000 C 
BRANCH  27  32
ATOM     32  C   UNL     1     107.248 124.983 140.749  0.00  0.00    +0.000 C 
BRANCH  32  33
ATOM     33  O   UNL     1     106.599 125.214 140.295  0.00  0.00    +0.000 OA
BRANCH  33  39
ATOM     34  O   UNL     1     105.753 124.163 140.765  0.00  0.00    +0.000 OA
ATOM     35  O   UNL     1     105.797 125.215 138.853  0.00  0.00    +0.000 OA
ATOM     36  O   UNL     1     104.550 124.164 138.602  0.00  0.00    +0.000 OA
ATOM     37  O   UNL     1     104.105 123.112 139.793  0.00  0.00    +0.000 OA
ATOM     38  C   UNL     1     105.574 124.689 139.449  0.00  0.00    +0.000 C 
ATOM     39  C   UNL     1     105.976 124.689 140.170  0.00  0.00    +0.000 C 
ATOM     40  C   UNL     1     104.951 124.164 139.323  0.00  0.00    +0.000 C 
ATOM     41  C   UNL     1     104.729 123.638 139.919  0.00  0.00    +0.000 C 
ATOM     42  C   UNL     1     105.130 123.638 140.640  0.00  0.00    +0.000 C 
ATOM     43  C   UNL     1     104.907 123.112 141.235  0.00  0.00    +0.000 C 
ENDBRANCH  33  39
ENDBRANCH  32  33
ENDBRANCH  27  32
ENDBRANCH   1  31
TORSDOF 7
ENDMDL
MODEL 8
REMARK VINA RESULT:      -9.9      1.604      5.053
REMARK  Name = 5353588
REMARK  7 active torsions:
REMARK  status: ('A' for Active; 'I' for Inactive)
REMARK    1  A    between atoms: O_3  and  C_21
REMARK    2  A    between atoms: O_3  and  C_26
REMARK    3  A    between atoms: O_6  and  C_24
REMARK    4  A    between atoms: O_6  and  C_28
REMARK    5  A    between atoms: O_14  and  C_42
REMARK    6  A    between atoms: C_16  and  C_26
REMARK    7  A    between atoms: C_35  and  C_37
REMARK                            x       y       z     vdW  Elec       q    Type
REMARK                         _______ _______ _______ _____ _____    ______ ____
ROOT
ATOM      1  O   UNL     1     112.981 130.169 138.861  0.00  0.00    +0.000 OA
ENDROOT
BRANCH   1   5
ATOM      2  O   UNL     1     113.219 127.612 137.487  0.00  0.00    +0.000 OA
ATOM      3  O   UNL     1     113.587 130.065 136.007  0.00  0.00    +0.000 OA
ATOM      4  O   UNL     1     113.698 128.780 135.359  0.00  0.00    +0.000 OA
ATOM      5  C   UNL     1     113.119 129.736 138.172  0.00  0.00    +0.000 A 
ATOM      6  C   UNL     1     113.097 128.878 138.188  0.00  0.00    +0.000 A 
ATOM      7  C   UNL     1     113.285 130.142 137.433  0.00  0.00    +0.000 A 
ATOM      8  C   UNL     1     113.242 128.436 137.465  0.00  0.00    +0.000 A 
ATOM      9  C   UNL     1     113.427 129.684 136.720  0.00  0.00    +0.000 A 
ATOM     10  C   UNL     1     113.401 128.826 136.756  0.00  0.00    +0.000 A 
ATOM     11  C   UNL     1     113.538 128.390 136.068  0.00  0.00    +0.000 A 
ATOM     12  C   UNL     1     113.357 127.177 136.800  0.00  0.00    +0.000 A 
ATOM     13  C   UNL     1     113.516 127.566 136.090  0.00  0.00    +0.000 A 
BRANCH  12  15
ATOM     14  O   UNL     1     114.654 124.678 137.294  0.00  0.00    +0.000 OA
ATOM     15  C   UNL     1     113.334 126.353 136.821  0.00  0.00    +0.000 A 
ATOM     16  C   UNL     1     114.005 125.928 137.047  0.00  0.00    +0.000 A 
ATOM     17  C   UNL     1     112.643 125.952 136.618  0.00  0.00    +0.000 A 
ATOM     18  C   UNL     1     113.983 125.103 137.069  0.00  0.00    +0.000 A 
ATOM     19  C   UNL     1     112.620 125.129 136.640  0.00  0.00    +0.000 A 
ATOM     20  C   UNL     1     113.291 124.704 136.865  0.00  0.00    +0.000 A 
BRANCH  20  21
ATOM     21  O   UNL     1     113.269 123.880 136.887  0.00  0.00    +0.000 OA
ATOM     22  C   UNL     1     112.544 123.485 136.866  0.00  0.00    +0.000 C 
ENDBRANCH  20  21
ENDBRANCH  12  15
ENDBRANCH   1   5
BRANCH   1  31
ATOM     23  O   UNL     1     111.577 130.329 138.651  0.00  0.00    +0.000 OA
ATOM     24  O   UNL     1     109.921 130.417 140.071  0.00  0.00    +0.000 OA
ATOM     25  O   UNL     1     111.200 130.222 141.095  0.00  0.00    +0.000 OA
ATOM     26  O   UNL     1     112.730 130.098 140.491  0.00  0.00    +0.000 OA
ATOM     27  C   UNL     1     110.812 130.391 138.953  0.00  0.00    +0.000 C 
ATOM     28  C   UNL     1     110.686 130.355 139.769  0.00  0.00    +0.000 C 
ATOM     29  C   UNL     1     111.326 130.257 140.280  0.00  0.00    +0.000 C 
ATOM     30  C   UNL     1     112.091 130.195 139.978  0.00  0.00    +0.000 C 
ATOM     31  C   UNL     1     112.216 130.231 139.164  0.00  0.00    +0.000 C 
BRANCH  27  32
ATOM     32  C   UNL     1     110.172 130.488 138.442  0.00  0.00    +0.000 C 
BRANCH  32  33
ATOM     33  O   UNL     1     110.053 129.955 137.823  0.00  0.00    +0.000 OA
BRANCH  33  39
ATOM     34  O   UNL     1     109.138 130.861 137.202  0.00  0.00    +0.000 OA
ATOM     35  O   UNL     1     109.606 128.775 136.761  0.00  0.00    +0.000 OA
ATOM     36  O   UNL     1     108.467 129.089 135.609  0.00  0.00    +0.000 OA
ATOM     37  O   UNL     1     107.776 130.585 135.519  0.00  0.00    +0.000 OA
ATOM     38  C   UNL     1     109.260 129.523 136.716  0.00  0.00    +0.000 C 
ATOM     39  C   UNL     1     109.484 130.113 137.247  0.00  0.00    +0.000 C 
ATOM     40  C   UNL     1     108.691 129.680 136.140  0.00  0.00    +0.000 C 
ATOM     41  C   UNL     1     108.346 130.428 136.096  0.00  0.00    +0.000 C 
ATOM     42  C   UNL     1     108.570 131.018 136.627  0.00  0.00    +0.000 C 
ATOM     43  C   UNL     1     108.224 131.766 136.581  0.00  0.00    +0.000 C 
ENDBRANCH  33  39
ENDBRANCH  32  33
ENDBRANCH  27  32
ENDBRANCH   1  31
TORSDOF 7
ENDMDL
MODEL 9
REMARK VINA RESULT:      -9.8      1.909      5.574
REMARK  Name = 5353588
REMARK  7 active torsions:
REMARK  status: ('A' for Active; 'I' for Inactive)
REMARK    1  A    between atoms: O_3  and  C_21
REMARK    2  A    between atoms: O_3  and  C_26
REMARK    3  A    between atoms: O_6  and  C_24
REMARK    4  A    between atoms: O_6  and  C_28
REMARK    5  A    between atoms: O_14  and  C_42
REMARK    6  A    between atoms: C_16  and  C_26
REMARK    7  A    between atoms: C_35  and  C_37
REMARK                            x       y       z     vdW  Elec       q    Type
REMARK                         _______ _______ _______ _____ _____    ______ ____
ROOT
ATOM      1  O   UNL     1     108.989 129.541 135.453  0.00  0.00    +0.000 OA
ENDROOT
BRANCH   1   5
ATOM      2  O   UNL     1     110.629 127.246 136.180  0.00  0.00    +0.000 OA
ATOM      3  O   UNL     1     111.871 129.563 134.984  0.00  0.00    +0.000 OA
ATOM      4  O   UNL     1     112.652 128.409 135.357  0.00  0.00    +0.000 OA
ATOM      5  C   UNL     1     109.727 129.171 135.495  0.00  0.00    +0.000 A 
ATOM      6  C   UNL     1     109.796 128.381 135.824  0.00  0.00    +0.000 A 
ATOM      7  C   UNL     1     110.428 129.575 135.209  0.00  0.00    +0.000 A 
ATOM      8  C   UNL     1     110.568 128.005 135.863  0.00  0.00    +0.000 A 
ATOM      9  C   UNL     1     111.192 129.184 135.256  0.00  0.00    +0.000 A 
ATOM     10  C   UNL     1     111.242 128.393 135.588  0.00  0.00    +0.000 A 
ATOM     11  C   UNL     1     111.978 128.021 135.631  0.00  0.00    +0.000 A 
ATOM     12  C   UNL     1     111.365 126.875 136.223  0.00  0.00    +0.000 A 
ATOM     13  C   UNL     1     112.039 127.262 135.949  0.00  0.00    +0.000 A 
BRANCH  12  15
ATOM     14  O   UNL     1     111.337 125.128 138.486  0.00  0.00    +0.000 OA
ATOM     15  C   UNL     1     111.426 126.116 136.540  0.00  0.00    +0.000 A 
ATOM     16  C   UNL     1     111.351 126.001 137.354  0.00  0.00    +0.000 A 
ATOM     17  C   UNL     1     111.562 125.470 136.045  0.00  0.00    +0.000 A 
ATOM     18  C   UNL     1     111.412 125.243 137.672  0.00  0.00    +0.000 A 
ATOM     19  C   UNL     1     111.623 124.712 136.362  0.00  0.00    +0.000 A 
ATOM     20  C   UNL     1     111.548 124.598 137.176  0.00  0.00    +0.000 A 
BRANCH  20  21
ATOM     21  O   UNL     1     111.609 123.839 137.493  0.00  0.00    +0.000 OA
ATOM     22  C   UNL     1     111.917 123.224 137.037  0.00  0.00    +0.000 C 
ENDBRANCH  20  21
ENDBRANCH  12  15
ENDBRANCH   1   5
BRANCH   1  31
ATOM     23  O   UNL     1     109.041 130.057 136.784  0.00  0.00    +0.000 OA
ATOM     24  O   UNL     1     108.183 131.869 137.648  0.00  0.00    +0.000 OA
ATOM     25  O   UNL     1     107.678 132.001 136.083  0.00  0.00    +0.000 OA
ATOM     26  O   UNL     1     108.081 130.836 134.985  0.00  0.00    +0.000 OA
ATOM     27  C   UNL     1     108.839 130.639 137.333  0.00  0.00    +0.000 C 
ATOM     28  C   UNL     1     108.385 131.287 137.099  0.00  0.00    +0.000 C 
ATOM     29  C   UNL     1     108.133 131.352 136.317  0.00  0.00    +0.000 C 
ATOM     30  C   UNL     1     108.334 130.770 135.768  0.00  0.00    +0.000 C 
ATOM     31  C   UNL     1     108.788 130.123 136.002  0.00  0.00    +0.000 C 
BRANCH  27  32
ATOM     32  C   UNL     1     109.092 130.574 138.116  0.00  0.00    +0.000 C 
BRANCH  32  33
ATOM     33  O   UNL     1     108.876 129.917 138.566  0.00  0.00    +0.000 OA
BRANCH  33  39
ATOM     34  O   UNL     1     110.162 129.518 139.046  0.00  0.00    +0.000 OA
ATOM     35  O   UNL     1     108.246 129.700 140.075  0.00  0.00    +0.000 OA
ATOM     36  O   UNL     1     109.216 129.192 141.309  0.00  0.00    +0.000 OA
ATOM     37  O   UNL     1     110.817 128.901 141.035  0.00  0.00    +0.000 OA
ATOM     38  C   UNL     1     109.047 129.554 139.937  0.00  0.00    +0.000 C 
ATOM     39  C   UNL     1     109.362 129.663 139.183  0.00  0.00    +0.000 C 
ATOM     40  C   UNL     1     109.531 129.300 140.555  0.00  0.00    +0.000 C 
ATOM     41  C   UNL     1     110.331 129.155 140.417  0.00  0.00    +0.000 C 
ATOM     42  C   UNL     1     110.647 129.264 139.662  0.00  0.00    +0.000 C 
ATOM     43  C   UNL     1     111.447 129.119 139.525  0.00  0.00    +0.000 C 
ENDBRANCH  33  39
ENDBRANCH  32  33
ENDBRANCH  27  32
ENDBRANCH   1  31
TORSDOF 7
ENDMDL
MODEL 10
REMARK VINA RESULT:      -9.8      1.578      3.889
REMARK  Name = 5353588
REMARK  7 active torsions:
REMARK  status: ('A' for Active; 'I' for Inactive)
REMARK    1  A    between atoms: O_3  and  C_21
REMARK    2  A    between atoms: O_3  and  C_26
REMARK    3  A    between atoms: O_6  and  C_24
REMARK    4  A    between atoms: O_6  and  C_28
REMARK    5  A    between atoms: O_14  and  C_42
REMARK    6  A    between atoms: C_16  and  C_26
REMARK    7  A    between atoms: C_35  and  C_37
REMARK                            x       y       z     vdW  Elec       q    Type
REMARK                         _______ _______ _______ _____ _____    ______ ____
ROOT
ATOM      1  O   UNL     1     111.240 126.551 135.714  0.00  0.00    +0.000 OA
ENDROOT
BRANCH   1   5
ATOM      2  O   UNL     1     110.459 129.289 136.327  0.00  0.00    +0.000 OA
ATOM      3  O   UNL     1     108.430 127.343 135.663  0.00  0.00    +0.000 OA
ATOM      4  O   UNL     1     108.080 128.708 135.973  0.00  0.00    +0.000 OA
ATOM      5  C   UNL     1     110.654 127.126 135.805  0.00  0.00    +0.000 A 
ATOM      6  C   UNL     1     110.866 127.929 136.024  0.00  0.00    +0.000 A 
ATOM      7  C   UNL     1     109.828 126.923 135.682  0.00  0.00    +0.000 A 
ATOM      8  C   UNL     1     110.249 128.519 136.117  0.00  0.00    +0.000 A 
ATOM      9  C   UNL     1     109.224 127.528 135.779  0.00  0.00    +0.000 A 
ATOM     10  C   UNL     1     109.456 128.326 135.999  0.00  0.00    +0.000 A 
ATOM     11  C   UNL     1     108.873 128.902 136.091  0.00  0.00    +0.000 A 
ATOM     12  C   UNL     1     109.875 129.865 136.419  0.00  0.00    +0.000 A 
ATOM     13  C   UNL     1     109.082 129.672 136.301  0.00  0.00    +0.000 A 
BRANCH  12  15
ATOM     14  O   UNL     1     110.939 131.706 138.330  0.00  0.00    +0.000 OA
ATOM     15  C   UNL     1     110.085 130.635 136.630  0.00  0.00    +0.000 A 
ATOM     16  C   UNL     1     110.407 130.786 137.374  0.00  0.00    +0.000 A 
ATOM     17  C   UNL     1     109.973 131.254 136.097  0.00  0.00    +0.000 A 
ATOM     18  C   UNL     1     110.617 131.555 137.586  0.00  0.00    +0.000 A 
ATOM     19  C   UNL     1     110.183 132.023 136.307  0.00  0.00    +0.000 A 
ATOM     20  C   UNL     1     110.505 132.174 137.051  0.00  0.00    +0.000 A 
BRANCH  20  21
ATOM     21  O   UNL     1     110.714 132.943 137.262  0.00  0.00    +0.000 OA
ATOM     22  C   UNL     1     110.599 133.564 136.729  0.00  0.00    +0.000 C 
ENDBRANCH  20  21
ENDBRANCH  12  15
ENDBRANCH   1   5
BRANCH   1  31
ATOM     23  O   UNL     1     111.366 126.138 137.076  0.00  0.00    +0.000 OA
ATOM     24  O   UNL     1     111.559 124.148 137.953  0.00  0.00    +0.000 OA
ATOM     25  O   UNL     1     111.465 123.774 136.348  0.00  0.00    +0.000 OA
ATOM     26  O   UNL     1     111.306 124.975 135.229  0.00  0.00    +0.000 OA
ATOM     27  C   UNL     1     111.446 125.537 137.635  0.00  0.00    +0.000 C 
ATOM     28  C   UNL     1     111.479 124.749 137.393  0.00  0.00    +0.000 C 
ATOM     29  C   UNL     1     111.432 124.562 136.591  0.00  0.00    +0.000 C 
ATOM     30  C   UNL     1     111.352 125.163 136.031  0.00  0.00    +0.000 C 
ATOM     31  C   UNL     1     111.320 125.950 136.273  0.00  0.00    +0.000 C 
BRANCH  27  32
ATOM     32  C   UNL     1     111.493 125.724 138.437  0.00  0.00    +0.000 C 
BRANCH  32  33
ATOM     33  O   UNL     1     112.063 126.257 138.705  0.00  0.00    +0.000 OA
BRANCH  33  39
ATOM     34  O   UNL     1     111.363 126.509 139.925  0.00  0.00    +0.000 OA
ATOM     35  O   UNL     1     113.478 126.704 139.425  0.00  0.00    +0.000 OA
ATOM     36  O   UNL     1     113.486 127.180 141.005  0.00  0.00    +0.000 OA
ATOM     37  O   UNL     1     112.078 127.208 141.865  0.00  0.00    +0.000 OA
ATOM     38  C   UNL     1     112.774 126.718 139.855  0.00  0.00    +0.000 C 
ATOM     39  C   UNL     1     112.066 126.495 139.495  0.00  0.00    +0.000 C 
ATOM     40  C   UNL     1     112.778 126.956 140.645  0.00  0.00    +0.000 C 
ATOM     41  C   UNL     1     112.074 126.970 141.074  0.00  0.00    +0.000 C 
ATOM     42  C   UNL     1     111.366 126.747 140.714  0.00  0.00    +0.000 C 
ATOM     43  C   UNL     1     110.662 126.761 141.145  0.00  0.00    +0.000 C 
ENDBRANCH  33  39
ENDBRANCH  32  33
ENDBRANCH  27  32
ENDBRANCH   1  31
TORSDOF 7
ENDMDL
