MODEL 1
REMARK VINA RESULT:      -9.2      0.000      0.000
REMARK  Name = 73829990
REMARK  6 active torsions:
REMARK  status: ('A' for Active; 'I' for Inactive)
REMARK    1  A    between atoms: O_2  and  C_19
REMARK    2  A    between atoms: O_2  and  C_21
REMARK    3  A    between atoms: O_9  and  C_22
REMARK    4  A    between atoms: O_12  and  C_30
REMARK    5  A    between atoms: C_18  and  C_20
REMARK    6  A    between atoms: C_24  and  C_27
REMARK                            x       y       z     vdW  Elec       q    Type
REMARK                         _______ _______ _______ _____ _____    ______ ____
ROOT
ATOM      1  C   UNL     1     110.043 129.639 135.888  0.00  0.00    +0.000 A 
ATOM      2  C   UNL     1     110.825 129.466 136.083  0.00  0.00    +0.000 A 
ATOM      3  C   UNL     1     109.453 129.075 136.010  0.00  0.00    +0.000 A 
ATOM      4  C   UNL     1     110.430 128.165 136.520  0.00  0.00    +0.000 A 
ATOM      5  C   UNL     1     111.019 128.729 136.399  0.00  0.00    +0.000 A 
ATOM      6  C   UNL     1     109.646 128.338 136.326  0.00  0.00    +0.000 A 
ENDROOT
BRANCH   4  12
ATOM      7  O   UNL     1     110.892 126.793 136.322  0.00  0.00    +0.000 OA
ATOM      8  O   UNL     1     111.707 123.778 137.433  0.00  0.00    +0.000 OA
ATOM      9  O   UNL     1     111.809 123.993 136.127  0.00  0.00    +0.000 OA
ATOM     10  O   UNL     1     111.158 125.024 138.597  0.00  0.00    +0.000 OA
ATOM     11  O   UNL     1     110.700 126.375 138.812  0.00  0.00    +0.000 OA
ATOM     12  C   UNL     1     110.623 127.428 136.836  0.00  0.00    +0.000 A 
ATOM     13  C   UNL     1     111.028 125.896 137.472  0.00  0.00    +0.000 A 
ATOM     14  C   UNL     1     111.091 126.029 136.660  0.00  0.00    +0.000 A 
ATOM     15  C   UNL     1     110.557 127.288 137.682  0.00  0.00    +0.000 A 
ATOM     16  C   UNL     1     110.760 126.517 138.001  0.00  0.00    +0.000 A 
ATOM     17  C   UNL     1     111.222 125.158 137.785  0.00  0.00    +0.000 A 
ATOM     18  C   UNL     1     111.479 124.553 137.287  0.00  0.00    +0.000 A 
ATOM     19  C   UNL     1     111.543 124.686 136.475  0.00  0.00    +0.000 A 
ATOM     20  C   UNL     1     111.349 125.424 136.162  0.00  0.00    +0.000 A 
ATOM     21  C   UNL     1     111.910 123.433 136.717  0.00  0.00    +0.000 C 
BRANCH  15  22
ATOM     22  O   UNL     1     110.299 127.891 138.183  0.00  0.00    +0.000 OA
ATOM     23  C   UNL     1     110.469 127.858 138.989  0.00  0.00    +0.000 C 
ENDBRANCH  15  22
ENDBRANCH   4  12
BRANCH   2  24
ATOM     24  O   UNL     1     111.415 130.030 135.961  0.00  0.00    +0.000 OA
ATOM     25  C   UNL     1     112.208 129.804 135.956  0.00  0.00    +0.000 C 
ENDBRANCH   2  24
BRANCH   1  26
ATOM     26  O   UNL     1     109.849 130.376 135.572  0.00  0.00    +0.000 OA
BRANCH  26  35
ATOM     27  O   UNL     1     109.232 131.003 136.699  0.00  0.00    +0.000 OA
ATOM     28  O   UNL     1     107.363 131.749 135.258  0.00  0.00    +0.000 OA
ATOM     29  O   UNL     1     107.369 132.126 136.863  0.00  0.00    +0.000 OA
ATOM     30  O   UNL     1     108.603 130.874 134.612  0.00  0.00    +0.000 OA
ATOM     31  C   UNL     1     107.986 131.500 135.738  0.00  0.00    +0.000 C 
ATOM     32  C   UNL     1     107.989 131.689 136.541  0.00  0.00    +0.000 C 
ATOM     33  C   UNL     1     108.607 131.062 135.415  0.00  0.00    +0.000 C 
ATOM     34  C   UNL     1     108.611 131.440 137.021  0.00  0.00    +0.000 C 
ATOM     35  C   UNL     1     109.229 130.814 135.895  0.00  0.00    +0.000 C 
BRANCH  34  38
ATOM     36  O   UNL     1     108.999 132.311 138.085  0.00  0.00    +0.000 OA
ATOM     37  O   UNL     1     108.234 131.136 138.365  0.00  0.00    +0.000 OA
ATOM     38  C   UNL     1     108.615 131.629 137.824  0.00  0.00    +0.000 C 
ENDBRANCH  34  38
ENDBRANCH  26  35
ENDBRANCH   1  26
TORSDOF 6
ENDMDL
MODEL 2
REMARK VINA RESULT:      -9.2      1.587      6.152
REMARK  Name = 73829990
REMARK  6 active torsions:
REMARK  status: ('A' for Active; 'I' for Inactive)
REMARK    1  A    between atoms: O_2  and  C_19
REMARK    2  A    between atoms: O_2  and  C_21
REMARK    3  A    between atoms: O_9  and  C_22
REMARK    4  A    between atoms: O_12  and  C_30
REMARK    5  A    between atoms: C_18  and  C_20
REMARK    6  A    between atoms: C_24  and  C_27
REMARK                            x       y       z     vdW  Elec       q    Type
REMARK                         _______ _______ _______ _____ _____    ______ ____
ROOT
ATOM      1  C   UNL     1     112.454 127.460 136.942  0.00  0.00    +0.000 A 
ATOM      2  C   UNL     1     112.065 127.904 137.517  0.00  0.00    +0.000 A 
ATOM      3  C   UNL     1     112.177 127.455 136.164  0.00  0.00    +0.000 A 
ATOM      4  C   UNL     1     111.119 128.341 136.539  0.00  0.00    +0.000 A 
ATOM      5  C   UNL     1     111.397 128.345 137.315  0.00  0.00    +0.000 A 
ATOM      6  C   UNL     1     111.509 127.896 135.963  0.00  0.00    +0.000 A 
ENDROOT
BRANCH   4  12
ATOM      7  O   UNL     1     110.531 129.607 136.105  0.00  0.00    +0.000 OA
ATOM      8  O   UNL     1     107.952 131.513 135.268  0.00  0.00    +0.000 OA
ATOM      9  O   UNL     1     109.156 132.071 135.236  0.00  0.00    +0.000 OA
ATOM     10  O   UNL     1     107.668 129.807 135.736  0.00  0.00    +0.000 OA
ATOM     11  O   UNL     1     108.231 128.550 136.165  0.00  0.00    +0.000 OA
ATOM     12  C   UNL     1     110.451 128.782 136.338  0.00  0.00    +0.000 A 
ATOM     13  C   UNL     1     109.082 129.711 135.918  0.00  0.00    +0.000 A 
ATOM     14  C   UNL     1     109.830 130.058 135.897  0.00  0.00    +0.000 A 
ATOM     15  C   UNL     1     109.672 128.422 136.359  0.00  0.00    +0.000 A 
ATOM     16  C   UNL     1     108.983 128.889 136.147  0.00  0.00    +0.000 A 
ATOM     17  C   UNL     1     108.416 130.154 135.716  0.00  0.00    +0.000 A 
ATOM     18  C   UNL     1     108.498 130.944 135.494  0.00  0.00    +0.000 A 
ATOM     19  C   UNL     1     109.246 131.291 135.473  0.00  0.00    +0.000 A 
ATOM     20  C   UNL     1     109.912 130.848 135.675  0.00  0.00    +0.000 A 
ATOM     21  C   UNL     1     108.358 132.208 135.109  0.00  0.00    +0.000 C 
BRANCH  15  22
ATOM     22  O   UNL     1     109.586 127.632 136.580  0.00  0.00    +0.000 OA
ATOM     23  C   UNL     1     108.976 127.178 136.262  0.00  0.00    +0.000 C 
ENDBRANCH  15  22
ENDBRANCH   4  12
BRANCH   2  24
ATOM     24  O   UNL     1     112.342 127.908 138.294  0.00  0.00    +0.000 OA
ATOM     25  C   UNL     1     112.228 128.571 138.770  0.00  0.00    +0.000 C 
ENDBRANCH   2  24
BRANCH   1  26
ATOM     26  O   UNL     1     113.122 127.019 137.143  0.00  0.00    +0.000 OA
BRANCH  26  35
ATOM     27  O   UNL     1     112.495 125.735 137.111  0.00  0.00    +0.000 OA
ATOM     28  O   UNL     1     114.558 124.752 136.158  0.00  0.00    +0.000 OA
ATOM     29  O   UNL     1     113.244 123.797 136.444  0.00  0.00    +0.000 OA
ATOM     30  O   UNL     1     114.497 126.364 136.508  0.00  0.00    +0.000 OA
ATOM     31  C   UNL     1     113.870 125.080 136.476  0.00  0.00    +0.000 C 
ATOM     32  C   UNL     1     113.213 124.602 136.619  0.00  0.00    +0.000 C 
ATOM     33  C   UNL     1     113.839 125.886 136.651  0.00  0.00    +0.000 C 
ATOM     34  C   UNL     1     112.526 124.929 136.936  0.00  0.00    +0.000 C 
ATOM     35  C   UNL     1     113.153 126.213 136.968  0.00  0.00    +0.000 C 
BRANCH  34  38
ATOM     36  O   UNL     1     111.718 124.176 137.842  0.00  0.00    +0.000 OA
ATOM     37  O   UNL     1     111.363 124.249 136.459  0.00  0.00    +0.000 OA
ATOM     38  C   UNL     1     111.869 124.452 137.078  0.00  0.00    +0.000 C 
ENDBRANCH  34  38
ENDBRANCH  26  35
ENDBRANCH   1  26
TORSDOF 6
ENDMDL
MODEL 3
REMARK VINA RESULT:      -9.0      1.647      2.489
REMARK  Name = 73829990
REMARK  6 active torsions:
REMARK  status: ('A' for Active; 'I' for Inactive)
REMARK    1  A    between atoms: O_2  and  C_19
REMARK    2  A    between atoms: O_2  and  C_21
REMARK    3  A    between atoms: O_9  and  C_22
REMARK    4  A    between atoms: O_12  and  C_30
REMARK    5  A    between atoms: C_18  and  C_20
REMARK    6  A    between atoms: C_24  and  C_27
REMARK                            x       y       z     vdW  Elec       q    Type
REMARK                         _______ _______ _______ _____ _____    ______ ____
ROOT
ATOM      1  C   UNL     1     109.594 129.084 137.647  0.00  0.00    +0.000 A 
ATOM      2  C   UNL     1     109.546 128.689 136.925  0.00  0.00    +0.000 A 
ATOM      3  C   UNL     1     110.163 128.864 138.202  0.00  0.00    +0.000 A 
ATOM      4  C   UNL     1     110.637 127.851 137.312  0.00  0.00    +0.000 A 
ATOM      5  C   UNL     1     110.068 128.072 136.758  0.00  0.00    +0.000 A 
ATOM      6  C   UNL     1     110.685 128.247 138.034  0.00  0.00    +0.000 A 
ENDROOT
BRANCH   4  12
ATOM      7  O   UNL     1     110.931 126.420 137.300  0.00  0.00    +0.000 OA
ATOM      8  O   UNL     1     112.908 123.832 136.684  0.00  0.00    +0.000 OA
ATOM      9  O   UNL     1     111.711 123.573 137.196  0.00  0.00    +0.000 OA
ATOM     10  O   UNL     1     113.489 125.487 136.318  0.00  0.00    +0.000 OA
ATOM     11  O   UNL     1     113.216 126.903 136.322  0.00  0.00    +0.000 OA
ATOM     12  C   UNL     1     111.159 127.234 137.144  0.00  0.00    +0.000 A 
ATOM     13  C   UNL     1     112.225 125.945 136.803  0.00  0.00    +0.000 A 
ATOM     14  C   UNL     1     111.481 125.784 137.122  0.00  0.00    +0.000 A 
ATOM     15  C   UNL     1     111.934 127.400 136.812  0.00  0.00    +0.000 A 
ATOM     16  C   UNL     1     112.470 126.752 136.641  0.00  0.00    +0.000 A 
ATOM     17  C   UNL     1     112.745 125.326 136.637  0.00  0.00    +0.000 A 
ATOM     18  C   UNL     1     112.521 124.547 136.789  0.00  0.00    +0.000 A 
ATOM     19  C   UNL     1     111.777 124.386 137.107  0.00  0.00    +0.000 A 
ATOM     20  C   UNL     1     111.257 125.005 137.274  0.00  0.00    +0.000 A 
ATOM     21  C   UNL     1     112.409 123.231 136.935  0.00  0.00    +0.000 C 
BRANCH  15  22
ATOM     22  O   UNL     1     112.161 128.179 136.659  0.00  0.00    +0.000 OA
ATOM     23  C   UNL     1     112.711 128.339 136.066  0.00  0.00    +0.000 C 
ENDBRANCH  15  22
ENDBRANCH   4  12
BRANCH   2  24
ATOM     24  O   UNL     1     108.977 128.909 136.370  0.00  0.00    +0.000 OA
ATOM     25  C   UNL     1     108.705 128.361 135.818  0.00  0.00    +0.000 C 
ENDBRANCH   2  24
BRANCH   1  26
ATOM     26  O   UNL     1     109.072 129.701 137.815  0.00  0.00    +0.000 OA
BRANCH  26  35
ATOM     27  O   UNL     1     109.947 130.827 137.724  0.00  0.00    +0.000 OA
ATOM     28  O   UNL     1     109.036 131.705 139.852  0.00  0.00    +0.000 OA
ATOM     29  O   UNL     1     110.214 132.538 139.052  0.00  0.00    +0.000 OA
ATOM     30  O   UNL     1     108.465 130.286 139.233  0.00  0.00    +0.000 OA
ATOM     31  C   UNL     1     109.340 131.412 139.143  0.00  0.00    +0.000 C 
ATOM     32  C   UNL     1     109.929 131.829 138.743  0.00  0.00    +0.000 C 
ATOM     33  C   UNL     1     109.054 130.702 138.833  0.00  0.00    +0.000 C 
ATOM     34  C   UNL     1     110.232 131.537 138.034  0.00  0.00    +0.000 C 
ATOM     35  C   UNL     1     109.357 130.410 138.125  0.00  0.00    +0.000 C 
BRANCH  34  38
ATOM     36  O   UNL     1     110.616 132.489 137.040  0.00  0.00    +0.000 OA
ATOM     37  O   UNL     1     111.614 131.835 137.827  0.00  0.00    +0.000 OA
ATOM     38  C   UNL     1     110.821 131.953 137.634  0.00  0.00    +0.000 C 
ENDBRANCH  34  38
ENDBRANCH  26  35
ENDBRANCH   1  26
TORSDOF 6
ENDMDL
MODEL 4
REMARK VINA RESULT:      -9.0      1.346      2.284
REMARK  Name = 73829990
REMARK  6 active torsions:
REMARK  status: ('A' for Active; 'I' for Inactive)
REMARK    1  A    between atoms: O_2  and  C_19
REMARK    2  A    between atoms: O_2  and  C_21
REMARK    3  A    between atoms: O_9  and  C_22
REMARK    4  A    between atoms: O_12  and  C_30
REMARK    5  A    between atoms: C_18  and  C_20
REMARK    6  A    between atoms: C_24  and  C_27
REMARK                            x       y       z     vdW  Elec       q    Type
REMARK                         _______ _______ _______ _____ _____    ______ ____
ROOT
ATOM      1  C   UNL     1     111.561 130.096 137.043  0.00  0.00    +0.000 A 
ATOM      2  C   UNL     1     112.046 129.763 136.466  0.00  0.00    +0.000 A 
ATOM      3  C   UNL     1     111.000 129.631 137.430  0.00  0.00    +0.000 A 
ATOM      4  C   UNL     1     111.410 128.498 136.661  0.00  0.00    +0.000 A 
ATOM      5  C   UNL     1     111.971 128.964 136.275  0.00  0.00    +0.000 A 
ATOM      6  C   UNL     1     110.924 128.832 137.239  0.00  0.00    +0.000 A 
ENDROOT
BRANCH   4  12
ATOM      7  O   UNL     1     111.810 127.110 136.878  0.00  0.00    +0.000 OA
ATOM      8  O   UNL     1     111.626 123.864 136.229  0.00  0.00    +0.000 OA
ATOM      9  O   UNL     1     112.482 124.249 137.168  0.00  0.00    +0.000 OA
ATOM     10  O   UNL     1     110.588 125.003 135.315  0.00  0.00    +0.000 OA
ATOM     11  O   UNL     1     110.181 126.368 135.088  0.00  0.00    +0.000 OA
ATOM     12  C   UNL     1     111.335 127.699 136.470  0.00  0.00    +0.000 A 
ATOM     13  C   UNL     1     111.193 126.041 136.088  0.00  0.00    +0.000 A 
ATOM     14  C   UNL     1     111.724 126.280 136.672  0.00  0.00    +0.000 A 
ATOM     15  C   UNL     1     110.781 127.450 135.862  0.00  0.00    +0.000 A 
ATOM     16  C   UNL     1     110.710 126.615 135.670  0.00  0.00    +0.000 A 
ATOM     17  C   UNL     1     111.119 125.242 135.899  0.00  0.00    +0.000 A 
ATOM     18  C   UNL     1     111.578 124.681 136.294  0.00  0.00    +0.000 A 
ATOM     19  C   UNL     1     112.109 124.919 136.878  0.00  0.00    +0.000 A 
ATOM     20  C   UNL     1     112.183 125.719 137.067  0.00  0.00    +0.000 A 
ATOM     21  C   UNL     1     112.184 123.598 136.768  0.00  0.00    +0.000 C 
BRANCH  15  22
ATOM     22  O   UNL     1     110.321 128.008 135.465  0.00  0.00    +0.000 OA
ATOM     23  C   UNL     1     110.000 127.829 134.727  0.00  0.00    +0.000 C 
ENDBRANCH  15  22
ENDBRANCH   4  12
BRANCH   2  24
ATOM     24  O   UNL     1     112.607 130.228 136.079  0.00  0.00    +0.000 OA
ATOM     25  C   UNL     1     113.307 129.889 135.805  0.00  0.00    +0.000 C 
ENDBRANCH   2  24
BRANCH   1  26
ATOM     26  O   UNL     1     111.636 130.895 137.234  0.00  0.00    +0.000 OA
BRANCH  26  35
ATOM     27  O   UNL     1     110.378 131.412 136.795  0.00  0.00    +0.000 OA
ATOM     28  O   UNL     1     110.114 132.599 138.951  0.00  0.00    +0.000 OA
ATOM     29  O   UNL     1     108.945 132.720 137.794  0.00  0.00    +0.000 OA
ATOM     30  O   UNL     1     111.460 131.686 138.671  0.00  0.00    +0.000 OA
ATOM     31  C   UNL     1     110.202 132.203 138.233  0.00  0.00    +0.000 C 
ATOM     32  C   UNL     1     109.618 132.263 137.654  0.00  0.00    +0.000 C 
ATOM     33  C   UNL     1     110.876 131.747 138.092  0.00  0.00    +0.000 C 
ATOM     34  C   UNL     1     109.706 131.868 136.936  0.00  0.00    +0.000 C 
ATOM     35  C   UNL     1     110.964 131.351 137.375  0.00  0.00    +0.000 C 
BRANCH  34  38
ATOM     36  O   UNL     1     109.200 132.479 135.748  0.00  0.00    +0.000 OA
ATOM     37  O   UNL     1     108.458 131.438 136.387  0.00  0.00    +0.000 OA
ATOM     38  C   UNL     1     109.121 131.928 136.357  0.00  0.00    +0.000 C 
ENDBRANCH  34  38
ENDBRANCH  26  35
ENDBRANCH   1  26
TORSDOF 6
ENDMDL
MODEL 5
REMARK VINA RESULT:      -9.0      1.648      1.724
REMARK  Name = 73829990
REMARK  6 active torsions:
REMARK  status: ('A' for Active; 'I' for Inactive)
REMARK    1  A    between atoms: O_2  and  C_19
REMARK    2  A    between atoms: O_2  and  C_21
REMARK    3  A    between atoms: O_9  and  C_22
REMARK    4  A    between atoms: O_12  and  C_30
REMARK    5  A    between atoms: C_18  and  C_20
REMARK    6  A    between atoms: C_24  and  C_27
REMARK                            x       y       z     vdW  Elec       q    Type
REMARK                         _______ _______ _______ _____ _____    ______ ____
ROOT
ATOM      1  C   UNL     1     110.982 130.221 136.253  0.00  0.00    +0.000 A 
ATOM      2  C   UNL     1     111.734 130.304 136.583  0.00  0.00    +0.000 A 
ATOM      3  C   UNL     1     110.610 129.484 136.255  0.00  0.00    +0.000 A 
ATOM      4  C   UNL     1     111.743 128.914 136.915  0.00  0.00    +0.000 A 
ATOM      5  C   UNL     1     112.114 129.651 136.913  0.00  0.00    +0.000 A 
ATOM      6  C   UNL     1     110.990 128.831 136.585  0.00  0.00    +0.000 A 
ENDROOT
BRANCH   4  12
ATOM      7  O   UNL     1     112.672 127.795 136.776  0.00  0.00    +0.000 OA
ATOM      8  O   UNL     1     114.278 125.146 137.954  0.00  0.00    +0.000 OA
ATOM      9  O   UNL     1     114.510 125.485 136.692  0.00  0.00    +0.000 OA
ATOM     10  O   UNL     1     113.156 126.042 139.026  0.00  0.00    +0.000 OA
ATOM     11  O   UNL     1     112.235 127.141 139.182  0.00  0.00    +0.000 OA
ATOM     12  C   UNL     1     112.123 128.261 137.246  0.00  0.00    +0.000 A 
ATOM     13  C   UNL     1     112.919 126.906 137.913  0.00  0.00    +0.000 A 
ATOM     14  C   UNL     1     113.063 127.117 137.129  0.00  0.00    +0.000 A 
ATOM     15  C   UNL     1     111.973 128.041 138.063  0.00  0.00    +0.000 A 
ATOM     16  C   UNL     1     112.373 127.359 138.399  0.00  0.00    +0.000 A 
ATOM     17  C   UNL     1     113.300 126.252 138.242  0.00  0.00    +0.000 A 
ATOM     18  C   UNL     1     113.826 125.809 137.785  0.00  0.00    +0.000 A 
ATOM     19  C   UNL     1     113.970 126.020 137.001  0.00  0.00    +0.000 A 
ATOM     20  C   UNL     1     113.589 126.674 136.673  0.00  0.00    +0.000 A 
ATOM     21  C   UNL     1     114.699 124.946 137.280  0.00  0.00    +0.000 C 
BRANCH  15  22
ATOM     22  O   UNL     1     111.448 128.482 138.522  0.00  0.00    +0.000 OA
ATOM     23  C   UNL     1     111.518 128.483 139.343  0.00  0.00    +0.000 C 
ENDBRANCH  15  22
ENDBRANCH   4  12
BRANCH   2  24
ATOM     24  O   UNL     1     112.106 131.040 136.581  0.00  0.00    +0.000 OA
ATOM     25  C   UNL     1     112.901 131.101 136.789  0.00  0.00    +0.000 C 
ENDBRANCH   2  24
BRANCH   1  26
ATOM     26  O   UNL     1     110.602 130.874 135.923  0.00  0.00    +0.000 OA
BRANCH  26  35
ATOM     27  O   UNL     1     109.661 131.184 136.952  0.00  0.00    +0.000 OA
ATOM     28  O   UNL     1     107.874 131.401 135.252  0.00  0.00    +0.000 OA
ATOM     29  O   UNL     1     107.529 131.639 136.847  0.00  0.00    +0.000 OA
ATOM     30  O   UNL     1     109.411 131.018 134.790  0.00  0.00    +0.000 OA
ATOM     31  C   UNL     1     108.470 131.329 135.819  0.00  0.00    +0.000 C 
ATOM     32  C   UNL     1     108.298 131.448 136.617  0.00  0.00    +0.000 C 
ATOM     33  C   UNL     1     109.239 131.137 135.587  0.00  0.00    +0.000 C 
ATOM     34  C   UNL     1     108.892 131.376 137.182  0.00  0.00    +0.000 C 
ATOM     35  C   UNL     1     109.834 131.065 136.153  0.00  0.00    +0.000 C 
BRANCH  34  38
ATOM     36  O   UNL     1     108.810 132.244 138.314  0.00  0.00    +0.000 OA
ATOM     37  O   UNL     1     108.458 130.865 138.445  0.00  0.00    +0.000 OA
ATOM     38  C   UNL     1     108.720 131.495 137.980  0.00  0.00    +0.000 C 
ENDBRANCH  34  38
ENDBRANCH  26  35
ENDBRANCH   1  26
TORSDOF 6
ENDMDL
MODEL 6
REMARK VINA RESULT:      -8.9      2.044      6.170
REMARK  Name = 73829990
REMARK  6 active torsions:
REMARK  status: ('A' for Active; 'I' for Inactive)
REMARK    1  A    between atoms: O_2  and  C_19
REMARK    2  A    between atoms: O_2  and  C_21
REMARK    3  A    between atoms: O_9  and  C_22
REMARK    4  A    between atoms: O_12  and  C_30
REMARK    5  A    between atoms: C_18  and  C_20
REMARK    6  A    between atoms: C_24  and  C_27
REMARK                            x       y       z     vdW  Elec       q    Type
REMARK                         _______ _______ _______ _____ _____    ______ ____
ROOT
ATOM      1  C   UNL     1     113.173 127.442 136.883  0.00  0.00    +0.000 A 
ATOM      2  C   UNL     1     113.070 128.117 136.422  0.00  0.00    +0.000 A 
ATOM      3  C   UNL     1     112.834 127.399 137.634  0.00  0.00    +0.000 A 
ATOM      4  C   UNL     1     112.289 128.709 137.462  0.00  0.00    +0.000 A 
ATOM      5  C   UNL     1     112.628 128.751 136.711  0.00  0.00    +0.000 A 
ATOM      6  C   UNL     1     112.392 128.033 137.924  0.00  0.00    +0.000 A 
ENDROOT
BRANCH   4  12
ATOM      7  O   UNL     1     111.031 129.451 137.503  0.00  0.00    +0.000 OA
ATOM      8  O   UNL     1     109.124 131.942 138.571  0.00  0.00    +0.000 OA
ATOM      9  O   UNL     1     108.579 131.082 137.719  0.00  0.00    +0.000 OA
ATOM     10  O   UNL     1     110.812 131.816 139.156  0.00  0.00    +0.000 OA
ATOM     11  O   UNL     1     112.062 131.096 139.128  0.00  0.00    +0.000 OA
ATOM     12  C   UNL     1     111.847 129.343 137.751  0.00  0.00    +0.000 A 
ATOM     13  C   UNL     1     110.918 130.649 138.339  0.00  0.00    +0.000 A 
ATOM     14  C   UNL     1     110.579 130.114 137.810  0.00  0.00    +0.000 A 
ATOM     15  C   UNL     1     112.199 129.900 138.303  0.00  0.00    +0.000 A 
ATOM     16  C   UNL     1     111.731 130.557 138.598  0.00  0.00    +0.000 A 
ATOM     17  C   UNL     1     110.474 131.282 138.627  0.00  0.00    +0.000 A 
ATOM     18  C   UNL     1     109.691 131.380 138.385  0.00  0.00    +0.000 A 
ATOM     19  C   UNL     1     109.352 130.846 137.856  0.00  0.00    +0.000 A 
ATOM     20  C   UNL     1     109.796 130.213 137.568  0.00  0.00    +0.000 A 
ATOM     21  C   UNL     1     108.438 131.759 138.161  0.00  0.00    +0.000 C 
BRANCH  15  22
ATOM     22  O   UNL     1     112.982 129.805 138.546  0.00  0.00    +0.000 OA
ATOM     23  C   UNL     1     113.426 130.460 138.776  0.00  0.00    +0.000 C 
ENDBRANCH  15  22
ENDBRANCH   4  12
BRANCH   2  24
ATOM     24  O   UNL     1     113.409 128.160 135.671  0.00  0.00    +0.000 OA
ATOM     25  C   UNL     1     113.561 128.894 135.327  0.00  0.00    +0.000 C 
ENDBRANCH   2  24
BRANCH   1  26
ATOM     26  O   UNL     1     113.614 126.808 136.594  0.00  0.00    +0.000 OA
BRANCH  26  35
ATOM     27  O   UNL     1     112.534 125.888 136.424  0.00  0.00    +0.000 OA
ATOM     28  O   UNL     1     113.979 124.043 137.217  0.00  0.00    +0.000 OA
ATOM     29  O   UNL     1     112.417 123.739 136.783  0.00  0.00    +0.000 OA
ATOM     30  O   UNL     1     114.578 125.577 137.123  0.00  0.00    +0.000 OA
ATOM     31  C   UNL     1     113.497 124.658 136.953  0.00  0.00    +0.000 C 
ATOM     32  C   UNL     1     112.716 124.506 136.735  0.00  0.00    +0.000 C 
ATOM     33  C   UNL     1     113.797 125.426 136.905  0.00  0.00    +0.000 C 
ATOM     34  C   UNL     1     112.235 125.121 136.471  0.00  0.00    +0.000 C 
ATOM     35  C   UNL     1     113.316 126.040 136.641  0.00  0.00    +0.000 C 
BRANCH  34  38
ATOM     36  O   UNL     1     111.260 124.865 135.458  0.00  0.00    +0.000 OA
ATOM     37  O   UNL     1     110.866 124.923 136.831  0.00  0.00    +0.000 OA
ATOM     38  C   UNL     1     111.454 124.970 136.254  0.00  0.00    +0.000 C 
ENDBRANCH  34  38
ENDBRANCH  26  35
ENDBRANCH   1  26
TORSDOF 6
ENDMDL
MODEL 7
REMARK VINA RESULT:      -8.9      3.256      6.427
REMARK  Name = 73829990
REMARK  6 active torsions:
REMARK  status: ('A' for Active; 'I' for Inactive)
REMARK    1  A    between atoms: O_2  and  C_19
REMARK    2  A    between atoms: O_2  and  C_21
REMARK    3  A    between atoms: O_9  and  C_22
REMARK    4  A    between atoms: O_12  and  C_30
REMARK    5  A    between atoms: C_18  and  C_20
REMARK    6  A    between atoms: C_24  and  C_27
REMARK                            x       y       z     vdW  Elec       q    Type
REMARK                         _______ _______ _______ _____ _____    ______ ____
ROOT
ATOM      1  C   UNL     1     112.161 127.173 137.427  0.00  0.00    +0.000 A 
ATOM      2  C   UNL     1     112.292 127.957 137.206  0.00  0.00    +0.000 A 
ATOM      3  C   UNL     1     112.235 126.949 138.217  0.00  0.00    +0.000 A 
ATOM      4  C   UNL     1     112.572 128.294 138.566  0.00  0.00    +0.000 A 
ATOM      5  C   UNL     1     112.498 128.517 137.775  0.00  0.00    +0.000 A 
ATOM      6  C   UNL     1     112.440 127.509 138.787  0.00  0.00    +0.000 A 
ENDROOT
BRANCH   4  12
ATOM      7  O   UNL     1     113.594 129.112 139.214  0.00  0.00    +0.000 OA
ATOM      8  O   UNL     1     114.584 131.351 141.448  0.00  0.00    +0.000 OA
ATOM      9  O   UNL     1     115.511 130.842 140.646  0.00  0.00    +0.000 OA
ATOM     10  O   UNL     1     112.855 130.888 141.375  0.00  0.00    +0.000 OA
ATOM     11  O   UNL     1     111.832 130.088 140.747  0.00  0.00    +0.000 OA
ATOM     12  C   UNL     1     112.778 128.854 139.136  0.00  0.00    +0.000 A 
ATOM     13  C   UNL     1     113.223 130.012 140.308  0.00  0.00    +0.000 A 
ATOM     14  C   UNL     1     113.799 129.696 139.810  0.00  0.00    +0.000 A 
ATOM     15  C   UNL     1     112.178 129.184 139.655  0.00  0.00    +0.000 A 
ATOM     16  C   UNL     1     112.402 129.767 140.245  0.00  0.00    +0.000 A 
ATOM     17  C   UNL     1     113.431 130.572 140.877  0.00  0.00    +0.000 A 
ATOM     18  C   UNL     1     114.216 130.816 140.947  0.00  0.00    +0.000 A 
ATOM     19  C   UNL     1     114.793 130.500 140.449  0.00  0.00    +0.000 A 
ATOM     20  C   UNL     1     114.584 129.940 139.880  0.00  0.00    +0.000 A 
ATOM     21  C   UNL     1     115.383 131.367 141.262  0.00  0.00    +0.000 C 
BRANCH  15  22
ATOM     22  O   UNL     1     111.392 128.942 139.587  0.00  0.00    +0.000 OA
ATOM     23  C   UNL     1     110.784 129.443 139.829  0.00  0.00    +0.000 C 
ENDBRANCH  15  22
ENDBRANCH   4  12
BRANCH   2  24
ATOM     24  O   UNL     1     112.218 128.181 136.415  0.00  0.00    +0.000 OA
ATOM     25  C   UNL     1     112.174 128.979 136.215  0.00  0.00    +0.000 C 
ENDBRANCH   2  24
BRANCH   1  26
ATOM     26  O   UNL     1     111.955 126.613 136.857  0.00  0.00    +0.000 OA
BRANCH  26  35
ATOM     27  O   UNL     1     113.154 125.837 136.857  0.00  0.00    +0.000 OA
ATOM     28  O   UNL     1     111.810 123.760 136.788  0.00  0.00    +0.000 OA
ATOM     29  O   UNL     1     113.457 123.676 136.812  0.00  0.00    +0.000 OA
ATOM     30  O   UNL     1     111.059 125.228 136.811  0.00  0.00    +0.000 OA
ATOM     31  C   UNL     1     112.258 124.452 136.811  0.00  0.00    +0.000 C 
ATOM     32  C   UNL     1     113.082 124.411 136.823  0.00  0.00    +0.000 C 
ATOM     33  C   UNL     1     111.882 125.187 136.823  0.00  0.00    +0.000 C 
ATOM     34  C   UNL     1     113.530 125.102 136.846  0.00  0.00    +0.000 C 
ATOM     35  C   UNL     1     112.330 125.879 136.846  0.00  0.00    +0.000 C 
BRANCH  34  38
ATOM     36  O   UNL     1     114.782 125.181 136.162  0.00  0.00    +0.000 OA
ATOM     37  O   UNL     1     114.749 124.901 137.564  0.00  0.00    +0.000 OA
ATOM     38  C   UNL     1     114.353 125.061 136.858  0.00  0.00    +0.000 C 
ENDBRANCH  34  38
ENDBRANCH  26  35
ENDBRANCH   1  26
TORSDOF 6
ENDMDL
MODEL 8
REMARK VINA RESULT:      -8.9      1.537      2.303
REMARK  Name = 73829990
REMARK  6 active torsions:
REMARK  status: ('A' for Active; 'I' for Inactive)
REMARK    1  A    between atoms: O_2  and  C_19
REMARK    2  A    between atoms: O_2  and  C_21
REMARK    3  A    between atoms: O_9  and  C_22
REMARK    4  A    between atoms: O_12  and  C_30
REMARK    5  A    between atoms: C_18  and  C_20
REMARK    6  A    between atoms: C_24  and  C_27
REMARK                            x       y       z     vdW  Elec       q    Type
REMARK                         _______ _______ _______ _____ _____    ______ ____
ROOT
ATOM      1  C   UNL     1     111.000 130.082 137.302  0.00  0.00    +0.000 A 
ATOM      2  C   UNL     1     111.676 129.982 136.840  0.00  0.00    +0.000 A 
ATOM      3  C   UNL     1     110.629 129.426 137.639  0.00  0.00    +0.000 A 
ATOM      4  C   UNL     1     111.610 128.569 137.049  0.00  0.00    +0.000 A 
ATOM      5  C   UNL     1     111.980 129.226 136.714  0.00  0.00    +0.000 A 
ATOM      6  C   UNL     1     110.933 128.670 137.512  0.00  0.00    +0.000 A 
ENDROOT
BRANCH   4  12
ATOM      7  O   UNL     1     112.600 127.543 137.366  0.00  0.00    +0.000 OA
ATOM      8  O   UNL     1     113.943 124.538 136.976  0.00  0.00    +0.000 OA
ATOM      9  O   UNL     1     114.508 125.345 137.866  0.00  0.00    +0.000 OA
ATOM     10  O   UNL     1     112.515 124.995 135.997  0.00  0.00    +0.000 OA
ATOM     11  O   UNL     1     111.530 125.997 135.671  0.00  0.00    +0.000 OA
ATOM     12  C   UNL     1     111.914 127.813 136.923  0.00  0.00    +0.000 A 
ATOM     13  C   UNL     1     112.559 126.252 136.674  0.00  0.00    +0.000 A 
ATOM     14  C   UNL     1     112.910 126.754 137.227  0.00  0.00    +0.000 A 
ATOM     15  C   UNL     1     111.550 127.290 136.347  0.00  0.00    +0.000 A 
ATOM     16  C   UNL     1     111.874 126.505 136.222  0.00  0.00    +0.000 A 
ATOM     17  C   UNL     1     112.866 125.496 136.550  0.00  0.00    +0.000 A 
ATOM     18  C   UNL     1     113.523 125.242 136.978  0.00  0.00    +0.000 A 
ATOM     19  C   UNL     1     113.874 125.744 137.531  0.00  0.00    +0.000 A 
ATOM     20  C   UNL     1     113.567 126.499 137.656  0.00  0.00    +0.000 A 
ATOM     21  C   UNL     1     114.551 124.602 137.524  0.00  0.00    +0.000 C 
BRANCH  15  22
ATOM     22  O   UNL     1     110.892 127.541 135.916  0.00  0.00    +0.000 OA
ATOM     23  C   UNL     1     110.742 127.226 135.170  0.00  0.00    +0.000 C 
ENDBRANCH  15  22
ENDBRANCH   4  12
BRANCH   2  24
ATOM     24  O   UNL     1     112.047 130.637 136.504  0.00  0.00    +0.000 OA
ATOM     25  C   UNL     1     112.868 130.651 136.424  0.00  0.00    +0.000 C 
ENDBRANCH   2  24
BRANCH   1  26
ATOM     26  O   UNL     1     110.696 130.838 137.429  0.00  0.00    +0.000 OA
BRANCH  26  35
ATOM     27  O   UNL     1     109.554 130.711 136.579  0.00  0.00    +0.000 OA
ATOM     28  O   UNL     1     108.211 132.031 138.186  0.00  0.00    +0.000 OA
ATOM     29  O   UNL     1     107.518 131.464 136.801  0.00  0.00    +0.000 OA
ATOM     30  O   UNL     1     109.801 131.718 138.500  0.00  0.00    +0.000 OA
ATOM     31  C   UNL     1     108.659 131.591 137.650  0.00  0.00    +0.000 C 
ATOM     32  C   UNL     1     108.312 131.307 136.958  0.00  0.00    +0.000 C 
ATOM     33  C   UNL     1     109.454 131.434 137.807  0.00  0.00    +0.000 C 
ATOM     34  C   UNL     1     108.759 130.867 136.423  0.00  0.00    +0.000 C 
ATOM     35  C   UNL     1     109.901 130.995 137.273  0.00  0.00    +0.000 C 
BRANCH  34  38
ATOM     36  O   UNL     1     108.501 131.002 135.024  0.00  0.00    +0.000 OA
ATOM     37  O   UNL     1     107.979 129.882 135.743  0.00  0.00    +0.000 OA
ATOM     38  C   UNL     1     108.413 130.583 135.730  0.00  0.00    +0.000 C 
ENDBRANCH  34  38
ENDBRANCH  26  35
ENDBRANCH   1  26
TORSDOF 6
ENDMDL
MODEL 9
REMARK VINA RESULT:      -8.8      1.691      2.476
REMARK  Name = 73829990
REMARK  6 active torsions:
REMARK  status: ('A' for Active; 'I' for Inactive)
REMARK    1  A    between atoms: O_2  and  C_19
REMARK    2  A    between atoms: O_2  and  C_21
REMARK    3  A    between atoms: O_9  and  C_22
REMARK    4  A    between atoms: O_12  and  C_30
REMARK    5  A    between atoms: C_18  and  C_20
REMARK    6  A    between atoms: C_24  and  C_27
REMARK                            x       y       z     vdW  Elec       q    Type
REMARK                         _______ _______ _______ _____ _____    ______ ____
ROOT
ATOM      1  C   UNL     1     111.340 130.232 136.483  0.00  0.00    +0.000 A 
ATOM      2  C   UNL     1     111.208 129.722 135.849  0.00  0.00    +0.000 A 
ATOM      3  C   UNL     1     111.790 129.982 137.128  0.00  0.00    +0.000 A 
ATOM      4  C   UNL     1     111.976 128.710 136.504  0.00  0.00    +0.000 A 
ATOM      5  C   UNL     1     111.526 128.960 135.860  0.00  0.00    +0.000 A 
ATOM      6  C   UNL     1     112.108 129.221 137.138  0.00  0.00    +0.000 A 
ENDROOT
BRANCH   4  12
ATOM      7  O   UNL     1     111.791 127.271 136.684  0.00  0.00    +0.000 OA
ATOM      8  O   UNL     1     112.912 124.153 136.764  0.00  0.00    +0.000 OA
ATOM      9  O   UNL     1     111.622 124.341 137.010  0.00  0.00    +0.000 OA
ATOM     10  O   UNL     1     114.051 125.487 136.397  0.00  0.00    +0.000 OA
ATOM     11  O   UNL     1     114.252 126.903 136.215  0.00  0.00    +0.000 OA
ATOM     12  C   UNL     1     112.294 127.948 136.514  0.00  0.00    +0.000 A 
ATOM     13  C   UNL     1     112.934 126.366 136.540  0.00  0.00    +0.000 A 
ATOM     14  C   UNL     1     112.132 126.483 136.693  0.00  0.00    +0.000 A 
ATOM     15  C   UNL     1     113.129 127.826 136.354  0.00  0.00    +0.000 A 
ATOM     16  C   UNL     1     113.451 127.029 136.367  0.00  0.00    +0.000 A 
ATOM     17  C   UNL     1     113.249 125.604 136.550  0.00  0.00    +0.000 A 
ATOM     18  C   UNL     1     112.762 124.958 136.715  0.00  0.00    +0.000 A 
ATOM     19  C   UNL     1     111.960 125.075 136.868  0.00  0.00    +0.000 A 
ATOM     20  C   UNL     1     111.645 125.837 136.857  0.00  0.00    +0.000 A 
ATOM     21  C   UNL     1     112.209 123.773 136.946  0.00  0.00    +0.000 C 
BRANCH  15  22
ATOM     22  O   UNL     1     113.619 128.469 136.190  0.00  0.00    +0.000 OA
ATOM     23  C   UNL     1     114.269 128.377 135.691  0.00  0.00    +0.000 C 
ENDBRANCH  15  22
ENDBRANCH   4  12
BRANCH   2  24
ATOM     24  O   UNL     1     110.758 129.971 135.204  0.00  0.00    +0.000 OA
ATOM     25  C   UNL     1     110.552 129.436 134.612  0.00  0.00    +0.000 C 
ENDBRANCH   2  24
BRANCH   1  26
ATOM     26  O   UNL     1     111.022 130.993 136.473  0.00  0.00    +0.000 OA
BRANCH  26  35
ATOM     27  O   UNL     1     110.049 130.783 137.499  0.00  0.00    +0.000 OA
ATOM     28  O   UNL     1     110.423 133.086 138.324  0.00  0.00    +0.000 OA
ATOM     29  O   UNL     1     109.326 132.109 139.074  0.00  0.00    +0.000 OA
ATOM     30  O   UNL     1     111.271 132.529 137.023  0.00  0.00    +0.000 OA
ATOM     31  C   UNL     1     110.298 132.319 138.049  0.00  0.00    +0.000 C 
ATOM     32  C   UNL     1     109.750 131.829 138.424  0.00  0.00    +0.000 C 
ATOM     33  C   UNL     1     110.722 132.039 137.398  0.00  0.00    +0.000 C 
ATOM     34  C   UNL     1     109.626 131.062 138.149  0.00  0.00    +0.000 C 
ATOM     35  C   UNL     1     110.598 131.272 137.123  0.00  0.00    +0.000 C 
BRANCH  34  38
ATOM     36  O   UNL     1     108.307 130.517 138.231  0.00  0.00    +0.000 OA
ATOM     37  O   UNL     1     109.298 130.140 139.190  0.00  0.00    +0.000 OA
ATOM     38  C   UNL     1     109.077 130.573 138.523  0.00  0.00    +0.000 C 
ENDBRANCH  34  38
ENDBRANCH  26  35
ENDBRANCH   1  26
TORSDOF 6
ENDMDL
MODEL 10
REMARK VINA RESULT:      -8.8      2.060      6.564
REMARK  Name = 73829990
REMARK  6 active torsions:
REMARK  status: ('A' for Active; 'I' for Inactive)
REMARK    1  A    between atoms: O_2  and  C_19
REMARK    2  A    between atoms: O_2  and  C_21
REMARK    3  A    between atoms: O_9  and  C_22
REMARK    4  A    between atoms: O_12  and  C_30
REMARK    5  A    between atoms: C_18  and  C_20
REMARK    6  A    between atoms: C_24  and  C_27
REMARK                            x       y       z     vdW  Elec       q    Type
REMARK                         _______ _______ _______ _____ _____    ______ ____
ROOT
ATOM      1  C   UNL     1     111.965 126.730 138.264  0.00  0.00    +0.000 A 
ATOM      2  C   UNL     1     112.188 127.275 138.840  0.00  0.00    +0.000 A 
ATOM      3  C   UNL     1     111.710 126.991 137.524  0.00  0.00    +0.000 A 
ATOM      4  C   UNL     1     111.901 128.346 137.939  0.00  0.00    +0.000 A 
ATOM      5  C   UNL     1     112.156 128.083 138.678  0.00  0.00    +0.000 A 
ATOM      6  C   UNL     1     111.678 127.799 137.361  0.00  0.00    +0.000 A 
ENDROOT
BRANCH   4  12
ATOM      7  O   UNL     1     111.177 129.613 137.996  0.00  0.00    +0.000 OA
ATOM      8  O   UNL     1     110.893 132.864 137.415  0.00  0.00    +0.000 OA
ATOM      9  O   UNL     1     109.875 132.264 138.019  0.00  0.00    +0.000 OA
ATOM     10  O   UNL     1     112.384 132.009 136.911  0.00  0.00    +0.000 OA
ATOM     11  O   UNL     1     113.114 130.766 136.845  0.00  0.00    +0.000 OA
ATOM     12  C   UNL     1     111.870 129.154 137.776  0.00  0.00    +0.000 A 
ATOM     13  C   UNL     1     111.786 130.827 137.448  0.00  0.00    +0.000 A 
ATOM     14  C   UNL     1     111.153 130.454 137.823  0.00  0.00    +0.000 A 
ATOM     15  C   UNL     1     112.528 129.543 137.385  0.00  0.00    +0.000 A 
ATOM     16  C   UNL     1     112.486 130.385 137.220  0.00  0.00    +0.000 A 
ATOM     17  C   UNL     1     111.751 131.636 137.286  0.00  0.00    +0.000 A 
ATOM     18  C   UNL     1     111.084 132.071 137.500  0.00  0.00    +0.000 A 
ATOM     19  C   UNL     1     110.451 131.698 137.876  0.00  0.00    +0.000 A 
ATOM     20  C   UNL     1     110.485 130.890 138.037  0.00  0.00    +0.000 A 
ATOM     21  C   UNL     1     110.147 132.983 137.735  0.00  0.00    +0.000 C 
BRANCH  15  22
ATOM     22  O   UNL     1     113.197 129.111 137.170  0.00  0.00    +0.000 OA
ATOM     23  C   UNL     1     113.716 129.408 136.602  0.00  0.00    +0.000 C 
ENDBRANCH  15  22
ENDBRANCH   4  12
BRANCH   2  24
ATOM     24  O   UNL     1     112.443 127.013 139.580  0.00  0.00    +0.000 OA
ATOM     25  C   UNL     1     112.356 127.497 140.242  0.00  0.00    +0.000 C 
ENDBRANCH   2  24
BRANCH   1  26
ATOM     26  O   UNL     1     111.997 125.921 138.426  0.00  0.00    +0.000 OA
BRANCH  26  35
ATOM     27  O   UNL     1     113.167 125.539 137.701  0.00  0.00    +0.000 OA
ATOM     28  O   UNL     1     111.943 123.616 136.739  0.00  0.00    +0.000 OA
ATOM     29  O   UNL     1     113.521 123.875 136.335  0.00  0.00    +0.000 OA
ATOM     30  O   UNL     1     111.180 124.639 137.785  0.00  0.00    +0.000 OA
ATOM     31  C   UNL     1     112.351 124.257 137.059  0.00  0.00    +0.000 C 
ATOM     32  C   UNL     1     113.140 124.387 136.858  0.00  0.00    +0.000 C 
ATOM     33  C   UNL     1     111.970 124.769 137.583  0.00  0.00    +0.000 C 
ATOM     34  C   UNL     1     113.548 125.028 137.178  0.00  0.00    +0.000 C 
ATOM     35  C   UNL     1     112.377 125.410 137.903  0.00  0.00    +0.000 C 
BRANCH  34  38
ATOM     36  O   UNL     1     114.939 124.866 137.460  0.00  0.00    +0.000 OA
ATOM     37  O   UNL     1     114.524 125.579 136.292  0.00  0.00    +0.000 OA
ATOM     38  C   UNL     1     114.337 125.158 136.977  0.00  0.00    +0.000 C 
ENDBRANCH  34  38
ENDBRANCH  26  35
ENDBRANCH   1  26
TORSDOF 6
ENDMDL
