MODEL 1
REMARK VINA RESULT:     -10.2      0.000      0.000
REMARK  Name = 131833695
REMARK  6 active torsions:
REMARK  status: ('A' for Active; 'I' for Inactive)
REMARK    1  A    between atoms: O_3  and  C_22
REMARK    2  A    between atoms: O_3  and  C_34
REMARK    3  A    between atoms: O_15  and  C_38
REMARK    4  A    between atoms: C_20  and  C_26
REMARK    5  A    between atoms: C_21  and  C_28
REMARK    6  A    between atoms: C_37  and  C_39
REMARK                            x       y       z     vdW  Elec       q    Type
REMARK                         _______ _______ _______ _____ _____    ______ ____
ROOT
ATOM      1  O   UNL     1     112.542 129.494 141.515  0.00  0.00    +0.000 OA
ATOM      2  O   UNL     1     113.590 132.003 142.509  0.00  0.00    +0.000 OA
ATOM      3  O   UNL     1     111.204 130.908 143.639  0.00  0.00    +0.000 OA
ATOM      4  O   UNL     1     114.289 131.326 141.444  0.00  0.00    +0.000 OA
ATOM      5  C   UNL     1     112.397 131.455 143.074  0.00  0.00    +0.000 A 
ATOM      6  C   UNL     1     113.019 131.408 142.535  0.00  0.00    +0.000 A 
ATOM      7  C   UNL     1     111.826 130.860 143.100  0.00  0.00    +0.000 A 
ATOM      8  C   UNL     1     113.071 130.764 142.020  0.00  0.00    +0.000 A 
ATOM      9  C   UNL     1     112.500 130.169 142.045  0.00  0.00    +0.000 A 
ATOM     10  C   UNL     1     111.878 130.217 142.585  0.00  0.00    +0.000 A 
ATOM     11  C   UNL     1     113.723 130.725 141.463  0.00  0.00    +0.000 A 
ATOM     12  C   UNL     1     113.188 129.439 140.951  0.00  0.00    +0.000 A 
ATOM     13  C   UNL     1     113.782 130.058 140.924  0.00  0.00    +0.000 A 
ENDROOT
BRANCH   5  18
ATOM     14  O   UNL     1     112.704 132.064 144.330  0.00  0.00    +0.000 OA
ATOM     15  O   UNL     1     111.577 132.812 142.618  0.00  0.00    +0.000 OA
ATOM     16  O   UNL     1     111.474 134.099 143.646  0.00  0.00    +0.000 OA
ATOM     17  O   UNL     1     112.192 134.028 145.130  0.00  0.00    +0.000 OA
ATOM     18  C   UNL     1     112.346 132.098 143.588  0.00  0.00    +0.000 C 
ATOM     19  C   UNL     1     111.936 132.777 143.360  0.00  0.00    +0.000 C 
ATOM     20  C   UNL     1     111.884 133.420 143.874  0.00  0.00    +0.000 C 
ATOM     21  C   UNL     1     112.653 132.707 144.844  0.00  0.00    +0.000 C 
ATOM     22  C   UNL     1     112.243 133.385 144.616  0.00  0.00    +0.000 C 
ATOM     23  C   UNL     1     113.012 132.671 145.586  0.00  0.00    +0.000 C 
ENDBRANCH   5  18
BRANCH  12  26
ATOM     24  C   UNL     1     113.334 127.506 139.412  0.00  0.00    +0.000 A 
ATOM     25  C   UNL     1     113.700 127.474 140.150  0.00  0.00    +0.000 A 
ATOM     26  C   UNL     1     113.237 128.795 140.438  0.00  0.00    +0.000 A 
ATOM     27  C   UNL     1     112.920 128.183 139.186  0.00  0.00    +0.000 A 
ATOM     28  C   UNL     1     113.651 128.118 140.663  0.00  0.00    +0.000 A 
ATOM     29  C   UNL     1     112.871 128.827 139.699  0.00  0.00    +0.000 A 
BRANCH  25  30
ATOM     30  O   UNL     1     114.115 126.797 140.377  0.00  0.00    +0.000 OA
ATOM     31  C   UNL     1     114.693 126.844 140.962  0.00  0.00    +0.000 C 
ENDBRANCH  25  30
BRANCH  24  32
ATOM     32  O   UNL     1     113.383 126.862 138.899  0.00  0.00    +0.000 OA
BRANCH  32  41
ATOM     33  O   UNL     1     112.034 126.400 138.993  0.00  0.00    +0.000 OA
ATOM     34  O   UNL     1     111.991 126.029 136.546  0.00  0.00    +0.000 OA
ATOM     35  O   UNL     1     110.657 125.691 137.454  0.00  0.00    +0.000 OA
ATOM     36  O   UNL     1     113.354 126.615 137.267  0.00  0.00    +0.000 OA
ATOM     37  C   UNL     1     112.005 126.153 137.361  0.00  0.00    +0.000 C 
ATOM     38  C   UNL     1     111.338 125.984 137.816  0.00  0.00    +0.000 C 
ATOM     39  C   UNL     1     112.688 126.446 137.722  0.00  0.00    +0.000 C 
ATOM     40  C   UNL     1     111.353 126.108 138.631  0.00  0.00    +0.000 C 
ATOM     41  C   UNL     1     112.702 126.569 138.538  0.00  0.00    +0.000 C 
BRANCH  40  44
ATOM     42  O   UNL     1     110.641 125.228 139.503  0.00  0.00    +0.000 OA
ATOM     43  O   UNL     1     110.064 126.480 139.125  0.00  0.00    +0.000 OA
ATOM     44  C   UNL     1     110.686 125.939 139.086  0.00  0.00    +0.000 C 
ENDBRANCH  40  44
ENDBRANCH  32  41
ENDBRANCH  24  32
ENDBRANCH  12  26
TORSDOF 6
ENDMDL
MODEL 2
REMARK VINA RESULT:     -10.2      1.426      7.409
REMARK  Name = 131833695
REMARK  6 active torsions:
REMARK  status: ('A' for Active; 'I' for Inactive)
REMARK    1  A    between atoms: O_3  and  C_22
REMARK    2  A    between atoms: O_3  and  C_34
REMARK    3  A    between atoms: O_15  and  C_38
REMARK    4  A    between atoms: C_20  and  C_26
REMARK    5  A    between atoms: C_21  and  C_28
REMARK    6  A    between atoms: C_37  and  C_39
REMARK                            x       y       z     vdW  Elec       q    Type
REMARK                         _______ _______ _______ _____ _____    ______ ____
ROOT
ATOM      1  O   UNL     1     112.813 128.551 139.620  0.00  0.00    +0.000 OA
ATOM      2  O   UNL     1     112.509 125.691 139.294  0.00  0.00    +0.000 OA
ATOM      3  O   UNL     1     113.376 127.292 137.091  0.00  0.00    +0.000 OA
ATOM      4  O   UNL     1     112.218 126.284 140.576  0.00  0.00    +0.000 OA
ATOM      5  C   UNL     1     112.942 126.492 138.193  0.00  0.00    +0.000 A 
ATOM      6  C   UNL     1     112.704 126.429 138.979  0.00  0.00    +0.000 A 
ATOM      7  C   UNL     1     113.137 127.230 137.878  0.00  0.00    +0.000 A 
ATOM      8  C   UNL     1     112.660 127.103 139.452  0.00  0.00    +0.000 A 
ATOM      9  C   UNL     1     112.855 127.842 139.138  0.00  0.00    +0.000 A 
ATOM     10  C   UNL     1     113.093 127.904 138.351  0.00  0.00    +0.000 A 
ATOM     11  C   UNL     1     112.410 127.026 140.271  0.00  0.00    +0.000 A 
ATOM     12  C   UNL     1     112.565 128.492 140.441  0.00  0.00    +0.000 A 
ATOM     13  C   UNL     1     112.363 127.724 140.768  0.00  0.00    +0.000 A 
ENDROOT
BRANCH   5  18
ATOM     14  O   UNL     1     112.324 125.564 137.298  0.00  0.00    +0.000 OA
ATOM     15  O   UNL     1     114.356 125.647 138.090  0.00  0.00    +0.000 OA
ATOM     16  O   UNL     1     114.445 124.298 137.144  0.00  0.00    +0.000 OA
ATOM     17  O   UNL     1     113.119 123.793 136.302  0.00  0.00    +0.000 OA
ATOM     18  C   UNL     1     112.986 125.818 137.720  0.00  0.00    +0.000 C 
ATOM     19  C   UNL     1     113.693 125.395 137.668  0.00  0.00    +0.000 C 
ATOM     20  C   UNL     1     113.738 124.720 137.196  0.00  0.00    +0.000 C 
ATOM     21  C   UNL     1     112.368 124.890 136.825  0.00  0.00    +0.000 C 
ATOM     22  C   UNL     1     113.075 124.468 136.774  0.00  0.00    +0.000 C 
ATOM     23  C   UNL     1     111.705 124.638 136.404  0.00  0.00    +0.000 C 
ENDBRANCH   5  18
BRANCH  12  26
ATOM     24  C   UNL     1     112.436 130.521 141.852  0.00  0.00    +0.000 A 
ATOM     25  C   UNL     1     113.165 130.266 141.562  0.00  0.00    +0.000 A 
ATOM     26  C   UNL     1     112.522 129.168 140.911  0.00  0.00    +0.000 A 
ATOM     27  C   UNL     1     111.750 130.099 141.673  0.00  0.00    +0.000 A 
ATOM     28  C   UNL     1     113.208 129.590 141.092  0.00  0.00    +0.000 A 
ATOM     29  C   UNL     1     111.793 129.423 141.202  0.00  0.00    +0.000 A 
BRANCH  25  30
ATOM     30  O   UNL     1     113.851 130.688 141.742  0.00  0.00    +0.000 OA
ATOM     31  C   UNL     1     114.453 130.755 141.182  0.00  0.00    +0.000 C 
ENDBRANCH  25  30
BRANCH  24  32
ATOM     32  O   UNL     1     112.393 131.197 142.323  0.00  0.00    +0.000 OA
BRANCH  32  41
ATOM     33  O   UNL     1     111.997 130.544 143.530  0.00  0.00    +0.000 OA
ATOM     34  O   UNL     1     110.520 132.453 144.078  0.00  0.00    +0.000 OA
ATOM     35  O   UNL     1     110.616 131.165 145.102  0.00  0.00    +0.000 OA
ATOM     36  O   UNL     1     111.409 132.471 142.688  0.00  0.00    +0.000 OA
ATOM     37  C   UNL     1     111.012 131.818 143.896  0.00  0.00    +0.000 C 
ATOM     38  C   UNL     1     111.060 131.173 144.408  0.00  0.00    +0.000 C 
ATOM     39  C   UNL     1     111.457 131.826 143.200  0.00  0.00    +0.000 C 
ATOM     40  C   UNL     1     111.552 130.536 144.225  0.00  0.00    +0.000 C 
ATOM     41  C   UNL     1     111.949 131.189 143.018  0.00  0.00    +0.000 C 
BRANCH  40  44
ATOM     42  O   UNL     1     112.178 129.875 145.327  0.00  0.00    +0.000 OA
ATOM     43  O   UNL     1     111.072 129.263 144.660  0.00  0.00    +0.000 OA
ATOM     44  C   UNL     1     111.600 129.891 144.737  0.00  0.00    +0.000 C 
ENDBRANCH  40  44
ENDBRANCH  32  41
ENDBRANCH  24  32
ENDBRANCH  12  26
TORSDOF 6
ENDMDL
MODEL 3
REMARK VINA RESULT:     -10.0      1.482      2.676
REMARK  Name = 131833695
REMARK  6 active torsions:
REMARK  status: ('A' for Active; 'I' for Inactive)
REMARK    1  A    between atoms: O_3  and  C_22
REMARK    2  A    between atoms: O_3  and  C_34
REMARK    3  A    between atoms: O_15  and  C_38
REMARK    4  A    between atoms: C_20  and  C_26
REMARK    5  A    between atoms: C_21  and  C_28
REMARK    6  A    between atoms: C_37  and  C_39
REMARK                            x       y       z     vdW  Elec       q    Type
REMARK                         _______ _______ _______ _____ _____    ______ ____
ROOT
ATOM      1  O   UNL     1     112.550 131.590 142.496  0.00  0.00    +0.000 OA
ATOM      2  O   UNL     1     111.299 131.070 145.054  0.00  0.00    +0.000 OA
ATOM      3  O   UNL     1     112.124 133.724 144.385  0.00  0.00    +0.000 OA
ATOM      4  O   UNL     1     111.495 129.975 144.136  0.00  0.00    +0.000 OA
ATOM      5  C   UNL     1     111.712 132.397 144.719  0.00  0.00    +0.000 A 
ATOM      6  C   UNL     1     111.643 131.599 144.522  0.00  0.00    +0.000 A 
ATOM      7  C   UNL     1     112.055 132.926 144.187  0.00  0.00    +0.000 A 
ATOM      8  C   UNL     1     111.917 131.330 143.792  0.00  0.00    +0.000 A 
ATOM      9  C   UNL     1     112.260 131.858 143.259  0.00  0.00    +0.000 A 
ATOM     10  C   UNL     1     112.329 132.656 143.457  0.00  0.00    +0.000 A 
ATOM     11  C   UNL     1     111.840 130.496 143.597  0.00  0.00    +0.000 A 
ATOM     12  C   UNL     1     112.480 130.760 142.285  0.00  0.00    +0.000 A 
ATOM     13  C   UNL     1     112.123 130.210 142.839  0.00  0.00    +0.000 A 
ENDROOT
BRANCH   5  18
ATOM     14  O   UNL     1     111.926 132.630 146.113  0.00  0.00    +0.000 OA
ATOM     15  O   UNL     1     110.185 133.008 144.853  0.00  0.00    +0.000 OA
ATOM     16  O   UNL     1     109.636 133.547 146.312  0.00  0.00    +0.000 OA
ATOM     17  O   UNL     1     110.614 133.474 147.639  0.00  0.00    +0.000 OA
ATOM     18  C   UNL     1     111.438 132.666 145.449  0.00  0.00    +0.000 C 
ATOM     19  C   UNL     1     110.674 132.972 145.516  0.00  0.00    +0.000 C 
ATOM     20  C   UNL     1     110.399 133.241 146.246  0.00  0.00    +0.000 C 
ATOM     21  C   UNL     1     111.652 132.900 146.843  0.00  0.00    +0.000 C 
ATOM     22  C   UNL     1     110.889 133.205 146.909  0.00  0.00    +0.000 C 
ATOM     23  C   UNL     1     112.141 132.863 147.506  0.00  0.00    +0.000 C 
ENDBRANCH   5  18
BRANCH  12  26
ATOM     24  C   UNL     1     113.305 129.960 140.093  0.00  0.00    +0.000 A 
ATOM     25  C   UNL     1     113.839 130.230 140.660  0.00  0.00    +0.000 A 
ATOM     26  C   UNL     1     112.755 130.493 141.554  0.00  0.00    +0.000 A 
ATOM     27  C   UNL     1     112.496 129.957 140.255  0.00  0.00    +0.000 A 
ATOM     28  C   UNL     1     113.564 130.496 141.391  0.00  0.00    +0.000 A 
ATOM     29  C   UNL     1     112.221 130.223 140.985  0.00  0.00    +0.000 A 
BRANCH  25  30
ATOM     30  O   UNL     1     114.648 130.233 140.498  0.00  0.00    +0.000 OA
ATOM     31  C   UNL     1     115.123 130.845 140.782  0.00  0.00    +0.000 C 
ENDBRANCH  25  30
BRANCH  24  32
ATOM     32  O   UNL     1     113.580 129.694 139.362  0.00  0.00    +0.000 OA
BRANCH  32  41
ATOM     33  O   UNL     1     113.424 128.286 139.549  0.00  0.00    +0.000 OA
ATOM     34  O   UNL     1     112.478 128.088 137.271  0.00  0.00    +0.000 OA
ATOM     35  O   UNL     1     112.636 126.747 138.217  0.00  0.00    +0.000 OA
ATOM     36  O   UNL     1     112.949 129.562 137.842  0.00  0.00    +0.000 OA
ATOM     37  C   UNL     1     112.793 128.154 138.029  0.00  0.00    +0.000 C 
ATOM     38  C   UNL     1     112.872 127.483 138.503  0.00  0.00    +0.000 C 
ATOM     39  C   UNL     1     113.029 128.891 138.316  0.00  0.00    +0.000 C 
ATOM     40  C   UNL     1     113.187 127.549 139.263  0.00  0.00    +0.000 C 
ATOM     41  C   UNL     1     113.344 128.957 139.075  0.00  0.00    +0.000 C 
BRANCH  40  44
ATOM     42  O   UNL     1     112.611 126.577 140.136  0.00  0.00    +0.000 OA
ATOM     43  O   UNL     1     114.001 126.510 139.811  0.00  0.00    +0.000 OA
ATOM     44  C   UNL     1     113.267 126.879 139.737  0.00  0.00    +0.000 C 
ENDBRANCH  40  44
ENDBRANCH  32  41
ENDBRANCH  24  32
ENDBRANCH  12  26
TORSDOF 6
ENDMDL
MODEL 4
REMARK VINA RESULT:     -10.0      0.913      1.352
REMARK  Name = 131833695
REMARK  6 active torsions:
REMARK  status: ('A' for Active; 'I' for Inactive)
REMARK    1  A    between atoms: O_3  and  C_22
REMARK    2  A    between atoms: O_3  and  C_34
REMARK    3  A    between atoms: O_15  and  C_38
REMARK    4  A    between atoms: C_20  and  C_26
REMARK    5  A    between atoms: C_21  and  C_28
REMARK    6  A    between atoms: C_37  and  C_39
REMARK                            x       y       z     vdW  Elec       q    Type
REMARK                         _______ _______ _______ _____ _____    ______ ____
ROOT
ATOM      1  O   UNL     1     112.087 129.742 140.892  0.00  0.00    +0.000 OA
ATOM      2  O   UNL     1     113.426 131.640 142.619  0.00  0.00    +0.000 OA
ATOM      3  O   UNL     1     110.680 130.990 143.075  0.00  0.00    +0.000 OA
ATOM      4  O   UNL     1     114.165 131.037 141.537  0.00  0.00    +0.000 OA
ATOM      5  C   UNL     1     112.053 131.315 142.847  0.00  0.00    +0.000 A 
ATOM      6  C   UNL     1     112.747 131.220 142.412  0.00  0.00    +0.000 A 
ATOM      7  C   UNL     1     111.374 130.894 142.639  0.00  0.00    +0.000 A 
ATOM      8  C   UNL     1     112.762 130.704 141.768  0.00  0.00    +0.000 A 
ATOM      9  C   UNL     1     112.083 130.283 141.560  0.00  0.00    +0.000 A 
ATOM     10  C   UNL     1     111.389 130.378 141.996  0.00  0.00    +0.000 A 
ATOM     11  C   UNL     1     113.491 130.612 141.322  0.00  0.00    +0.000 A 
ATOM     12  C   UNL     1     112.807 129.639 140.435  0.00  0.00    +0.000 A 
ATOM     13  C   UNL     1     113.513 130.076 140.651  0.00  0.00    +0.000 A 
ENDROOT
BRANCH   5  18
ATOM     14  O   UNL     1     112.213 131.554 144.247  0.00  0.00    +0.000 OA
ATOM     15  O   UNL     1     111.670 132.904 142.621  0.00  0.00    +0.000 OA
ATOM     16  O   UNL     1     111.640 133.937 143.907  0.00  0.00    +0.000 OA
ATOM     17  O   UNL     1     111.992 133.380 145.420  0.00  0.00    +0.000 OA
ATOM     18  C   UNL     1     112.038 131.831 143.490  0.00  0.00    +0.000 C 
ATOM     19  C   UNL     1     111.846 132.626 143.377  0.00  0.00    +0.000 C 
ATOM     20  C   UNL     1     111.831 133.142 144.020  0.00  0.00    +0.000 C 
ATOM     21  C   UNL     1     112.198 132.070 144.890  0.00  0.00    +0.000 C 
ATOM     22  C   UNL     1     112.007 132.864 144.776  0.00  0.00    +0.000 C 
ATOM     23  C   UNL     1     112.374 131.792 145.646  0.00  0.00    +0.000 C 
ENDBRANCH   5  18
BRANCH  12  26
ATOM     24  C   UNL     1     112.844 128.088 138.506  0.00  0.00    +0.000 A 
ATOM     25  C   UNL     1     112.568 128.859 138.410  0.00  0.00    +0.000 A 
ATOM     26  C   UNL     1     112.820 129.122 139.792  0.00  0.00    +0.000 A 
ATOM     27  C   UNL     1     113.108 127.833 139.245  0.00  0.00    +0.000 A 
ATOM     28  C   UNL     1     112.556 129.376 139.053  0.00  0.00    +0.000 A 
ATOM     29  C   UNL     1     113.096 128.350 139.888  0.00  0.00    +0.000 A 
BRANCH  25  30
ATOM     30  O   UNL     1     112.304 129.114 137.671  0.00  0.00    +0.000 OA
ATOM     31  C   UNL     1     112.306 129.918 137.486  0.00  0.00    +0.000 C 
ENDBRANCH  25  30
BRANCH  24  32
ATOM     32  O   UNL     1     112.857 127.572 137.863  0.00  0.00    +0.000 OA
BRANCH  32  41
ATOM     33  O   UNL     1     111.770 126.735 138.265  0.00  0.00    +0.000 OA
ATOM     34  O   UNL     1     113.003 124.746 137.458  0.00  0.00    +0.000 OA
ATOM     35  O   UNL     1     111.507 124.572 138.129  0.00  0.00    +0.000 OA
ATOM     36  O   UNL     1     113.679 126.245 137.325  0.00  0.00    +0.000 OA
ATOM     37  C   UNL     1     112.592 125.408 137.727  0.00  0.00    +0.000 C 
ATOM     38  C   UNL     1     111.844 125.322 138.062  0.00  0.00    +0.000 C 
ATOM     39  C   UNL     1     112.930 126.159 137.660  0.00  0.00    +0.000 C 
ATOM     40  C   UNL     1     111.433 125.985 138.331  0.00  0.00    +0.000 C 
ATOM     41  C   UNL     1     112.520 126.822 137.929  0.00  0.00    +0.000 C 
BRANCH  40  44
ATOM     42  O   UNL     1     110.011 126.069 138.220  0.00  0.00    +0.000 OA
ATOM     43  O   UNL     1     110.608 125.643 139.447  0.00  0.00    +0.000 OA
ATOM     44  C   UNL     1     110.684 125.899 138.667  0.00  0.00    +0.000 C 
ENDBRANCH  40  44
ENDBRANCH  32  41
ENDBRANCH  24  32
ENDBRANCH  12  26
TORSDOF 6
ENDMDL
MODEL 5
REMARK VINA RESULT:     -10.0      8.097      9.506
REMARK  Name = 131833695
REMARK  6 active torsions:
REMARK  status: ('A' for Active; 'I' for Inactive)
REMARK    1  A    between atoms: O_3  and  C_22
REMARK    2  A    between atoms: O_3  and  C_34
REMARK    3  A    between atoms: O_15  and  C_38
REMARK    4  A    between atoms: C_20  and  C_26
REMARK    5  A    between atoms: C_21  and  C_28
REMARK    6  A    between atoms: C_37  and  C_39
REMARK                            x       y       z     vdW  Elec       q    Type
REMARK                         _______ _______ _______ _____ _____    ______ ____
ROOT
ATOM      1  O   UNL     1     104.645 128.549 143.191  0.00  0.00    +0.000 OA
ATOM      2  O   UNL     1     104.018 131.373 143.306  0.00  0.00    +0.000 OA
ATOM      3  O   UNL     1     102.874 129.742 141.257  0.00  0.00    +0.000 OA
ATOM      4  O   UNL     1     104.909 130.814 144.293  0.00  0.00    +0.000 OA
ATOM      5  C   UNL     1     103.446 130.557 142.282  0.00  0.00    +0.000 A 
ATOM      6  C   UNL     1     103.929 130.636 142.945  0.00  0.00    +0.000 A 
ATOM      7  C   UNL     1     103.358 129.821 141.920  0.00  0.00    +0.000 A 
ATOM      8  C   UNL     1     104.325 129.979 143.247  0.00  0.00    +0.000 A 
ATOM      9  C   UNL     1     104.238 129.242 142.886  0.00  0.00    +0.000 A 
ATOM     10  C   UNL     1     103.754 129.163 142.223  0.00  0.00    +0.000 A 
ATOM     11  C   UNL     1     104.827 130.073 143.939  0.00  0.00    +0.000 A 
ATOM     12  C   UNL     1     105.150 128.626 143.882  0.00  0.00    +0.000 A 
ATOM     13  C   UNL     1     105.242 129.392 144.258  0.00  0.00    +0.000 A 
ENDROOT
BRANCH   5  18
ATOM     14  O   UNL     1     102.307 131.421 142.273  0.00  0.00    +0.000 OA
ATOM     15  O   UNL     1     104.139 131.462 141.089  0.00  0.00    +0.000 OA
ATOM     16  O   UNL     1     103.348 132.777 140.484  0.00  0.00    +0.000 OA
ATOM     17  O   UNL     1     101.863 133.188 141.073  0.00  0.00    +0.000 OA
ATOM     18  C   UNL     1     103.050 131.215 141.980  0.00  0.00    +0.000 C 
ATOM     19  C   UNL     1     103.397 131.667 141.383  0.00  0.00    +0.000 C 
ATOM     20  C   UNL     1     103.001 132.325 141.081  0.00  0.00    +0.000 C 
ATOM     21  C   UNL     1     101.911 132.079 141.971  0.00  0.00    +0.000 C 
ATOM     22  C   UNL     1     102.259 132.530 141.375  0.00  0.00    +0.000 C 
ATOM     23  C   UNL     1     101.168 132.284 142.265  0.00  0.00    +0.000 C 
ENDBRANCH   5  18
BRANCH  12  26
ATOM     24  C   UNL     1     106.335 126.647 144.782  0.00  0.00    +0.000 A 
ATOM     25  C   UNL     1     106.457 126.881 144.000  0.00  0.00    +0.000 A 
ATOM     26  C   UNL     1     105.545 127.966 144.182  0.00  0.00    +0.000 A 
ATOM     27  C   UNL     1     105.818 127.073 145.264  0.00  0.00    +0.000 A 
ATOM     28  C   UNL     1     106.062 127.540 143.700  0.00  0.00    +0.000 A 
ATOM     29  C   UNL     1     105.423 127.733 144.964  0.00  0.00    +0.000 A 
BRANCH  25  30
ATOM     30  O   UNL     1     106.973 126.455 143.518  0.00  0.00    +0.000 OA
ATOM     31  C   UNL     1     107.156 126.732 142.763  0.00  0.00    +0.000 C 
ENDBRANCH  25  30
BRANCH  24  32
ATOM     32  O   UNL     1     106.730 125.988 145.082  0.00  0.00    +0.000 OA
BRANCH  32  41
ATOM     33  O   UNL     1     105.618 125.140 145.378  0.00  0.00    +0.000 OA
ATOM     34  O   UNL     1     106.621 124.592 147.573  0.00  0.00    +0.000 OA
ATOM     35  O   UNL     1     105.176 123.927 147.138  0.00  0.00    +0.000 OA
ATOM     36  O   UNL     1     107.399 125.622 146.546  0.00  0.00    +0.000 OA
ATOM     37  C   UNL     1     106.287 124.774 146.842  0.00  0.00    +0.000 C 
ATOM     38  C   UNL     1     105.564 124.442 146.623  0.00  0.00    +0.000 C 
ATOM     39  C   UNL     1     106.676 125.290 146.327  0.00  0.00    +0.000 C 
ATOM     40  C   UNL     1     105.230 124.625 145.892  0.00  0.00    +0.000 C 
ATOM     41  C   UNL     1     106.342 125.473 145.596  0.00  0.00    +0.000 C 
BRANCH  40  44
ATOM     42  O   UNL     1     104.489 123.641 145.167  0.00  0.00    +0.000 OA
ATOM     43  O   UNL     1     103.803 124.611 145.961  0.00  0.00    +0.000 OA
ATOM     44  C   UNL     1     104.507 124.293 145.673  0.00  0.00    +0.000 C 
ENDBRANCH  40  44
ENDBRANCH  32  41
ENDBRANCH  24  32
ENDBRANCH  12  26
TORSDOF 6
ENDMDL
MODEL 6
REMARK VINA RESULT:      -9.9      1.468      7.438
REMARK  Name = 131833695
REMARK  6 active torsions:
REMARK  status: ('A' for Active; 'I' for Inactive)
REMARK    1  A    between atoms: O_3  and  C_22
REMARK    2  A    between atoms: O_3  and  C_34
REMARK    3  A    between atoms: O_15  and  C_38
REMARK    4  A    between atoms: C_20  and  C_26
REMARK    5  A    between atoms: C_21  and  C_28
REMARK    6  A    between atoms: C_37  and  C_39
REMARK                            x       y       z     vdW  Elec       q    Type
REMARK                         _______ _______ _______ _____ _____    ______ ____
ROOT
ATOM      1  O   UNL     1     112.062 128.332 140.733  0.00  0.00    +0.000 OA
ATOM      2  O   UNL     1     112.054 125.765 139.396  0.00  0.00    +0.000 OA
ATOM      3  O   UNL     1     113.407 127.984 138.209  0.00  0.00    +0.000 OA
ATOM      4  O   UNL     1     111.369 125.898 140.659  0.00  0.00    +0.000 OA
ATOM      5  C   UNL     1     112.730 126.875 138.803  0.00  0.00    +0.000 A 
ATOM      6  C   UNL     1     112.281 126.557 139.418  0.00  0.00    +0.000 A 
ATOM      7  C   UNL     1     112.958 127.667 138.824  0.00  0.00    +0.000 A 
ATOM      8  C   UNL     1     112.059 127.033 140.054  0.00  0.00    +0.000 A 
ATOM      9  C   UNL     1     112.287 127.826 140.076  0.00  0.00    +0.000 A 
ATOM     10  C   UNL     1     112.736 128.143 139.461  0.00  0.00    +0.000 A 
ATOM     11  C   UNL     1     111.591 126.692 140.689  0.00  0.00    +0.000 A 
ATOM     12  C   UNL     1     111.594 128.007 141.376  0.00  0.00    +0.000 A 
ATOM     13  C   UNL     1     111.357 127.182 141.354  0.00  0.00    +0.000 A 
ENDROOT
BRANCH   5  18
ATOM     14  O   UNL     1     113.647 125.957 138.203  0.00  0.00    +0.000 OA
ATOM     15  O   UNL     1     111.782 126.806 137.454  0.00  0.00    +0.000 OA
ATOM     16  O   UNL     1     112.225 125.854 136.181  0.00  0.00    +0.000 OA
ATOM     17  O   UNL     1     113.617 124.972 136.257  0.00  0.00    +0.000 OA
ATOM     18  C   UNL     1     112.952 126.399 138.167  0.00  0.00    +0.000 C 
ATOM     19  C   UNL     1     112.478 126.364 137.492  0.00  0.00    +0.000 C 
ATOM     20  C   UNL     1     112.699 125.889 136.855  0.00  0.00    +0.000 C 
ATOM     21  C   UNL     1     113.869 125.481 137.567  0.00  0.00    +0.000 C 
ATOM     22  C   UNL     1     113.395 125.447 136.893  0.00  0.00    +0.000 C 
ATOM     23  C   UNL     1     114.565 125.040 137.605  0.00  0.00    +0.000 C 
ENDBRANCH   5  18
BRANCH  12  26
ATOM     24  C   UNL     1     110.933 129.442 143.282  0.00  0.00    +0.000 A 
ATOM     25  C   UNL     1     110.402 129.304 142.666  0.00  0.00    +0.000 A 
ATOM     26  C   UNL     1     111.373 128.485 142.011  0.00  0.00    +0.000 A 
ATOM     27  C   UNL     1     111.684 129.101 143.264  0.00  0.00    +0.000 A 
ATOM     28  C   UNL     1     110.623 128.826 142.031  0.00  0.00    +0.000 A 
ATOM     29  C   UNL     1     111.905 128.623 142.629  0.00  0.00    +0.000 A 
BRANCH  25  30
ATOM     30  O   UNL     1     109.651 129.645 142.684  0.00  0.00    +0.000 OA
ATOM     31  C   UNL     1     109.032 129.303 142.260  0.00  0.00    +0.000 C 
ENDBRANCH  25  30
BRANCH  24  32
ATOM     32  O   UNL     1     110.712 129.920 143.917  0.00  0.00    +0.000 OA
BRANCH  32  41
ATOM     33  O   UNL     1     111.451 131.090 143.560  0.00  0.00    +0.000 OA
ATOM     34  O   UNL     1     112.065 131.426 145.934  0.00  0.00    +0.000 OA
ATOM     35  O   UNL     1     112.599 132.483 144.787  0.00  0.00    +0.000 OA
ATOM     36  O   UNL     1     111.122 130.144 145.500  0.00  0.00    +0.000 OA
ATOM     37  C   UNL     1     111.861 131.314 145.143  0.00  0.00    +0.000 C 
ATOM     38  C   UNL     1     112.127 131.843 144.569  0.00  0.00    +0.000 C 
ATOM     39  C   UNL     1     111.389 130.673 144.926  0.00  0.00    +0.000 C 
ATOM     40  C   UNL     1     111.923 131.731 143.778  0.00  0.00    +0.000 C 
ATOM     41  C   UNL     1     111.184 130.561 144.135  0.00  0.00    +0.000 C 
BRANCH  40  44
ATOM     42  O   UNL     1     111.707 132.884 142.962  0.00  0.00    +0.000 OA
ATOM     43  O   UNL     1     112.938 132.163 142.869  0.00  0.00    +0.000 OA
ATOM     44  C   UNL     1     112.189 132.259 143.203  0.00  0.00    +0.000 C 
ENDBRANCH  40  44
ENDBRANCH  32  41
ENDBRANCH  24  32
ENDBRANCH  12  26
TORSDOF 6
ENDMDL
MODEL 7
REMARK VINA RESULT:      -9.8      4.275      7.434
REMARK  Name = 131833695
REMARK  6 active torsions:
REMARK  status: ('A' for Active; 'I' for Inactive)
REMARK    1  A    between atoms: O_3  and  C_22
REMARK    2  A    between atoms: O_3  and  C_34
REMARK    3  A    between atoms: O_15  and  C_38
REMARK    4  A    between atoms: C_20  and  C_26
REMARK    5  A    between atoms: C_21  and  C_28
REMARK    6  A    between atoms: C_37  and  C_39
REMARK                            x       y       z     vdW  Elec       q    Type
REMARK                         _______ _______ _______ _____ _____    ______ ____
ROOT
ATOM      1  O   UNL     1     110.164 126.080 139.337  0.00  0.00    +0.000 OA
ATOM      2  O   UNL     1     113.033 126.400 139.117  0.00  0.00    +0.000 OA
ATOM      3  O   UNL     1     111.537 125.398 136.897  0.00  0.00    +0.000 OA
ATOM      4  O   UNL     1     112.382 126.753 140.355  0.00  0.00    +0.000 OA
ATOM      5  C   UNL     1     112.285 125.899 138.007  0.00  0.00    +0.000 A 
ATOM      6  C   UNL     1     112.312 126.180 138.782  0.00  0.00    +0.000 A 
ATOM      7  C   UNL     1     111.563 125.679 137.672  0.00  0.00    +0.000 A 
ATOM      8  C   UNL     1     111.617 126.241 139.222  0.00  0.00    +0.000 A 
ATOM      9  C   UNL     1     110.895 126.021 138.888  0.00  0.00    +0.000 A 
ATOM     10  C   UNL     1     110.869 125.740 138.113  0.00  0.00    +0.000 A 
ATOM     11  C   UNL     1     111.656 126.535 140.029  0.00  0.00    +0.000 A 
ATOM     12  C   UNL     1     110.186 126.372 140.145  0.00  0.00    +0.000 A 
ATOM     13  C   UNL     1     110.936 126.601 140.493  0.00  0.00    +0.000 A 
ENDROOT
BRANCH   5  18
ATOM     14  O   UNL     1     113.448 125.162 137.625  0.00  0.00    +0.000 OA
ATOM     15  O   UNL     1     112.738 127.131 137.007  0.00  0.00    +0.000 OA
ATOM     16  O   UNL     1     114.128 127.010 136.126  0.00  0.00    +0.000 OA
ATOM     17  O   UNL     1     115.064 125.657 136.245  0.00  0.00    +0.000 OA
ATOM     18  C   UNL     1     112.979 125.838 137.567  0.00  0.00    +0.000 C 
ATOM     19  C   UNL     1     113.206 126.454 137.067  0.00  0.00    +0.000 C 
ATOM     20  C   UNL     1     113.901 126.394 136.626  0.00  0.00    +0.000 C 
ATOM     21  C   UNL     1     114.143 125.102 137.185  0.00  0.00    +0.000 C 
ATOM     22  C   UNL     1     114.369 125.717 136.686  0.00  0.00    +0.000 C 
ATOM     23  C   UNL     1     114.611 124.425 137.245  0.00  0.00    +0.000 C 
ENDBRANCH   5  18
BRANCH  12  26
ATOM     24  C   UNL     1     108.096 126.551 141.459  0.00  0.00    +0.000 A 
ATOM     25  C   UNL     1     108.410 127.219 141.090  0.00  0.00    +0.000 A 
ATOM     26  C   UNL     1     109.489 126.432 140.583  0.00  0.00    +0.000 A 
ATOM     27  C   UNL     1     108.479 125.823 141.390  0.00  0.00    +0.000 A 
ATOM     28  C   UNL     1     109.106 127.159 140.652  0.00  0.00    +0.000 A 
ATOM     29  C   UNL     1     109.175 125.763 140.952  0.00  0.00    +0.000 A 
BRANCH  25  30
ATOM     30  O   UNL     1     108.027 127.947 141.159  0.00  0.00    +0.000 OA
ATOM     31  C   UNL     1     108.468 128.643 141.192  0.00  0.00    +0.000 C 
ENDBRANCH  25  30
BRANCH  24  32
ATOM     32  O   UNL     1     107.400 126.611 141.897  0.00  0.00    +0.000 OA
BRANCH  32  41
ATOM     33  O   UNL     1     106.532 125.833 141.070  0.00  0.00    +0.000 OA
ATOM     34  O   UNL     1     105.611 124.723 143.082  0.00  0.00    +0.000 OA
ATOM     35  O   UNL     1     105.051 124.315 141.586  0.00  0.00    +0.000 OA
ATOM     36  O   UNL     1     106.785 125.871 143.239  0.00  0.00    +0.000 OA
ATOM     37  C   UNL     1     105.918 125.092 142.412  0.00  0.00    +0.000 C 
ATOM     38  C   UNL     1     105.638 124.889 141.663  0.00  0.00    +0.000 C 
ATOM     39  C   UNL     1     106.506 125.667 142.490  0.00  0.00    +0.000 C 
ATOM     40  C   UNL     1     105.945 125.259 140.993  0.00  0.00    +0.000 C 
ATOM     41  C   UNL     1     106.813 126.037 141.819  0.00  0.00    +0.000 C 
BRANCH  40  44
ATOM     42  O   UNL     1     105.116 125.540 139.863  0.00  0.00    +0.000 OA
ATOM     43  O   UNL     1     105.934 124.367 139.876  0.00  0.00    +0.000 OA
ATOM     44  C   UNL     1     105.665 125.055 140.244  0.00  0.00    +0.000 C 
ENDBRANCH  40  44
ENDBRANCH  32  41
ENDBRANCH  24  32
ENDBRANCH  12  26
TORSDOF 6
ENDMDL
