MODEL 1
REMARK VINA RESULT:     -10.0      0.000      0.000
REMARK  Name = 74819370
REMARK  10 active torsions:
REMARK  status: ('A' for Active; 'I' for Inactive)
REMARK    1  A    between atoms: O_1  and  C_18
REMARK    2  A    between atoms: O_1  and  C_21
REMARK    3  A    between atoms: O_4  and  C_22
REMARK    4  A    between atoms: O_4  and  C_30
REMARK    5  A    between atoms: O_10  and  C_28
REMARK    6  A    between atoms: O_10  and  C_36
REMARK    7  A    between atoms: C_23  and  C_28
REMARK    8  A    between atoms: C_36  and  C_41
REMARK    9  A    between atoms: C_37  and  C_40
REMARK   10  A    between atoms: C_41  and  C_44
REMARK                            x       y       z     vdW  Elec       q    Type
REMARK                         _______ _______ _______ _____ _____    ______ ____
ROOT
ATOM      1  O   UNL     1     105.665 126.946 143.468  0.00  0.00    +0.000 OA
ATOM      2  O   UNL     1     106.437 127.515 145.750  0.00  0.00    +0.000 OA
ATOM      3  O   UNL     1     105.688 128.657 144.823  0.00  0.00    +0.000 OA
ATOM      4  C   UNL     1     106.297 126.564 144.692  0.00  0.00    +0.000 C 
ATOM      5  C   UNL     1     106.179 127.325 144.989  0.00  0.00    +0.000 C 
ATOM      6  C   UNL     1     105.805 127.896 144.526  0.00  0.00    +0.000 C 
ATOM      7  C   UNL     1     106.039 126.374 143.931  0.00  0.00    +0.000 C 
ATOM      8  C   UNL     1     105.548 127.706 143.765  0.00  0.00    +0.000 C 
ENDROOT
BRANCH   4   9
ATOM      9  O   UNL     1     106.671 125.994 145.155  0.00  0.00    +0.000 OA
BRANCH   9  14
ATOM     10  O   UNL     1     105.426 125.558 145.706  0.00  0.00    +0.000 OA
ATOM     11  O   UNL     1     107.473 125.292 146.415  0.00  0.00    +0.000 OA
ATOM     12  O   UNL     1     106.629 124.506 147.596  0.00  0.00    +0.000 OA
ATOM     13  O   UNL     1     104.984 124.422 147.516  0.00  0.00    +0.000 OA
ATOM     14  C   UNL     1     106.249 125.601 145.746  0.00  0.00    +0.000 C 
ATOM     15  C   UNL     1     106.650 125.250 146.375  0.00  0.00    +0.000 C 
ATOM     16  C   UNL     1     106.228 124.857 146.966  0.00  0.00    +0.000 C 
ATOM     17  C   UNL     1     105.405 124.815 146.926  0.00  0.00    +0.000 C 
ATOM     18  C   UNL     1     105.004 125.166 146.296  0.00  0.00    +0.000 C 
ATOM     19  C   UNL     1     104.181 125.124 146.256  0.00  0.00    +0.000 C 
ENDBRANCH   9  14
ENDBRANCH   4   9
BRANCH   7  20
ATOM     20  O   UNL     1     106.156 125.614 143.634  0.00  0.00    +0.000 OA
BRANCH  20  24
ATOM     21  O   UNL     1     105.256 124.819 140.981  0.00  0.00    +0.000 OA
ATOM     22  O   UNL     1     107.974 125.730 141.350  0.00  0.00    +0.000 OA
ATOM     23  O   UNL     1     107.493 125.328 140.051  0.00  0.00    +0.000 OA
ATOM     24  C   UNL     1     106.307 125.504 142.831  0.00  0.00    +0.000 A 
ATOM     25  C   UNL     1     105.688 125.211 142.311  0.00  0.00    +0.000 A 
ATOM     26  C   UNL     1     107.083 125.680 142.507  0.00  0.00    +0.000 A 
ATOM     27  C   UNL     1     105.854 125.100 141.475  0.00  0.00    +0.000 A 
ATOM     28  C   UNL     1     106.599 125.269 141.165  0.00  0.00    +0.000 A 
ATOM     29  C   UNL     1     107.230 125.562 141.669  0.00  0.00    +0.000 A 
ATOM     30  C   UNL     1     105.404 124.708 140.177  0.00  0.00    +0.000 C 
ATOM     31  C   UNL     1     106.149 124.877 139.867  0.00  0.00    +0.000 C 
ATOM     32  C   UNL     1     106.747 125.158 140.361  0.00  0.00    +0.000 C 
BRANCH  30  34
ATOM     33  O   UNL     1     103.012 123.585 138.199  0.00  0.00    +0.000 OA
ATOM     34  C   UNL     1     104.806 124.427 139.682  0.00  0.00    +0.000 A 
ATOM     35  C   UNL     1     104.655 123.617 139.636  0.00  0.00    +0.000 A 
ATOM     36  C   UNL     1     104.358 124.957 139.235  0.00  0.00    +0.000 A 
ATOM     37  C   UNL     1     104.058 123.337 139.142  0.00  0.00    +0.000 A 
ATOM     38  C   UNL     1     103.760 124.676 138.740  0.00  0.00    +0.000 A 
ATOM     39  C   UNL     1     103.610 123.866 138.694  0.00  0.00    +0.000 A 
ENDBRANCH  30  34
ENDBRANCH  20  24
ENDBRANCH   7  20
BRANCH   8  40
ATOM     40  C   UNL     1     105.173 128.277 143.302  0.00  0.00    +0.000 C 
BRANCH  40  41
ATOM     41  O   UNL     1     104.798 128.060 142.601  0.00  0.00    +0.000 OA
BRANCH  41  43
ATOM     42  O   UNL     1     105.215 129.123 141.743  0.00  0.00    +0.000 OA
ATOM     43  C   UNL     1     104.620 128.631 142.033  0.00  0.00    +0.000 C 
BRANCH  43  44
ATOM     44  C   UNL     1     103.847 128.711 141.756  0.00  0.00    +0.000 C 
BRANCH  44  47
ATOM     45  O   UNL     1     103.889 128.024 140.504  0.00  0.00    +0.000 OA
ATOM     46  O   UNL     1     103.352 129.346 140.576  0.00  0.00    +0.000 OA
ATOM     47  C   UNL     1     103.696 128.693 140.946  0.00  0.00    +0.000 C 
ENDBRANCH  44  47
ENDBRANCH  43  44
ENDBRANCH  41  43
ENDBRANCH  40  41
ENDBRANCH   8  40
TORSDOF 10
ENDMDL
MODEL 2
REMARK VINA RESULT:     -10.0      7.846      9.823
REMARK  Name = 74819370
REMARK  10 active torsions:
REMARK  status: ('A' for Active; 'I' for Inactive)
REMARK    1  A    between atoms: O_1  and  C_18
REMARK    2  A    between atoms: O_1  and  C_21
REMARK    3  A    between atoms: O_4  and  C_22
REMARK    4  A    between atoms: O_4  and  C_30
REMARK    5  A    between atoms: O_10  and  C_28
REMARK    6  A    between atoms: O_10  and  C_36
REMARK    7  A    between atoms: C_23  and  C_28
REMARK    8  A    between atoms: C_36  and  C_41
REMARK    9  A    between atoms: C_37  and  C_40
REMARK   10  A    between atoms: C_41  and  C_44
REMARK                            x       y       z     vdW  Elec       q    Type
REMARK                         _______ _______ _______ _____ _____    ______ ____
ROOT
ATOM      1  O   UNL     1     113.342 128.052 139.025  0.00  0.00    +0.000 OA
ATOM      2  O   UNL     1     112.306 125.942 139.801  0.00  0.00    +0.000 OA
ATOM      3  O   UNL     1     113.192 126.860 140.848  0.00  0.00    +0.000 OA
ATOM      4  C   UNL     1     112.554 126.890 138.760  0.00  0.00    +0.000 C 
ATOM      5  C   UNL     1     112.652 126.645 139.543  0.00  0.00    +0.000 C 
ATOM      6  C   UNL     1     113.094 127.105 140.065  0.00  0.00    +0.000 C 
ATOM      7  C   UNL     1     112.900 127.593 138.501  0.00  0.00    +0.000 C 
ATOM      8  C   UNL     1     113.440 127.808 139.807  0.00  0.00    +0.000 C 
ENDROOT
BRANCH   4   9
ATOM      9  O   UNL     1     112.112 126.430 138.237  0.00  0.00    +0.000 OA
BRANCH   9  14
ATOM     10  O   UNL     1     113.284 125.714 137.841  0.00  0.00    +0.000 OA
ATOM     11  O   UNL     1     111.169 125.295 137.498  0.00  0.00    +0.000 OA
ATOM     12  O   UNL     1     111.870 124.012 136.733  0.00  0.00    +0.000 OA
ATOM     13  O   UNL     1     113.513 123.864 136.706  0.00  0.00    +0.000 OA
ATOM     14  C   UNL     1     112.463 125.788 137.854  0.00  0.00    +0.000 C 
ATOM     15  C   UNL     1     111.991 125.221 137.485  0.00  0.00    +0.000 C 
ATOM     16  C   UNL     1     112.342 124.579 137.102  0.00  0.00    +0.000 C 
ATOM     17  C   UNL     1     113.163 124.505 137.089  0.00  0.00    +0.000 C 
ATOM     18  C   UNL     1     113.634 125.073 137.459  0.00  0.00    +0.000 C 
ATOM     19  C   UNL     1     114.456 124.999 137.446  0.00  0.00    +0.000 C 
ENDBRANCH   9  14
ENDBRANCH   4   9
BRANCH   7  20
ATOM     20  O   UNL     1     112.802 127.837 137.720  0.00  0.00    +0.000 OA
BRANCH  20  24
ATOM     21  O   UNL     1     111.005 130.127 137.619  0.00  0.00    +0.000 OA
ATOM     22  O   UNL     1     113.754 130.434 136.781  0.00  0.00    +0.000 OA
ATOM     23  O   UNL     1     112.835 131.546 136.745  0.00  0.00    +0.000 OA
ATOM     24  C   UNL     1     112.666 128.633 137.550  0.00  0.00    +0.000 A 
ATOM     25  C   UNL     1     111.887 128.975 137.676  0.00  0.00    +0.000 A 
ATOM     26  C   UNL     1     113.301 129.126 137.247  0.00  0.00    +0.000 A 
ATOM     27  C   UNL     1     111.754 129.804 137.496  0.00  0.00    +0.000 A 
ATOM     28  C   UNL     1     112.364 130.277 137.205  0.00  0.00    +0.000 A 
ATOM     29  C   UNL     1     113.149 129.953 137.073  0.00  0.00    +0.000 A 
ATOM     30  C   UNL     1     110.865 130.922 137.450  0.00  0.00    +0.000 C 
ATOM     31  C   UNL     1     111.475 131.395 137.159  0.00  0.00    +0.000 C 
ATOM     32  C   UNL     1     112.225 131.072 137.036  0.00  0.00    +0.000 C 
BRANCH  30  34
ATOM     33  O   UNL     1     107.868 132.212 137.939  0.00  0.00    +0.000 OA
ATOM     34  C   UNL     1     110.116 131.245 137.572  0.00  0.00    +0.000 A 
ATOM     35  C   UNL     1     109.925 131.579 138.302  0.00  0.00    +0.000 A 
ATOM     36  C   UNL     1     109.558 131.232 136.964  0.00  0.00    +0.000 A 
ATOM     37  C   UNL     1     109.176 131.902 138.423  0.00  0.00    +0.000 A 
ATOM     38  C   UNL     1     108.808 131.555 137.087  0.00  0.00    +0.000 A 
ATOM     39  C   UNL     1     108.617 131.890 137.816  0.00  0.00    +0.000 A 
ENDBRANCH  30  34
ENDBRANCH  20  24
ENDBRANCH   7  20
BRANCH   8  40
ATOM     40  C   UNL     1     113.882 128.267 140.331  0.00  0.00    +0.000 C 
BRANCH  40  41
ATOM     41  O   UNL     1     113.753 129.079 140.379  0.00  0.00    +0.000 OA
BRANCH  41  43
ATOM     42  O   UNL     1     115.104 129.309 140.785  0.00  0.00    +0.000 OA
ATOM     43  C   UNL     1     114.323 129.569 140.719  0.00  0.00    +0.000 C 
BRANCH  43  44
ATOM     44  C   UNL     1     114.114 130.318 140.993  0.00  0.00    +0.000 C 
BRANCH  44  47
ATOM     45  O   UNL     1     114.954 131.417 141.353  0.00  0.00    +0.000 OA
ATOM     46  O   UNL     1     114.615 131.195 139.983  0.00  0.00    +0.000 OA
ATOM     47  C   UNL     1     114.561 130.976 140.777  0.00  0.00    +0.000 C 
ENDBRANCH  44  47
ENDBRANCH  43  44
ENDBRANCH  41  43
ENDBRANCH  40  41
ENDBRANCH   8  40
TORSDOF 10
ENDMDL
MODEL 3
REMARK VINA RESULT:      -9.9      2.514      4.920
REMARK  Name = 74819370
REMARK  10 active torsions:
REMARK  status: ('A' for Active; 'I' for Inactive)
REMARK    1  A    between atoms: O_1  and  C_18
REMARK    2  A    between atoms: O_1  and  C_21
REMARK    3  A    between atoms: O_4  and  C_22
REMARK    4  A    between atoms: O_4  and  C_30
REMARK    5  A    between atoms: O_10  and  C_28
REMARK    6  A    between atoms: O_10  and  C_36
REMARK    7  A    between atoms: C_23  and  C_28
REMARK    8  A    between atoms: C_36  and  C_41
REMARK    9  A    between atoms: C_37  and  C_40
REMARK   10  A    between atoms: C_41  and  C_44
REMARK                            x       y       z     vdW  Elec       q    Type
REMARK                         _______ _______ _______ _____ _____    ______ ____
ROOT
ATOM      1  O   UNL     1     105.995 129.062 142.925  0.00  0.00    +0.000 OA
ATOM      2  O   UNL     1     107.675 127.277 143.271  0.00  0.00    +0.000 OA
ATOM      3  O   UNL     1     108.160 128.845 143.097  0.00  0.00    +0.000 OA
ATOM      4  C   UNL     1     106.312 127.683 143.127  0.00  0.00    +0.000 C 
ATOM      5  C   UNL     1     107.115 127.872 143.155  0.00  0.00    +0.000 C 
ATOM      6  C   UNL     1     107.357 128.656 143.069  0.00  0.00    +0.000 C 
ATOM      7  C   UNL     1     105.752 128.278 143.012  0.00  0.00    +0.000 C 
ATOM      8  C   UNL     1     106.797 129.251 142.954  0.00  0.00    +0.000 C 
ENDROOT
BRANCH   4   9
ATOM      9  O   UNL     1     106.069 126.900 143.213  0.00  0.00    +0.000 OA
BRANCH   9  14
ATOM     10  O   UNL     1     105.906 127.044 144.626  0.00  0.00    +0.000 OA
ATOM     11  O   UNL     1     106.212 125.266 143.397  0.00  0.00    +0.000 OA
ATOM     12  O   UNL     1     106.120 124.594 144.901  0.00  0.00    +0.000 OA
ATOM     13  O   UNL     1     105.885 125.555 146.221  0.00  0.00    +0.000 OA
ATOM     14  C   UNL     1     106.023 126.563 143.966  0.00  0.00    +0.000 C 
ATOM     15  C   UNL     1     106.095 125.747 144.057  0.00  0.00    +0.000 C 
ATOM     16  C   UNL     1     106.048 125.410 144.810  0.00  0.00    +0.000 C 
ATOM     17  C   UNL     1     105.931 125.891 145.470  0.00  0.00    +0.000 C 
ATOM     18  C   UNL     1     105.860 126.708 145.378  0.00  0.00    +0.000 C 
ATOM     19  C   UNL     1     105.743 127.188 146.038  0.00  0.00    +0.000 C 
ENDBRANCH   9  14
ENDBRANCH   4   9
BRANCH   7  20
ATOM     20  O   UNL     1     104.950 128.089 142.983  0.00  0.00    +0.000 OA
BRANCH  20  24
ATOM     21  O   UNL     1     103.105 130.160 142.090  0.00  0.00    +0.000 OA
ATOM     22  O   UNL     1     103.844 128.031 140.280  0.00  0.00    +0.000 OA
ATOM     23  O   UNL     1     102.933 129.074 139.872  0.00  0.00    +0.000 OA
ATOM     24  C   UNL     1     104.470 128.416 142.397  0.00  0.00    +0.000 A 
ATOM     25  C   UNL     1     104.026 129.136 142.552  0.00  0.00    +0.000 A 
ATOM     26  C   UNL     1     104.410 128.040 141.627  0.00  0.00    +0.000 A 
ATOM     27  C   UNL     1     103.529 129.469 141.935  0.00  0.00    +0.000 A 
ATOM     28  C   UNL     1     103.472 129.107 141.196  0.00  0.00    +0.000 A 
ATOM     29  C   UNL     1     103.907 128.387 141.023  0.00  0.00    +0.000 A 
ATOM     30  C   UNL     1     102.625 130.489 141.506  0.00  0.00    +0.000 C 
ATOM     31  C   UNL     1     102.568 130.126 140.767  0.00  0.00    +0.000 C 
ATOM     32  C   UNL     1     102.991 129.435 140.612  0.00  0.00    +0.000 C 
BRANCH  30  34
ATOM     33  O   UNL     1     100.931 133.252 142.124  0.00  0.00    +0.000 OA
ATOM     34  C   UNL     1     102.201 131.179 141.660  0.00  0.00    +0.000 A 
ATOM     35  C   UNL     1     101.425 131.135 141.938  0.00  0.00    +0.000 A 
ATOM     36  C   UNL     1     102.554 131.915 141.537  0.00  0.00    +0.000 A 
ATOM     37  C   UNL     1     101.003 131.826 142.092  0.00  0.00    +0.000 A 
ATOM     38  C   UNL     1     102.131 132.606 141.692  0.00  0.00    +0.000 A 
ATOM     39  C   UNL     1     101.355 132.561 141.970  0.00  0.00    +0.000 A 
ENDBRANCH  30  34
ENDBRANCH  20  24
ENDBRANCH   7  20
BRANCH   8  40
ATOM     40  C   UNL     1     107.041 130.034 142.867  0.00  0.00    +0.000 C 
BRANCH  40  41
ATOM     41  O   UNL     1     106.524 130.650 143.051  0.00  0.00    +0.000 OA
BRANCH  41  43
ATOM     42  O   UNL     1     107.153 131.651 142.249  0.00  0.00    +0.000 OA
ATOM     43  C   UNL     1     106.758 131.433 142.940  0.00  0.00    +0.000 C 
BRANCH  43  44
ATOM     44  C   UNL     1     106.599 131.998 143.518  0.00  0.00    +0.000 C 
BRANCH  44  47
ATOM     45  O   UNL     1     105.235 132.426 143.533  0.00  0.00    +0.000 OA
ATOM     46  O   UNL     1     106.260 133.319 143.092  0.00  0.00    +0.000 OA
ATOM     47  C   UNL     1     106.031 132.581 143.381  0.00  0.00    +0.000 C 
ENDBRANCH  44  47
ENDBRANCH  43  44
ENDBRANCH  41  43
ENDBRANCH  40  41
ENDBRANCH   8  40
TORSDOF 10
ENDMDL
MODEL 4
REMARK VINA RESULT:      -9.9      7.559      9.600
REMARK  Name = 74819370
REMARK  10 active torsions:
REMARK  status: ('A' for Active; 'I' for Inactive)
REMARK    1  A    between atoms: O_1  and  C_18
REMARK    2  A    between atoms: O_1  and  C_21
REMARK    3  A    between atoms: O_4  and  C_22
REMARK    4  A    between atoms: O_4  and  C_30
REMARK    5  A    between atoms: O_10  and  C_28
REMARK    6  A    between atoms: O_10  and  C_36
REMARK    7  A    between atoms: C_23  and  C_28
REMARK    8  A    between atoms: C_36  and  C_41
REMARK    9  A    between atoms: C_37  and  C_40
REMARK   10  A    between atoms: C_41  and  C_44
REMARK                            x       y       z     vdW  Elec       q    Type
REMARK                         _______ _______ _______ _____ _____    ______ ____
ROOT
ATOM      1  O   UNL     1     111.185 129.757 138.158  0.00  0.00    +0.000 OA
ATOM      2  O   UNL     1     108.766 130.046 138.593  0.00  0.00    +0.000 OA
ATOM      3  O   UNL     1     109.849 130.176 139.832  0.00  0.00    +0.000 OA
ATOM      4  C   UNL     1     109.838 129.788 137.683  0.00  0.00    +0.000 C 
ATOM      5  C   UNL     1     109.573 129.950 138.448  0.00  0.00    +0.000 C 
ATOM      6  C   UNL     1     110.114 130.014 139.067  0.00  0.00    +0.000 C 
ATOM      7  C   UNL     1     110.645 129.692 137.538  0.00  0.00    +0.000 C 
ATOM      8  C   UNL     1     110.921 129.918 138.922  0.00  0.00    +0.000 C 
ENDROOT
BRANCH   4   9
ATOM      9  O   UNL     1     109.297 129.724 137.064  0.00  0.00    +0.000 OA
BRANCH   9  14
ATOM     10  O   UNL     1     109.447 131.111 136.753  0.00  0.00    +0.000 OA
ATOM     11  O   UNL     1     107.934 129.663 136.136  0.00  0.00    +0.000 OA
ATOM     12  O   UNL     1     107.403 131.020 135.361  0.00  0.00    +0.000 OA
ATOM     13  O   UNL     1     108.234 132.437 135.514  0.00  0.00    +0.000 OA
ATOM     14  C   UNL     1     109.031 130.403 136.676  0.00  0.00    +0.000 C 
ATOM     15  C   UNL     1     108.350 130.372 136.212  0.00  0.00    +0.000 C 
ATOM     16  C   UNL     1     108.084 131.051 135.825  0.00  0.00    +0.000 C 
ATOM     17  C   UNL     1     108.500 131.759 135.902  0.00  0.00    +0.000 C 
ATOM     18  C   UNL     1     109.181 131.789 136.366  0.00  0.00    +0.000 C 
ATOM     19  C   UNL     1     109.597 132.497 136.443  0.00  0.00    +0.000 C 
ENDBRANCH   9  14
ENDBRANCH   4   9
BRANCH   7  20
ATOM     20  O   UNL     1     110.909 129.531 136.774  0.00  0.00    +0.000 OA
BRANCH  20  24
ATOM     21  O   UNL     1     111.925 126.801 136.722  0.00  0.00    +0.000 OA
ATOM     22  O   UNL     1     113.702 128.995 136.103  0.00  0.00    +0.000 OA
ATOM     23  O   UNL     1     114.170 127.630 136.088  0.00  0.00    +0.000 OA
ATOM     24  C   UNL     1     111.530 129.000 136.656  0.00  0.00    +0.000 A 
ATOM     25  C   UNL     1     111.402 128.155 136.753  0.00  0.00    +0.000 A 
ATOM     26  C   UNL     1     112.309 129.287 136.436  0.00  0.00    +0.000 A 
ATOM     27  C   UNL     1     112.054 127.610 136.628  0.00  0.00    +0.000 A 
ATOM     28  C   UNL     1     112.802 127.887 136.417  0.00  0.00    +0.000 A 
ATOM     29  C   UNL     1     112.950 128.727 136.315  0.00  0.00    +0.000 A 
ATOM     30  C   UNL     1     112.544 126.268 136.605  0.00  0.00    +0.000 C 
ATOM     31  C   UNL     1     113.292 126.545 136.394  0.00  0.00    +0.000 C 
ATOM     32  C   UNL     1     113.421 127.354 136.299  0.00  0.00    +0.000 C 
BRANCH  30  34
ATOM     33  O   UNL     1     112.029 123.031 136.983  0.00  0.00    +0.000 OA
ATOM     34  C   UNL     1     112.415 125.459 136.699  0.00  0.00    +0.000 A 
ATOM     35  C   UNL     1     111.858 125.072 136.229  0.00  0.00    +0.000 A 
ATOM     36  C   UNL     1     112.844 125.036 137.264  0.00  0.00    +0.000 A 
ATOM     37  C   UNL     1     111.730 124.263 136.324  0.00  0.00    +0.000 A 
ATOM     38  C   UNL     1     112.715 124.227 137.359  0.00  0.00    +0.000 A 
ATOM     39  C   UNL     1     112.158 123.840 136.889  0.00  0.00    +0.000 A 
ENDBRANCH  30  34
ENDBRANCH  20  24
ENDBRANCH   7  20
BRANCH   8  40
ATOM     40  C   UNL     1     111.461 129.983 139.542  0.00  0.00    +0.000 C 
BRANCH  40  41
ATOM     41  O   UNL     1     112.220 130.272 139.399  0.00  0.00    +0.000 OA
BRANCH  41  43
ATOM     42  O   UNL     1     112.619 130.584 140.735  0.00  0.00    +0.000 OA
ATOM     43  C   UNL     1     112.788 130.255 139.998  0.00  0.00    +0.000 C 
BRANCH  43  44
ATOM     44  C   UNL     1     113.524 129.910 139.859  0.00  0.00    +0.000 C 
BRANCH  44  47
ATOM     45  O   UNL     1     114.442 130.912 139.419  0.00  0.00    +0.000 OA
ATOM     46  O   UNL     1     114.674 130.220 140.646  0.00  0.00    +0.000 OA
ATOM     47  C   UNL     1     114.213 130.347 139.975  0.00  0.00    +0.000 C 
ENDBRANCH  44  47
ENDBRANCH  43  44
ENDBRANCH  41  43
ENDBRANCH  40  41
ENDBRANCH   8  40
TORSDOF 10
ENDMDL
MODEL 5
REMARK VINA RESULT:      -9.8      6.587     10.116
REMARK  Name = 74819370
REMARK  10 active torsions:
REMARK  status: ('A' for Active; 'I' for Inactive)
REMARK    1  A    between atoms: O_1  and  C_18
REMARK    2  A    between atoms: O_1  and  C_21
REMARK    3  A    between atoms: O_4  and  C_22
REMARK    4  A    between atoms: O_4  and  C_30
REMARK    5  A    between atoms: O_10  and  C_28
REMARK    6  A    between atoms: O_10  and  C_36
REMARK    7  A    between atoms: C_23  and  C_28
REMARK    8  A    between atoms: C_36  and  C_41
REMARK    9  A    between atoms: C_37  and  C_40
REMARK   10  A    between atoms: C_41  and  C_44
REMARK                            x       y       z     vdW  Elec       q    Type
REMARK                         _______ _______ _______ _____ _____    ______ ____
ROOT
ATOM      1  O   UNL     1     110.961 125.896 136.932  0.00  0.00    +0.000 OA
ATOM      2  O   UNL     1     109.610 125.890 134.858  0.00  0.00    +0.000 OA
ATOM      3  O   UNL     1     110.894 124.865 135.009  0.00  0.00    +0.000 OA
ATOM      4  C   UNL     1     109.868 126.407 136.165  0.00  0.00    +0.000 C 
ATOM      5  C   UNL     1     110.060 125.892 135.549  0.00  0.00    +0.000 C 
ATOM      6  C   UNL     1     110.702 125.380 135.625  0.00  0.00    +0.000 C 
ATOM      7  C   UNL     1     110.319 126.409 136.857  0.00  0.00    +0.000 C 
ATOM      8  C   UNL     1     111.152 125.382 136.316  0.00  0.00    +0.000 C 
ENDROOT
BRANCH   4   9
ATOM      9  O   UNL     1     109.226 126.920 136.089  0.00  0.00    +0.000 OA
BRANCH   9  14
ATOM     10  O   UNL     1     110.045 127.859 135.388  0.00  0.00    +0.000 OA
ATOM     11  O   UNL     1     108.022 128.043 136.188  0.00  0.00    +0.000 OA
ATOM     12  O   UNL     1     108.238 129.544 135.537  0.00  0.00    +0.000 OA
ATOM     13  O   UNL     1     109.659 129.921 134.787  0.00  0.00    +0.000 OA
ATOM     14  C   UNL     1     109.335 127.670 135.763  0.00  0.00    +0.000 C 
ATOM     15  C   UNL     1     108.732 128.232 135.813  0.00  0.00    +0.000 C 
ATOM     16  C   UNL     1     108.841 128.983 135.487  0.00  0.00    +0.000 C 
ATOM     17  C   UNL     1     109.551 129.171 135.112  0.00  0.00    +0.000 C 
ATOM     18  C   UNL     1     110.153 128.609 135.063  0.00  0.00    +0.000 C 
ATOM     19  C   UNL     1     110.863 128.797 134.688  0.00  0.00    +0.000 C 
ENDBRANCH   9  14
ENDBRANCH   4   9
BRANCH   7  20
ATOM     20  O   UNL     1     110.127 126.923 137.472  0.00  0.00    +0.000 OA
BRANCH  20  24
ATOM     21  O   UNL     1     112.170 127.704 139.396  0.00  0.00    +0.000 OA
ATOM     22  O   UNL     1     110.296 125.612 140.076  0.00  0.00    +0.000 OA
ATOM     23  O   UNL     1     111.321 126.024 141.004  0.00  0.00    +0.000 OA
ATOM     24  C   UNL     1     110.486 126.836 138.209  0.00  0.00    +0.000 A 
ATOM     25  C   UNL     1     111.158 127.328 138.425  0.00  0.00    +0.000 A 
ATOM     26  C   UNL     1     110.192 126.253 138.768  0.00  0.00    +0.000 A 
ATOM     27  C   UNL     1     111.525 127.229 139.195  0.00  0.00    +0.000 A 
ATOM     28  C   UNL     1     111.242 126.669 139.731  0.00  0.00    +0.000 A 
ATOM     29  C   UNL     1     110.572 126.169 139.534  0.00  0.00    +0.000 A 
ATOM     30  C   UNL     1     112.531 127.618 140.133  0.00  0.00    +0.000 C 
ATOM     31  C   UNL     1     112.248 127.059 140.669  0.00  0.00    +0.000 C 
ATOM     32  C   UNL     1     111.603 126.584 140.468  0.00  0.00    +0.000 C 
BRANCH  30  34
ATOM     33  O   UNL     1     115.108 129.516 140.937  0.00  0.00    +0.000 OA
ATOM     34  C   UNL     1     113.175 128.093 140.334  0.00  0.00    +0.000 A 
ATOM     35  C   UNL     1     113.074 128.906 140.433  0.00  0.00    +0.000 A 
ATOM     36  C   UNL     1     113.921 127.754 140.436  0.00  0.00    +0.000 A 
ATOM     37  C   UNL     1     113.718 129.379 140.634  0.00  0.00    +0.000 A 
ATOM     38  C   UNL     1     114.565 128.228 140.637  0.00  0.00    +0.000 A 
ATOM     39  C   UNL     1     114.464 129.041 140.736  0.00  0.00    +0.000 A 
ENDBRANCH  30  34
ENDBRANCH  20  24
ENDBRANCH   7  20
BRANCH   8  40
ATOM     40  C   UNL     1     111.794 124.869 136.391  0.00  0.00    +0.000 C 
BRANCH  40  41
ATOM     41  O   UNL     1     112.532 125.161 136.615  0.00  0.00    +0.000 OA
BRANCH  41  43
ATOM     42  O   UNL     1     112.970 123.874 137.057  0.00  0.00    +0.000 OA
ATOM     43  C   UNL     1     113.144 124.639 136.801  0.00  0.00    +0.000 C 
BRANCH  43  44
ATOM     44  C   UNL     1     113.929 124.882 136.732  0.00  0.00    +0.000 C 
BRANCH  44  47
ATOM     45  O   UNL     1     114.337 125.469 137.969  0.00  0.00    +0.000 OA
ATOM     46  O   UNL     1     114.995 124.298 137.482  0.00  0.00    +0.000 OA
ATOM     47  C   UNL     1     114.420 124.883 137.394  0.00  0.00    +0.000 C 
ENDBRANCH  44  47
ENDBRANCH  43  44
ENDBRANCH  41  43
ENDBRANCH  40  41
ENDBRANCH   8  40
TORSDOF 10
ENDMDL
MODEL 6
REMARK VINA RESULT:      -9.7      6.818      9.231
REMARK  Name = 74819370
REMARK  10 active torsions:
REMARK  status: ('A' for Active; 'I' for Inactive)
REMARK    1  A    between atoms: O_1  and  C_18
REMARK    2  A    between atoms: O_1  and  C_21
REMARK    3  A    between atoms: O_4  and  C_22
REMARK    4  A    between atoms: O_4  and  C_30
REMARK    5  A    between atoms: O_10  and  C_28
REMARK    6  A    between atoms: O_10  and  C_36
REMARK    7  A    between atoms: C_23  and  C_28
REMARK    8  A    between atoms: C_36  and  C_41
REMARK    9  A    between atoms: C_37  and  C_40
REMARK   10  A    between atoms: C_41  and  C_44
REMARK                            x       y       z     vdW  Elec       q    Type
REMARK                         _______ _______ _______ _____ _____    ______ ____
ROOT
ATOM      1  O   UNL     1     110.114 129.112 136.729  0.00  0.00    +0.000 OA
ATOM      2  O   UNL     1     108.489 130.892 137.291  0.00  0.00    +0.000 OA
ATOM      3  O   UNL     1     108.067 129.691 136.242  0.00  0.00    +0.000 OA
ATOM      4  C   UNL     1     109.784 130.306 137.442  0.00  0.00    +0.000 C 
ATOM      5  C   UNL     1     109.031 130.299 137.104  0.00  0.00    +0.000 C 
ATOM      6  C   UNL     1     108.820 129.698 136.579  0.00  0.00    +0.000 C 
ATOM      7  C   UNL     1     110.326 129.713 137.254  0.00  0.00    +0.000 C 
ATOM      8  C   UNL     1     109.362 129.105 136.392  0.00  0.00    +0.000 C 
ENDROOT
BRANCH   4   9
ATOM      9  O   UNL     1     109.995 130.907 137.966  0.00  0.00    +0.000 OA
BRANCH   9  14
ATOM     10  O   UNL     1     109.451 130.150 139.051  0.00  0.00    +0.000 OA
ATOM     11  O   UNL     1     110.497 132.066 139.027  0.00  0.00    +0.000 OA
ATOM     12  O   UNL     1     110.205 131.890 140.642  0.00  0.00    +0.000 OA
ATOM     13  O   UNL     1     109.411 130.554 141.195  0.00  0.00    +0.000 OA
ATOM     14  C   UNL     1     109.849 130.818 138.774  0.00  0.00    +0.000 C 
ATOM     15  C   UNL     1     110.100 131.398 139.304  0.00  0.00    +0.000 C 
ATOM     16  C   UNL     1     109.954 131.310 140.112  0.00  0.00    +0.000 C 
ATOM     17  C   UNL     1     109.557 130.642 140.388  0.00  0.00    +0.000 C 
ATOM     18  C   UNL     1     109.306 130.062 139.857  0.00  0.00    +0.000 C 
ATOM     19  C   UNL     1     108.908 129.394 140.134  0.00  0.00    +0.000 C 
ENDBRANCH   9  14
ENDBRANCH   4   9
BRANCH   7  20
ATOM     20  O   UNL     1     111.078 129.720 137.591  0.00  0.00    +0.000 OA
BRANCH  20  24
ATOM     21  O   UNL     1     112.857 127.459 137.135  0.00  0.00    +0.000 OA
ATOM     22  O   UNL     1     113.199 129.877 135.589  0.00  0.00    +0.000 OA
ATOM     23  O   UNL     1     114.061 128.737 135.390  0.00  0.00    +0.000 OA
ATOM     24  C   UNL     1     111.713 129.379 137.190  0.00  0.00    +0.000 A 
ATOM     25  C   UNL     1     111.961 128.576 137.376  0.00  0.00    +0.000 A 
ATOM     26  C   UNL     1     112.132 129.821 136.585  0.00  0.00    +0.000 A 
ATOM     27  C   UNL     1     112.624 128.229 136.953  0.00  0.00    +0.000 A 
ATOM     28  C   UNL     1     113.025 128.655 136.371  0.00  0.00    +0.000 A 
ATOM     29  C   UNL     1     112.792 129.458 136.173  0.00  0.00    +0.000 A 
ATOM     30  C   UNL     1     113.492 127.115 136.735  0.00  0.00    +0.000 C 
ATOM     31  C   UNL     1     113.893 127.541 136.154  0.00  0.00    +0.000 C 
ATOM     32  C   UNL     1     113.659 128.311 135.972  0.00  0.00    +0.000 C 
BRANCH  30  34
ATOM     33  O   UNL     1     114.426 124.035 137.464  0.00  0.00    +0.000 OA
ATOM     34  C   UNL     1     113.725 126.345 136.918  0.00  0.00    +0.000 A 
ATOM     35  C   UNL     1     113.544 125.726 136.403  0.00  0.00    +0.000 A 
ATOM     36  C   UNL     1     114.140 126.194 137.615  0.00  0.00    +0.000 A 
ATOM     37  C   UNL     1     113.777 124.957 136.586  0.00  0.00    +0.000 A 
ATOM     38  C   UNL     1     114.374 125.424 137.797  0.00  0.00    +0.000 A 
ATOM     39  C   UNL     1     114.192 124.805 137.282  0.00  0.00    +0.000 A 
ENDBRANCH  30  34
ENDBRANCH  20  24
ENDBRANCH   7  20
BRANCH   8  40
ATOM     40  C   UNL     1     109.150 128.505 135.867  0.00  0.00    +0.000 C 
BRANCH  40  41
ATOM     41  O   UNL     1     109.412 127.734 135.994  0.00  0.00    +0.000 OA
BRANCH  41  43
ATOM     42  O   UNL     1     109.670 127.475 134.613  0.00  0.00    +0.000 OA
ATOM     43  C   UNL     1     109.460 127.204 135.363  0.00  0.00    +0.000 C 
BRANCH  43  44
ATOM     44  C   UNL     1     109.298 126.404 135.482  0.00  0.00    +0.000 C 
BRANCH  44  47
ATOM     45  O   UNL     1     110.055 125.556 134.617  0.00  0.00    +0.000 OA
ATOM     46  O   UNL     1     110.321 125.566 136.021  0.00  0.00    +0.000 OA
ATOM     47  C   UNL     1     109.891 125.842 135.373  0.00  0.00    +0.000 C 
ENDBRANCH  44  47
ENDBRANCH  43  44
ENDBRANCH  41  43
ENDBRANCH  40  41
ENDBRANCH   8  40
TORSDOF 10
ENDMDL
MODEL 7
REMARK VINA RESULT:      -9.7      1.688      4.163
REMARK  Name = 74819370
REMARK  10 active torsions:
REMARK  status: ('A' for Active; 'I' for Inactive)
REMARK    1  A    between atoms: O_1  and  C_18
REMARK    2  A    between atoms: O_1  and  C_21
REMARK    3  A    between atoms: O_4  and  C_22
REMARK    4  A    between atoms: O_4  and  C_30
REMARK    5  A    between atoms: O_10  and  C_28
REMARK    6  A    between atoms: O_10  and  C_36
REMARK    7  A    between atoms: C_23  and  C_28
REMARK    8  A    between atoms: C_36  and  C_41
REMARK    9  A    between atoms: C_37  and  C_40
REMARK   10  A    between atoms: C_41  and  C_44
REMARK                            x       y       z     vdW  Elec       q    Type
REMARK                         _______ _______ _______ _____ _____    ______ ____
ROOT
ATOM      1  O   UNL     1     106.209 126.174 143.135  0.00  0.00    +0.000 OA
ATOM      2  O   UNL     1     105.362 128.460 143.563  0.00  0.00    +0.000 OA
ATOM      3  O   UNL     1     105.265 127.309 144.742  0.00  0.00    +0.000 OA
ATOM      4  C   UNL     1     105.976 127.511 142.688  0.00  0.00    +0.000 C 
ATOM      5  C   UNL     1     105.644 127.698 143.420  0.00  0.00    +0.000 C 
ATOM      6  C   UNL     1     105.596 127.122 144.009  0.00  0.00    +0.000 C 
ATOM      7  C   UNL     1     106.258 126.749 142.545  0.00  0.00    +0.000 C 
ATOM      8  C   UNL     1     105.878 126.360 143.867  0.00  0.00    +0.000 C 
ENDROOT
BRANCH   4   9
ATOM      9  O   UNL     1     106.024 128.086 142.099  0.00  0.00    +0.000 OA
BRANCH   9  14
ATOM     10  O   UNL     1     107.316 128.489 142.560  0.00  0.00    +0.000 OA
ATOM     11  O   UNL     1     105.910 129.473 141.212  0.00  0.00    +0.000 OA
ATOM     12  O   UNL     1     107.143 130.568 141.230  0.00  0.00    +0.000 OA
ATOM     13  O   UNL     1     108.492 130.277 142.135  0.00  0.00    +0.000 OA
ATOM     14  C   UNL     1     106.642 128.634 142.108  0.00  0.00    +0.000 C 
ATOM     15  C   UNL     1     106.584 129.327 141.664  0.00  0.00    +0.000 C 
ATOM     16  C   UNL     1     107.201 129.875 141.673  0.00  0.00    +0.000 C 
ATOM     17  C   UNL     1     107.876 129.730 142.126  0.00  0.00    +0.000 C 
ATOM     18  C   UNL     1     107.932 129.036 142.569  0.00  0.00    +0.000 C 
ATOM     19  C   UNL     1     108.607 128.890 143.022  0.00  0.00    +0.000 C 
ENDBRANCH   9  14
ENDBRANCH   4   9
BRANCH   7  20
ATOM     20  O   UNL     1     106.589 126.562 141.813  0.00  0.00    +0.000 OA
BRANCH  20  24
ATOM     21  O   UNL     1     104.964 124.765 140.196  0.00  0.00    +0.000 OA
ATOM     22  O   UNL     1     107.415 123.794 141.380  0.00  0.00    +0.000 OA
ATOM     23  O   UNL     1     106.585 122.933 140.573  0.00  0.00    +0.000 OA
ATOM     24  C   UNL     1     106.460 125.819 141.480  0.00  0.00    +0.000 A 
ATOM     25  C   UNL     1     105.761 125.675 140.999  0.00  0.00    +0.000 A 
ATOM     26  C   UNL     1     107.022 125.182 141.610  0.00  0.00    +0.000 A 
ATOM     27  C   UNL     1     105.636 124.897 140.656  0.00  0.00    +0.000 A 
ATOM     28  C   UNL     1     106.176 124.287 140.782  0.00  0.00    +0.000 A 
ATOM     29  C   UNL     1     106.879 124.412 141.259  0.00  0.00    +0.000 A 
ATOM     30  C   UNL     1     104.832 124.023 139.861  0.00  0.00    +0.000 C 
ATOM     31  C   UNL     1     105.373 123.412 139.987  0.00  0.00    +0.000 C 
ATOM     32  C   UNL     1     106.045 123.544 140.447  0.00  0.00    +0.000 C 
BRANCH  30  34
ATOM     33  O   UNL     1     102.146 123.495 138.020  0.00  0.00    +0.000 OA
ATOM     34  C   UNL     1     104.160 123.890 139.401  0.00  0.00    +0.000 A 
ATOM     35  C   UNL     1     103.487 123.556 139.741  0.00  0.00    +0.000 A 
ATOM     36  C   UNL     1     104.163 124.093 138.601  0.00  0.00    +0.000 A 
ATOM     37  C   UNL     1     102.816 123.424 139.280  0.00  0.00    +0.000 A 
ATOM     38  C   UNL     1     103.491 123.961 138.141  0.00  0.00    +0.000 A 
ATOM     39  C   UNL     1     102.817 123.627 138.480  0.00  0.00    +0.000 A 
ENDBRANCH  30  34
ENDBRANCH  20  24
ENDBRANCH   7  20
BRANCH   8  40
ATOM     40  C   UNL     1     105.829 125.785 144.457  0.00  0.00    +0.000 C 
BRANCH  40  41
ATOM     41  O   UNL     1     105.361 125.116 144.343  0.00  0.00    +0.000 OA
BRANCH  41  43
ATOM     42  O   UNL     1     106.137 124.144 145.047  0.00  0.00    +0.000 OA
ATOM     43  C   UNL     1     105.406 124.486 144.874  0.00  0.00    +0.000 C 
BRANCH  43  44
ATOM     44  C   UNL     1     104.722 124.197 145.231  0.00  0.00    +0.000 C 
BRANCH  44  47
ATOM     45  O   UNL     1     104.503 122.848 145.649  0.00  0.00    +0.000 OA
ATOM     46  O   UNL     1     104.162 123.249 144.321  0.00  0.00    +0.000 OA
ATOM     47  C   UNL     1     104.462 123.432 145.067  0.00  0.00    +0.000 C 
ENDBRANCH  44  47
ENDBRANCH  43  44
ENDBRANCH  41  43
ENDBRANCH  40  41
ENDBRANCH   8  40
TORSDOF 10
ENDMDL
MODEL 8
REMARK VINA RESULT:      -9.7      6.722      9.376
REMARK  Name = 74819370
REMARK  10 active torsions:
REMARK  status: ('A' for Active; 'I' for Inactive)
REMARK    1  A    between atoms: O_1  and  C_18
REMARK    2  A    between atoms: O_1  and  C_21
REMARK    3  A    between atoms: O_4  and  C_22
REMARK    4  A    between atoms: O_4  and  C_30
REMARK    5  A    between atoms: O_10  and  C_28
REMARK    6  A    between atoms: O_10  and  C_36
REMARK    7  A    between atoms: C_23  and  C_28
REMARK    8  A    between atoms: C_36  and  C_41
REMARK    9  A    between atoms: C_37  and  C_40
REMARK   10  A    between atoms: C_41  and  C_44
REMARK                            x       y       z     vdW  Elec       q    Type
REMARK                         _______ _______ _______ _____ _____    ______ ____
ROOT
ATOM      1  O   UNL     1     109.686 128.823 136.917  0.00  0.00    +0.000 OA
ATOM      2  O   UNL     1     108.221 130.817 136.842  0.00  0.00    +0.000 OA
ATOM      3  O   UNL     1     107.990 129.582 135.772  0.00  0.00    +0.000 OA
ATOM      4  C   UNL     1     109.313 130.105 137.427  0.00  0.00    +0.000 C 
ATOM      5  C   UNL     1     108.709 130.152 136.867  0.00  0.00    +0.000 C 
ATOM      6  C   UNL     1     108.594 129.535 136.332  0.00  0.00    +0.000 C 
ATOM      7  C   UNL     1     109.802 129.440 137.453  0.00  0.00    +0.000 C 
ATOM      8  C   UNL     1     109.082 128.870 136.357  0.00  0.00    +0.000 C 
ENDROOT
BRANCH   4   9
ATOM      9  O   UNL     1     109.428 130.722 137.962  0.00  0.00    +0.000 OA
BRANCH   9  14
ATOM     10  O   UNL     1     110.286 131.396 137.037  0.00  0.00    +0.000 OA
ATOM     11  O   UNL     1     109.318 132.101 138.862  0.00  0.00    +0.000 OA
ATOM     12  O   UNL     1     110.119 133.463 138.388  0.00  0.00    +0.000 OA
ATOM     13  O   UNL     1     111.032 133.446 137.013  0.00  0.00    +0.000 OA
ATOM     14  C   UNL     1     109.830 131.404 137.725  0.00  0.00    +0.000 C 
ATOM     15  C   UNL     1     109.774 132.093 138.175  0.00  0.00    +0.000 C 
ATOM     16  C   UNL     1     110.175 132.774 137.938  0.00  0.00    +0.000 C 
ATOM     17  C   UNL     1     110.631 132.766 137.250  0.00  0.00    +0.000 C 
ATOM     18  C   UNL     1     110.686 132.076 136.800  0.00  0.00    +0.000 C 
ATOM     19  C   UNL     1     111.142 132.068 136.113  0.00  0.00    +0.000 C 
ENDBRANCH   9  14
ENDBRANCH   4   9
BRANCH   7  20
ATOM     20  O   UNL     1     110.405 129.393 138.012  0.00  0.00    +0.000 OA
BRANCH  20  24
ATOM     21  O   UNL     1     112.158 127.070 138.124  0.00  0.00    +0.000 OA
ATOM     22  O   UNL     1     109.896 127.236 139.915  0.00  0.00    +0.000 OA
ATOM     23  O   UNL     1     110.786 126.100 139.942  0.00  0.00    +0.000 OA
ATOM     24  C   UNL     1     110.607 128.664 138.341  0.00  0.00    +0.000 A 
ATOM     25  C   UNL     1     111.295 128.235 138.054  0.00  0.00    +0.000 A 
ATOM     26  C   UNL     1     110.131 128.327 138.972  0.00  0.00    +0.000 A 
ATOM     27  C   UNL     1     111.497 127.477 138.403  0.00  0.00    +0.000 A 
ATOM     28  C   UNL     1     111.039 127.154 139.009  0.00  0.00    +0.000 A 
ATOM     29  C   UNL     1     110.349 127.567 139.308  0.00  0.00    +0.000 A 
ATOM     30  C   UNL     1     112.362 126.340 138.451  0.00  0.00    +0.000 C 
ATOM     31  C   UNL     1     111.905 126.017 139.056  0.00  0.00    +0.000 C 
ATOM     32  C   UNL     1     111.243 126.424 139.336  0.00  0.00    +0.000 C 
BRANCH  30  34
ATOM     33  O   UNL     1     115.008 124.714 137.335  0.00  0.00    +0.000 OA
ATOM     34  C   UNL     1     113.024 125.934 138.172  0.00  0.00    +0.000 A 
ATOM     35  C   UNL     1     112.945 125.392 137.554  0.00  0.00    +0.000 A 
ATOM     36  C   UNL     1     113.764 126.069 138.511  0.00  0.00    +0.000 A 
ATOM     37  C   UNL     1     113.607 124.986 137.276  0.00  0.00    +0.000 A 
ATOM     38  C   UNL     1     114.425 125.662 138.232  0.00  0.00    +0.000 A 
ATOM     39  C   UNL     1     114.347 125.121 137.614  0.00  0.00    +0.000 A 
ENDBRANCH  30  34
ENDBRANCH  20  24
ENDBRANCH   7  20
BRANCH   8  40
ATOM     40  C   UNL     1     108.966 128.253 135.822  0.00  0.00    +0.000 C 
BRANCH  40  41
ATOM     41  O   UNL     1     109.614 127.857 135.501  0.00  0.00    +0.000 OA
BRANCH  41  43
ATOM     42  O   UNL     1     108.897 126.623 135.439  0.00  0.00    +0.000 OA
ATOM     43  C   UNL     1     109.522 127.100 135.188  0.00  0.00    +0.000 C 
BRANCH  43  44
ATOM     44  C   UNL     1     110.054 126.818 134.624  0.00  0.00    +0.000 C 
BRANCH  44  47
ATOM     45  O   UNL     1     111.230 126.101 135.003  0.00  0.00    +0.000 OA
ATOM     46  O   UNL     1     110.053 125.390 134.613  0.00  0.00    +0.000 OA
ATOM     47  C   UNL     1     110.446 126.104 134.747  0.00  0.00    +0.000 C 
ENDBRANCH  44  47
ENDBRANCH  43  44
ENDBRANCH  41  43
ENDBRANCH  40  41
ENDBRANCH   8  40
TORSDOF 10
ENDMDL
MODEL 9
REMARK VINA RESULT:      -9.7      7.637      9.302
REMARK  Name = 74819370
REMARK  10 active torsions:
REMARK  status: ('A' for Active; 'I' for Inactive)
REMARK    1  A    between atoms: O_1  and  C_18
REMARK    2  A    between atoms: O_1  and  C_21
REMARK    3  A    between atoms: O_4  and  C_22
REMARK    4  A    between atoms: O_4  and  C_30
REMARK    5  A    between atoms: O_10  and  C_28
REMARK    6  A    between atoms: O_10  and  C_36
REMARK    7  A    between atoms: C_23  and  C_28
REMARK    8  A    between atoms: C_36  and  C_41
REMARK    9  A    between atoms: C_37  and  C_40
REMARK   10  A    between atoms: C_41  and  C_44
REMARK                            x       y       z     vdW  Elec       q    Type
REMARK                         _______ _______ _______ _____ _____    ______ ____
ROOT
ATOM      1  O   UNL     1     112.697 128.002 139.097  0.00  0.00    +0.000 OA
ATOM      2  O   UNL     1     114.307 127.784 140.963  0.00  0.00    +0.000 OA
ATOM      3  O   UNL     1     113.233 126.570 140.655  0.00  0.00    +0.000 OA
ATOM      4  C   UNL     1     113.771 128.536 139.872  0.00  0.00    +0.000 C 
ATOM      5  C   UNL     1     113.771 127.856 140.341  0.00  0.00    +0.000 C 
ATOM      6  C   UNL     1     113.233 127.250 140.187  0.00  0.00    +0.000 C 
ATOM      7  C   UNL     1     113.234 128.609 139.250  0.00  0.00    +0.000 C 
ATOM      8  C   UNL     1     112.696 127.323 139.564  0.00  0.00    +0.000 C 
ENDROOT
BRANCH   4   9
ATOM      9  O   UNL     1     114.309 129.142 140.027  0.00  0.00    +0.000 OA
BRANCH   9  14
ATOM     10  O   UNL     1     113.402 129.705 140.978  0.00  0.00    +0.000 OA
ATOM     11  O   UNL     1     115.344 130.404 140.269  0.00  0.00    +0.000 OA
ATOM     12  O   UNL     1     114.955 131.597 141.341  0.00  0.00    +0.000 OA
ATOM     13  O   UNL     1     113.531 131.528 142.171  0.00  0.00    +0.000 OA
ATOM     14  C   UNL     1     114.114 129.739 140.563  0.00  0.00    +0.000 C 
ATOM     15  C   UNL     1     114.632 130.369 140.684  0.00  0.00    +0.000 C 
ATOM     16  C   UNL     1     114.437 130.966 141.220  0.00  0.00    +0.000 C 
ATOM     17  C   UNL     1     113.725 130.932 141.635  0.00  0.00    +0.000 C 
ATOM     18  C   UNL     1     113.208 130.301 141.514  0.00  0.00    +0.000 C 
ATOM     19  C   UNL     1     112.495 130.266 141.929  0.00  0.00    +0.000 C 
ENDBRANCH   9  14
ENDBRANCH   4   9
BRANCH   7  20
ATOM     20  O   UNL     1     113.235 129.288 138.782  0.00  0.00    +0.000 OA
BRANCH  20  24
ATOM     21  O   UNL     1     111.064 129.730 136.891  0.00  0.00    +0.000 OA
ATOM     22  O   UNL     1     113.582 128.669 135.949  0.00  0.00    +0.000 OA
ATOM     23  O   UNL     1     112.485 128.901 135.041  0.00  0.00    +0.000 OA
ATOM     24  C   UNL     1     112.939 129.258 138.013  0.00  0.00    +0.000 A 
ATOM     25  C   UNL     1     112.136 129.516 137.848  0.00  0.00    +0.000 A 
ATOM     26  C   UNL     1     113.432 128.971 137.370  0.00  0.00    +0.000 A 
ATOM     27  C   UNL     1     111.836 129.481 137.043  0.00  0.00    +0.000 A 
ATOM     28  C   UNL     1     112.310 129.205 136.427  0.00  0.00    +0.000 A 
ATOM     29  C   UNL     1     113.115 128.944 136.572  0.00  0.00    +0.000 A 
ATOM     30  C   UNL     1     110.766 129.701 136.122  0.00  0.00    +0.000 C 
ATOM     31  C   UNL     1     111.240 129.425 135.506  0.00  0.00    +0.000 C 
ATOM     32  C   UNL     1     112.012 129.177 135.658  0.00  0.00    +0.000 C 
BRANCH  30  34
ATOM     33  O   UNL     1     107.678 130.693 135.513  0.00  0.00    +0.000 OA
ATOM     34  C   UNL     1     109.994 129.950 135.970  0.00  0.00    +0.000 A 
ATOM     35  C   UNL     1     109.849 130.729 135.742  0.00  0.00    +0.000 A 
ATOM     36  C   UNL     1     109.368 129.417 136.046  0.00  0.00    +0.000 A 
ATOM     37  C   UNL     1     109.077 130.976 135.590  0.00  0.00    +0.000 A 
ATOM     38  C   UNL     1     108.596 129.666 135.894  0.00  0.00    +0.000 A 
ATOM     39  C   UNL     1     108.450 130.445 135.666  0.00  0.00    +0.000 A 
ENDBRANCH  30  34
ENDBRANCH  20  24
ENDBRANCH   7  20
BRANCH   8  40
ATOM     40  C   UNL     1     112.159 126.716 139.411  0.00  0.00    +0.000 C 
BRANCH  40  41
ATOM     41  O   UNL     1     112.135 126.364 138.665  0.00  0.00    +0.000 OA
BRANCH  41  43
ATOM     42  O   UNL     1     111.211 125.328 139.004  0.00  0.00    +0.000 OA
ATOM     43  C   UNL     1     111.503 125.875 138.459  0.00  0.00    +0.000 C 
BRANCH  43  44
ATOM     44  C   UNL     1     111.164 125.932 137.710  0.00  0.00    +0.000 C 
BRANCH  44  47
ATOM     45  O   UNL     1     111.204 124.607 137.175  0.00  0.00    +0.000 OA
ATOM     46  O   UNL     1     111.803 125.687 136.456  0.00  0.00    +0.000 OA
ATOM     47  C   UNL     1     111.390 125.409 137.114  0.00  0.00    +0.000 C 
ENDBRANCH  44  47
ENDBRANCH  43  44
ENDBRANCH  41  43
ENDBRANCH  40  41
ENDBRANCH   8  40
TORSDOF 10
ENDMDL
MODEL 10
REMARK VINA RESULT:      -9.5      5.934      8.736
REMARK  Name = 74819370
REMARK  10 active torsions:
REMARK  status: ('A' for Active; 'I' for Inactive)
REMARK    1  A    between atoms: O_1  and  C_18
REMARK    2  A    between atoms: O_1  and  C_21
REMARK    3  A    between atoms: O_4  and  C_22
REMARK    4  A    between atoms: O_4  and  C_30
REMARK    5  A    between atoms: O_10  and  C_28
REMARK    6  A    between atoms: O_10  and  C_36
REMARK    7  A    between atoms: C_23  and  C_28
REMARK    8  A    between atoms: C_36  and  C_41
REMARK    9  A    between atoms: C_37  and  C_40
REMARK   10  A    between atoms: C_41  and  C_44
REMARK                            x       y       z     vdW  Elec       q    Type
REMARK                         _______ _______ _______ _____ _____    ______ ____
ROOT
ATOM      1  O   UNL     1     110.252 127.283 138.581  0.00  0.00    +0.000 OA
ATOM      2  O   UNL     1     110.722 124.872 138.887  0.00  0.00    +0.000 OA
ATOM      3  O   UNL     1     110.106 125.757 140.135  0.00  0.00    +0.000 OA
ATOM      4  C   UNL     1     110.717 126.037 138.058  0.00  0.00    +0.000 C 
ATOM      5  C   UNL     1     110.565 125.676 138.785  0.00  0.00    +0.000 C 
ATOM      6  C   UNL     1     110.258 126.119 139.409  0.00  0.00    +0.000 C 
ATOM      7  C   UNL     1     110.560 126.841 137.956  0.00  0.00    +0.000 C 
ATOM      8  C   UNL     1     110.101 126.922 139.307  0.00  0.00    +0.000 C 
ENDROOT
BRANCH   4   9
ATOM      9  O   UNL     1     111.025 125.594 137.434  0.00  0.00    +0.000 OA
BRANCH   9  14
ATOM     10  O   UNL     1     112.358 125.843 137.886  0.00  0.00    +0.000 OA
ATOM     11  O   UNL     1     111.587 124.414 136.427  0.00  0.00    +0.000 OA
ATOM     12  O   UNL     1     113.201 124.073 136.376  0.00  0.00    +0.000 OA
ATOM     13  O   UNL     1     114.252 124.912 137.332  0.00  0.00    +0.000 OA
ATOM     14  C   UNL     1     111.832 125.423 137.409  0.00  0.00    +0.000 C 
ATOM     15  C   UNL     1     112.113 124.833 136.905  0.00  0.00    +0.000 C 
ATOM     16  C   UNL     1     112.920 124.663 136.880  0.00  0.00    +0.000 C 
ATOM     17  C   UNL     1     113.446 125.083 137.358  0.00  0.00    +0.000 C 
ATOM     18  C   UNL     1     113.164 125.673 137.861  0.00  0.00    +0.000 C 
ATOM     19  C   UNL     1     113.689 126.092 138.339  0.00  0.00    +0.000 C 
ENDBRANCH   9  14
ENDBRANCH   4   9
BRANCH   7  20
ATOM     20  O   UNL     1     110.711 127.201 137.230  0.00  0.00    +0.000 OA
BRANCH  20  24
ATOM     21  O   UNL     1     110.122 130.026 136.834  0.00  0.00    +0.000 OA
ATOM     22  O   UNL     1     108.233 128.035 135.927  0.00  0.00    +0.000 OA
ATOM     23  O   UNL     1     107.975 129.443 135.748  0.00  0.00    +0.000 OA
ATOM     24  C   UNL     1     110.211 127.796 136.953  0.00  0.00    +0.000 A 
ATOM     25  C   UNL     1     110.432 128.622 137.040  0.00  0.00    +0.000 A 
ATOM     26  C   UNL     1     109.466 127.594 136.576  0.00  0.00    +0.000 A 
ATOM     27  C   UNL     1     109.905 129.235 136.748  0.00  0.00    +0.000 A 
ATOM     28  C   UNL     1     109.189 129.040 136.386  0.00  0.00    +0.000 A 
ATOM     29  C   UNL     1     108.952 128.220 136.291  0.00  0.00    +0.000 A 
ATOM     30  C   UNL     1     109.624 130.623 136.558  0.00  0.00    +0.000 C 
ATOM     31  C   UNL     1     108.908 130.428 136.196  0.00  0.00    +0.000 C 
ATOM     32  C   UNL     1     108.691 129.637 136.110  0.00  0.00    +0.000 C 
BRANCH  30  34
ATOM     33  O   UNL     1     110.493 133.788 136.900  0.00  0.00    +0.000 OA
ATOM     34  C   UNL     1     109.841 131.414 136.643  0.00  0.00    +0.000 A 
ATOM     35  C   UNL     1     109.992 131.721 137.394  0.00  0.00    +0.000 A 
ATOM     36  C   UNL     1     109.907 131.898 135.978  0.00  0.00    +0.000 A 
ATOM     37  C   UNL     1     110.210 132.512 137.479  0.00  0.00    +0.000 A 
ATOM     38  C   UNL     1     110.124 132.689 136.063  0.00  0.00    +0.000 A 
ATOM     39  C   UNL     1     110.275 132.997 136.814  0.00  0.00    +0.000 A 
ENDBRANCH  30  34
ENDBRANCH  20  24
ENDBRANCH   7  20
BRANCH   8  40
ATOM     40  C   UNL     1     109.793 127.364 139.932  0.00  0.00    +0.000 C 
BRANCH  40  41
ATOM     41  O   UNL     1     109.280 127.992 139.780  0.00  0.00    +0.000 OA
BRANCH  41  43
ATOM     42  O   UNL     1     108.548 128.153 140.997  0.00  0.00    +0.000 OA
ATOM     43  C   UNL     1     109.019 128.471 140.399  0.00  0.00    +0.000 C 
BRANCH  43  44
ATOM     44  C   UNL     1     109.230 129.268 140.421  0.00  0.00    +0.000 C 
BRANCH  44  47
ATOM     45  O   UNL     1     108.247 130.079 139.774  0.00  0.00    +0.000 OA
ATOM     46  O   UNL     1     108.458 130.198 141.182  0.00  0.00    +0.000 OA
ATOM     47  C   UNL     1     108.645 129.848 140.459  0.00  0.00    +0.000 C 
ENDBRANCH  44  47
ENDBRANCH  43  44
ENDBRANCH  41  43
ENDBRANCH  40  41
ENDBRANCH   8  40
TORSDOF 10
ENDMDL
