MODEL 1
REMARK VINA RESULT:     -10.2      0.000      0.000
REMARK  Name = 44258115
REMARK  8 active torsions:
REMARK  status: ('A' for Active; 'I' for Inactive)
REMARK    1  A    between atoms: O_1  and  C_18
REMARK    2  A    between atoms: O_1  and  C_19
REMARK    3  A    between atoms: O_3  and  C_16
REMARK    4  A    between atoms: O_3  and  C_26
REMARK    5  A    between atoms: O_6  and  C_22
REMARK    6  A    between atoms: O_6  and  C_27
REMARK    7  A    between atoms: C_16  and  C_23
REMARK    8  A    between atoms: C_35  and  C_37
REMARK                            x       y       z     vdW  Elec       q    Type
REMARK                         _______ _______ _______ _____ _____    ______ ____
ROOT
ATOM      1  O   UNL     1     105.092 128.086 142.786  0.00  0.00    +0.000 OA
ENDROOT
BRANCH   1   5
ATOM      2  O   UNL     1     103.217 130.160 141.970  0.00  0.00    +0.000 OA
ATOM      3  O   UNL     1     103.728 127.928 140.209  0.00  0.00    +0.000 OA
ATOM      4  O   UNL     1     102.806 128.973 139.838  0.00  0.00    +0.000 OA
ATOM      5  C   UNL     1     104.565 128.397 142.233  0.00  0.00    +0.000 A 
ATOM      6  C   UNL     1     104.155 129.135 142.393  0.00  0.00    +0.000 A 
ATOM      7  C   UNL     1     104.422 127.985 141.493  0.00  0.00    +0.000 A 
ATOM      8  C   UNL     1     103.608 129.451 141.811  0.00  0.00    +0.000 A 
ATOM      9  C   UNL     1     103.871 128.316 140.923  0.00  0.00    +0.000 A 
ATOM     10  C   UNL     1     103.471 129.056 141.100  0.00  0.00    +0.000 A 
ATOM     11  C   UNL     1     102.943 129.368 140.549  0.00  0.00    +0.000 A 
ATOM     12  C   UNL     1     102.689 130.474 141.419  0.00  0.00    +0.000 A 
ATOM     13  C   UNL     1     102.552 130.078 140.708  0.00  0.00    +0.000 A 
BRANCH  12  16
ATOM     14  O   UNL     1     102.641 133.331 141.400  0.00  0.00    +0.000 OA
ATOM     15  O   UNL     1     101.127 133.310 142.056  0.00  0.00    +0.000 OA
ATOM     16  C   UNL     1     102.299 131.182 141.579  0.00  0.00    +0.000 A 
ATOM     17  C   UNL     1     102.666 131.902 141.410  0.00  0.00    +0.000 A 
ATOM     18  C   UNL     1     101.542 131.172 141.907  0.00  0.00    +0.000 A 
ATOM     19  C   UNL     1     102.275 132.611 141.569  0.00  0.00    +0.000 A 
ATOM     20  C   UNL     1     101.152 131.881 142.066  0.00  0.00    +0.000 A 
ATOM     21  C   UNL     1     101.518 132.600 141.897  0.00  0.00    +0.000 A 
ENDBRANCH  12  16
ENDBRANCH   1   5
BRANCH   1  27
ATOM     22  O   UNL     1     106.219 128.853 142.362  0.00  0.00    +0.000 OA
ATOM     23  O   UNL     1     107.716 126.959 142.908  0.00  0.00    +0.000 OA
ATOM     24  O   UNL     1     108.345 128.358 142.301  0.00  0.00    +0.000 OA
ATOM     25  C   UNL     1     106.404 127.522 142.847  0.00  0.00    +0.000 C 
ATOM     26  C   UNL     1     107.217 127.590 142.726  0.00  0.00    +0.000 C 
ATOM     27  C   UNL     1     105.905 128.154 142.665  0.00  0.00    +0.000 C 
ATOM     28  C   UNL     1     107.531 128.290 142.423  0.00  0.00    +0.000 C 
ATOM     29  C   UNL     1     107.032 128.922 142.241  0.00  0.00    +0.000 C 
BRANCH  25  30
ATOM     30  O   UNL     1     106.089 126.822 143.150  0.00  0.00    +0.000 OA
BRANCH  30  35
ATOM     31  O   UNL     1     106.390 127.199 144.540  0.00  0.00    +0.000 OA
ATOM     32  O   UNL     1     105.461 125.359 143.980  0.00  0.00    +0.000 OA
ATOM     33  C   UNL     1     105.922 126.111 145.156  0.00  0.00    +0.000 C 
ATOM     34  C   UNL     1     105.806 126.014 144.345  0.00  0.00    +0.000 C 
ATOM     35  C   UNL     1     106.095 126.686 143.964  0.00  0.00    +0.000 C 
ATOM     36  C   UNL     1     106.283 126.842 145.276  0.00  0.00    +0.000 C 
BRANCH  33  38
ATOM     37  O   UNL     1     104.786 125.318 145.506  0.00  0.00    +0.000 OA
ATOM     38  C   UNL     1     105.581 125.372 145.294  0.00  0.00    +0.000 C 
ENDBRANCH  33  38
BRANCH  33  39
ATOM     39  O   UNL     1     105.927 125.974 145.970  0.00  0.00    +0.000 OA
BRANCH  39  41
ATOM     40  O   UNL     1     107.195 125.349 146.182  0.00  0.00    +0.000 OA
ATOM     41  C   UNL     1     106.644 125.932 146.376  0.00  0.00    +0.000 C 
ATOM     42  C   UNL     1     106.811 126.473 146.976  0.00  0.00    +0.000 C 
ENDBRANCH  39  41
ENDBRANCH  33  39
ENDBRANCH  30  35
ENDBRANCH  25  30
ENDBRANCH   1  27
TORSDOF 8
ENDMDL
MODEL 2
REMARK VINA RESULT:     -10.0      8.237      9.623
REMARK  Name = 44258115
REMARK  8 active torsions:
REMARK  status: ('A' for Active; 'I' for Inactive)
REMARK    1  A    between atoms: O_1  and  C_18
REMARK    2  A    between atoms: O_1  and  C_19
REMARK    3  A    between atoms: O_3  and  C_16
REMARK    4  A    between atoms: O_3  and  C_26
REMARK    5  A    between atoms: O_6  and  C_22
REMARK    6  A    between atoms: O_6  and  C_27
REMARK    7  A    between atoms: C_16  and  C_23
REMARK    8  A    between atoms: C_35  and  C_37
REMARK                            x       y       z     vdW  Elec       q    Type
REMARK                         _______ _______ _______ _____ _____    ______ ____
ROOT
ATOM      1  O   UNL     1     112.238 129.056 136.792  0.00  0.00    +0.000 OA
ENDROOT
BRANCH   1   5
ATOM      2  O   UNL     1     110.023 130.853 136.206  0.00  0.00    +0.000 OA
ATOM      3  O   UNL     1     111.945 131.577 138.237  0.00  0.00    +0.000 OA
ATOM      4  O   UNL     1     110.836 132.442 137.920  0.00  0.00    +0.000 OA
ATOM      5  C   UNL     1     111.831 129.759 136.932  0.00  0.00    +0.000 A 
ATOM      6  C   UNL     1     111.121 129.945 136.485  0.00  0.00    +0.000 A 
ATOM      7  C   UNL     1     112.113 130.311 137.528  0.00  0.00    +0.000 A 
ATOM      8  C   UNL     1     110.703 130.680 136.638  0.00  0.00    +0.000 A 
ATOM      9  C   UNL     1     111.682 131.041 137.667  0.00  0.00    +0.000 A 
ATOM     10  C   UNL     1     110.974 131.210 137.210  0.00  0.00    +0.000 A 
ATOM     11  C   UNL     1     110.565 131.912 137.349  0.00  0.00    +0.000 A 
ATOM     12  C   UNL     1     109.613 131.556 136.344  0.00  0.00    +0.000 A 
ATOM     13  C   UNL     1     109.884 132.085 136.915  0.00  0.00    +0.000 A 
BRANCH  12  16
ATOM     14  O   UNL     1     106.779 131.385 136.015  0.00  0.00    +0.000 OA
ATOM     15  O   UNL     1     106.890 132.247 134.612  0.00  0.00    +0.000 OA
ATOM     16  C   UNL     1     108.933 131.728 135.911  0.00  0.00    +0.000 A 
ATOM     17  C   UNL     1     108.197 131.470 136.180  0.00  0.00    +0.000 A 
ATOM     18  C   UNL     1     108.988 132.160 135.210  0.00  0.00    +0.000 A 
ATOM     19  C   UNL     1     107.515 131.643 135.747  0.00  0.00    +0.000 A 
ATOM     20  C   UNL     1     108.307 132.332 134.777  0.00  0.00    +0.000 A 
ATOM     21  C   UNL     1     107.571 132.074 135.045  0.00  0.00    +0.000 A 
ENDBRANCH  12  16
ENDBRANCH   1   5
BRANCH   1  27
ATOM     22  O   UNL     1     112.892 129.602 135.646  0.00  0.00    +0.000 OA
ATOM     23  O   UNL     1     114.647 127.866 135.817  0.00  0.00    +0.000 OA
ATOM     24  O   UNL     1     114.717 128.991 134.613  0.00  0.00    +0.000 OA
ATOM     25  C   UNL     1     113.443 128.461 136.305  0.00  0.00    +0.000 C 
ATOM     26  C   UNL     1     114.062 128.445 135.760  0.00  0.00    +0.000 C 
ATOM     27  C   UNL     1     112.858 129.040 136.247  0.00  0.00    +0.000 C 
ATOM     28  C   UNL     1     114.096 129.008 135.158  0.00  0.00    +0.000 C 
ATOM     29  C   UNL     1     113.511 129.586 135.101  0.00  0.00    +0.000 C 
BRANCH  25  30
ATOM     30  O   UNL     1     113.409 127.898 136.907  0.00  0.00    +0.000 OA
BRANCH  30  35
ATOM     31  O   UNL     1     112.615 126.960 136.100  0.00  0.00    +0.000 OA
ATOM     32  O   UNL     1     113.448 126.480 138.007  0.00  0.00    +0.000 OA
ATOM     33  C   UNL     1     112.644 125.905 136.919  0.00  0.00    +0.000 C 
ATOM     34  C   UNL     1     113.070 126.515 137.274  0.00  0.00    +0.000 C 
ATOM     35  C   UNL     1     113.052 127.167 136.769  0.00  0.00    +0.000 C 
ATOM     36  C   UNL     1     112.363 126.179 136.194  0.00  0.00    +0.000 C 
BRANCH  33  38
ATOM     37  O   UNL     1     113.392 124.844 137.517  0.00  0.00    +0.000 OA
ATOM     38  C   UNL     1     112.801 125.418 137.566  0.00  0.00    +0.000 C 
ENDBRANCH  33  38
BRANCH  33  39
ATOM     39  O   UNL     1     112.288 125.174 136.781  0.00  0.00    +0.000 OA
BRANCH  39  41
ATOM     40  O   UNL     1     110.978 125.259 137.347  0.00  0.00    +0.000 OA
ATOM     41  C   UNL     1     111.468 125.124 136.697  0.00  0.00    +0.000 C 
ATOM     42  C   UNL     1     111.139 124.940 135.964  0.00  0.00    +0.000 C 
ENDBRANCH  39  41
ENDBRANCH  33  39
ENDBRANCH  30  35
ENDBRANCH  25  30
ENDBRANCH   1  27
TORSDOF 8
ENDMDL
MODEL 3
REMARK VINA RESULT:      -9.6      1.764      4.061
REMARK  Name = 44258115
REMARK  8 active torsions:
REMARK  status: ('A' for Active; 'I' for Inactive)
REMARK    1  A    between atoms: O_1  and  C_18
REMARK    2  A    between atoms: O_1  and  C_19
REMARK    3  A    between atoms: O_3  and  C_16
REMARK    4  A    between atoms: O_3  and  C_26
REMARK    5  A    between atoms: O_6  and  C_22
REMARK    6  A    between atoms: O_6  and  C_27
REMARK    7  A    between atoms: C_16  and  C_23
REMARK    8  A    between atoms: C_35  and  C_37
REMARK                            x       y       z     vdW  Elec       q    Type
REMARK                         _______ _______ _______ _____ _____    ______ ____
ROOT
ATOM      1  O   UNL     1     105.673 125.456 144.739  0.00  0.00    +0.000 OA
ENDROOT
BRANCH   1   5
ATOM      2  O   UNL     1     104.853 127.659 143.020  0.00  0.00    +0.000 OA
ATOM      3  O   UNL     1     107.538 126.614 142.814  0.00  0.00    +0.000 OA
ATOM      4  O   UNL     1     107.098 127.705 141.979  0.00  0.00    +0.000 OA
ATOM      5  C   UNL     1     105.844 126.003 144.146  0.00  0.00    +0.000 A 
ATOM      6  C   UNL     1     105.245 126.560 143.886  0.00  0.00    +0.000 A 
ATOM      7  C   UNL     1     106.623 126.019 143.785  0.00  0.00    +0.000 A 
ATOM      8  C   UNL     1     105.432 127.127 143.267  0.00  0.00    +0.000 A 
ATOM      9  C   UNL     1     106.793 126.592 143.167  0.00  0.00    +0.000 A 
ATOM     10  C   UNL     1     106.181 127.142 142.919  0.00  0.00    +0.000 A 
ATOM     11  C   UNL     1     106.350 127.689 142.326  0.00  0.00    +0.000 A 
ATOM     12  C   UNL     1     105.021 128.208 142.427  0.00  0.00    +0.000 A 
ATOM     13  C   UNL     1     105.770 128.223 142.080  0.00  0.00    +0.000 A 
BRANCH  12  16
ATOM     14  O   UNL     1     103.117 129.066 140.477  0.00  0.00    +0.000 OA
ATOM     15  O   UNL     1     102.703 130.339 141.441  0.00  0.00    +0.000 OA
ATOM     16  C   UNL     1     104.442 128.740 142.181  0.00  0.00    +0.000 A 
ATOM     17  C   UNL     1     104.070 128.637 141.452  0.00  0.00    +0.000 A 
ATOM     18  C   UNL     1     104.234 129.377 142.663  0.00  0.00    +0.000 A 
ATOM     19  C   UNL     1     103.490 129.170 141.205  0.00  0.00    +0.000 A 
ATOM     20  C   UNL     1     103.655 129.910 142.417  0.00  0.00    +0.000 A 
ATOM     21  C   UNL     1     103.283 129.806 141.688  0.00  0.00    +0.000 A 
ENDBRANCH  12  16
ENDBRANCH   1   5
BRANCH   1  27
ATOM     22  O   UNL     1     106.370 126.263 145.690  0.00  0.00    +0.000 OA
ATOM     23  O   UNL     1     106.065 124.505 147.406  0.00  0.00    +0.000 OA
ATOM     24  O   UNL     1     106.864 125.898 147.786  0.00  0.00    +0.000 OA
ATOM     25  C   UNL     1     105.869 124.980 146.073  0.00  0.00    +0.000 C 
ATOM     26  C   UNL     1     106.167 125.091 146.834  0.00  0.00    +0.000 C 
ATOM     27  C   UNL     1     105.971 125.567 145.501  0.00  0.00    +0.000 C 
ATOM     28  C   UNL     1     106.566 125.787 147.024  0.00  0.00    +0.000 C 
ATOM     29  C   UNL     1     106.668 126.373 146.452  0.00  0.00    +0.000 C 
BRANCH  25  30
ATOM     30  O   UNL     1     105.469 124.284 145.883  0.00  0.00    +0.000 OA
BRANCH  30  35
ATOM     31  O   UNL     1     104.199 124.765 146.445  0.00  0.00    +0.000 OA
ATOM     32  O   UNL     1     104.417 122.905 145.419  0.00  0.00    +0.000 OA
ATOM     33  C   UNL     1     103.417 123.740 146.099  0.00  0.00    +0.000 C 
ATOM     34  C   UNL     1     104.180 123.580 145.829  0.00  0.00    +0.000 C 
ATOM     35  C   UNL     1     104.663 124.214 146.043  0.00  0.00    +0.000 C 
ATOM     36  C   UNL     1     103.429 124.472 146.479  0.00  0.00    +0.000 C 
BRANCH  33  38
ATOM     37  O   UNL     1     102.775 123.004 145.056  0.00  0.00    +0.000 OA
ATOM     38  C   UNL     1     103.156 123.022 145.787  0.00  0.00    +0.000 C 
ENDBRANCH  33  38
BRANCH  33  39
ATOM     39  O   UNL     1     102.610 123.670 146.259  0.00  0.00    +0.000 OA
BRANCH  39  41
ATOM     40  O   UNL     1     102.582 123.189 147.604  0.00  0.00    +0.000 OA
ATOM     41  C   UNL     1     102.337 123.733 147.035  0.00  0.00    +0.000 C 
ATOM     42  C   UNL     1     101.819 124.341 147.241  0.00  0.00    +0.000 C 
ENDBRANCH  39  41
ENDBRANCH  33  39
ENDBRANCH  30  35
ENDBRANCH  25  30
ENDBRANCH   1  27
TORSDOF 8
ENDMDL
MODEL 4
REMARK VINA RESULT:      -9.6      2.207      6.602
REMARK  Name = 44258115
REMARK  8 active torsions:
REMARK  status: ('A' for Active; 'I' for Inactive)
REMARK    1  A    between atoms: O_1  and  C_18
REMARK    2  A    between atoms: O_1  and  C_19
REMARK    3  A    between atoms: O_3  and  C_16
REMARK    4  A    between atoms: O_3  and  C_26
REMARK    5  A    between atoms: O_6  and  C_22
REMARK    6  A    between atoms: O_6  and  C_27
REMARK    7  A    between atoms: C_16  and  C_23
REMARK    8  A    between atoms: C_35  and  C_37
REMARK                            x       y       z     vdW  Elec       q    Type
REMARK                         _______ _______ _______ _____ _____    ______ ____
ROOT
ATOM      1  O   UNL     1     105.695 126.103 143.970  0.00  0.00    +0.000 OA
ENDROOT
BRANCH   1   5
ATOM      2  O   UNL     1     104.155 124.911 146.135  0.00  0.00    +0.000 OA
ATOM      3  O   UNL     1     107.032 125.061 146.347  0.00  0.00    +0.000 OA
ATOM      4  O   UNL     1     106.237 124.477 147.400  0.00  0.00    +0.000 OA
ATOM      5  C   UNL     1     105.663 125.739 144.709  0.00  0.00    +0.000 A 
ATOM      6  C   UNL     1     104.907 125.509 145.045  0.00  0.00    +0.000 A 
ATOM      7  C   UNL     1     106.386 125.589 145.148  0.00  0.00    +0.000 A 
ATOM      8  C   UNL     1     104.883 125.130 145.817  0.00  0.00    +0.000 A 
ATOM      9  C   UNL     1     106.343 125.209 145.918  0.00  0.00    +0.000 A 
ATOM     10  C   UNL     1     105.577 124.986 146.239  0.00  0.00    +0.000 A 
ATOM     11  C   UNL     1     105.543 124.622 146.978  0.00  0.00    +0.000 A 
ATOM     12  C   UNL     1     104.119 124.547 146.874  0.00  0.00    +0.000 A 
ATOM     13  C   UNL     1     104.813 124.402 147.296  0.00  0.00    +0.000 A 
BRANCH  12  16
ATOM     14  O   UNL     1     101.908 122.739 146.979  0.00  0.00    +0.000 OA
ATOM     15  O   UNL     1     101.203 123.669 148.146  0.00  0.00    +0.000 OA
ATOM     16  C   UNL     1     103.391 124.328 147.192  0.00  0.00    +0.000 A 
ATOM     17  C   UNL     1     103.014 123.643 146.927  0.00  0.00    +0.000 A 
ATOM     18  C   UNL     1     103.038 124.793 147.775  0.00  0.00    +0.000 A 
ATOM     19  C   UNL     1     102.285 123.424 147.245  0.00  0.00    +0.000 A 
ATOM     20  C   UNL     1     102.309 124.573 148.093  0.00  0.00    +0.000 A 
ATOM     21  C   UNL     1     101.933 123.889 147.828  0.00  0.00    +0.000 A 
ENDBRANCH  12  16
ENDBRANCH   1   5
BRANCH   1  27
ATOM     22  O   UNL     1     105.592 124.854 143.286  0.00  0.00    +0.000 OA
ATOM     23  O   UNL     1     106.588 125.876 141.264  0.00  0.00    +0.000 OA
ATOM     24  O   UNL     1     106.153 124.285 141.253  0.00  0.00    +0.000 OA
ATOM     25  C   UNL     1     106.141 125.990 142.617  0.00  0.00    +0.000 C 
ATOM     26  C   UNL     1     106.256 125.535 141.938  0.00  0.00    +0.000 C 
ATOM     27  C   UNL     1     105.809 125.648 143.291  0.00  0.00    +0.000 C 
ATOM     28  C   UNL     1     106.038 124.740 141.933  0.00  0.00    +0.000 C 
ATOM     29  C   UNL     1     105.706 124.399 142.607  0.00  0.00    +0.000 C 
BRANCH  25  30
ATOM     30  O   UNL     1     106.359 126.786 142.622  0.00  0.00    +0.000 OA
BRANCH  30  35
ATOM     31  O   UNL     1     105.107 127.212 141.979  0.00  0.00    +0.000 OA
ATOM     32  O   UNL     1     106.678 128.550 142.527  0.00  0.00    +0.000 OA
ATOM     33  C   UNL     1     105.345 128.523 141.909  0.00  0.00    +0.000 C 
ATOM     34  C   UNL     1     105.998 128.165 142.263  0.00  0.00    +0.000 C 
ATOM     35  C   UNL     1     105.851 127.354 142.306  0.00  0.00    +0.000 C 
ATOM     36  C   UNL     1     104.795 127.935 141.734  0.00  0.00    +0.000 C 
BRANCH  33  38
ATOM     37  O   UNL     1     106.106 129.587 141.332  0.00  0.00    +0.000 OA
ATOM     38  C   UNL     1     105.711 129.260 141.978  0.00  0.00    +0.000 C 
ENDBRANCH  33  38
BRANCH  33  39
ATOM     39  O   UNL     1     104.837 129.093 141.594  0.00  0.00    +0.000 OA
BRANCH  39  41
ATOM     40  O   UNL     1     103.949 129.338 142.686  0.00  0.00    +0.000 OA
ATOM     41  C   UNL     1     104.070 129.169 141.888  0.00  0.00    +0.000 C 
ATOM     42  C   UNL     1     103.423 129.075 141.384  0.00  0.00    +0.000 C 
ENDBRANCH  39  41
ENDBRANCH  33  39
ENDBRANCH  30  35
ENDBRANCH  25  30
ENDBRANCH   1  27
TORSDOF 8
ENDMDL
MODEL 5
REMARK VINA RESULT:      -9.6      8.306     11.088
REMARK  Name = 44258115
REMARK  8 active torsions:
REMARK  status: ('A' for Active; 'I' for Inactive)
REMARK    1  A    between atoms: O_1  and  C_18
REMARK    2  A    between atoms: O_1  and  C_19
REMARK    3  A    between atoms: O_3  and  C_16
REMARK    4  A    between atoms: O_3  and  C_26
REMARK    5  A    between atoms: O_6  and  C_22
REMARK    6  A    between atoms: O_6  and  C_27
REMARK    7  A    between atoms: C_16  and  C_23
REMARK    8  A    between atoms: C_35  and  C_37
REMARK                            x       y       z     vdW  Elec       q    Type
REMARK                         _______ _______ _______ _____ _____    ______ ____
ROOT
ATOM      1  O   UNL     1     112.292 129.702 137.972  0.00  0.00    +0.000 OA
ENDROOT
BRANCH   1   5
ATOM      2  O   UNL     1     112.433 126.799 137.797  0.00  0.00    +0.000 OA
ATOM      3  O   UNL     1     113.570 128.145 140.086  0.00  0.00    +0.000 OA
ATOM      4  O   UNL     1     113.621 126.709 139.966  0.00  0.00    +0.000 OA
ATOM      5  C   UNL     1     112.523 128.977 138.288  0.00  0.00    +0.000 A 
ATOM      6  C   UNL     1     112.353 128.247 137.868  0.00  0.00    +0.000 A 
ATOM      7  C   UNL     1     112.936 128.945 139.041  0.00  0.00    +0.000 A 
ATOM      8  C   UNL     1     112.598 127.496 138.205  0.00  0.00    +0.000 A 
ATOM      9  C   UNL     1     113.173 128.185 139.364  0.00  0.00    +0.000 A 
ATOM     10  C   UNL     1     112.994 127.466 138.928  0.00  0.00    +0.000 A 
ATOM     11  C   UNL     1     113.225 126.739 139.243  0.00  0.00    +0.000 A 
ATOM     12  C   UNL     1     112.663 126.071 138.111  0.00  0.00    +0.000 A 
ATOM     13  C   UNL     1     113.059 126.041 138.834  0.00  0.00    +0.000 A 
BRANCH  12  16
ATOM     14  O   UNL     1     113.472 124.008 136.307  0.00  0.00    +0.000 OA
ATOM     15  O   UNL     1     112.000 123.282 136.476  0.00  0.00    +0.000 OA
ATOM     16  C   UNL     1     112.497 125.375 137.703  0.00  0.00    +0.000 A 
ATOM     17  C   UNL     1     113.067 125.040 137.209  0.00  0.00    +0.000 A 
ATOM     18  C   UNL     1     111.761 125.011 137.787  0.00  0.00    +0.000 A 
ATOM     19  C   UNL     1     112.902 124.342 136.800  0.00  0.00    +0.000 A 
ATOM     20  C   UNL     1     111.595 124.315 137.378  0.00  0.00    +0.000 A 
ATOM     21  C   UNL     1     112.165 123.980 136.885  0.00  0.00    +0.000 A 
ENDBRANCH  12  16
ENDBRANCH   1   5
BRANCH   1  27
ATOM     22  O   UNL     1     113.402 129.729 137.074  0.00  0.00    +0.000 OA
ATOM     23  O   UNL     1     113.174 132.185 136.863  0.00  0.00    +0.000 OA
ATOM     24  O   UNL     1     114.361 131.394 136.034  0.00  0.00    +0.000 OA
ATOM     25  C   UNL     1     112.733 130.944 137.418  0.00  0.00    +0.000 C 
ATOM     26  C   UNL     1     113.250 131.366 136.933  0.00  0.00    +0.000 C 
ATOM     27  C   UNL     1     112.809 130.125 137.487  0.00  0.00    +0.000 C 
ATOM     28  C   UNL     1     113.843 130.970 136.519  0.00  0.00    +0.000 C 
ATOM     29  C   UNL     1     113.919 130.152 136.589  0.00  0.00    +0.000 C 
BRANCH  25  30
ATOM     30  O   UNL     1     112.139 131.340 137.832  0.00  0.00    +0.000 OA
BRANCH  30  35
ATOM     31  O   UNL     1     111.190 131.263 136.712  0.00  0.00    +0.000 OA
ATOM     32  O   UNL     1     110.836 132.381 138.497  0.00  0.00    +0.000 OA
ATOM     33  C   UNL     1     110.222 132.037 137.207  0.00  0.00    +0.000 C 
ATOM     34  C   UNL     1     110.829 132.003 137.763  0.00  0.00    +0.000 C 
ATOM     35  C   UNL     1     111.428 131.525 137.458  0.00  0.00    +0.000 C 
ATOM     36  C   UNL     1     110.444 131.581 136.558  0.00  0.00    +0.000 C 
BRANCH  33  38
ATOM     37  O   UNL     1     109.180 132.216 138.169  0.00  0.00    +0.000 OA
ATOM     38  C   UNL     1     109.789 132.529 137.709  0.00  0.00    +0.000 C 
ENDBRANCH  33  38
BRANCH  33  39
ATOM     39  O   UNL     1     109.509 132.222 136.833  0.00  0.00    +0.000 OA
BRANCH  39  41
ATOM     40  O   UNL     1     109.922 133.291 135.978  0.00  0.00    +0.000 OA
ATOM     41  C   UNL     1     109.515 132.582 136.090  0.00  0.00    +0.000 C 
ATOM     42  C   UNL     1     109.115 132.233 135.459  0.00  0.00    +0.000 C 
ENDBRANCH  39  41
ENDBRANCH  33  39
ENDBRANCH  30  35
ENDBRANCH  25  30
ENDBRANCH   1  27
TORSDOF 8
ENDMDL
MODEL 6
REMARK VINA RESULT:      -9.6      3.950      6.437
REMARK  Name = 44258115
REMARK  8 active torsions:
REMARK  status: ('A' for Active; 'I' for Inactive)
REMARK    1  A    between atoms: O_1  and  C_18
REMARK    2  A    between atoms: O_1  and  C_19
REMARK    3  A    between atoms: O_3  and  C_16
REMARK    4  A    between atoms: O_3  and  C_26
REMARK    5  A    between atoms: O_6  and  C_22
REMARK    6  A    between atoms: O_6  and  C_27
REMARK    7  A    between atoms: C_16  and  C_23
REMARK    8  A    between atoms: C_35  and  C_37
REMARK                            x       y       z     vdW  Elec       q    Type
REMARK                         _______ _______ _______ _____ _____    ______ ____
ROOT
ATOM      1  O   UNL     1     106.998 125.585 140.831  0.00  0.00    +0.000 OA
ENDROOT
BRANCH   1   5
ATOM      2  O   UNL     1     104.852 124.271 139.365  0.00  0.00    +0.000 OA
ATOM      3  O   UNL     1     105.499 123.390 142.039  0.00  0.00    +0.000 OA
ATOM      4  O   UNL     1     104.442 122.762 141.284  0.00  0.00    +0.000 OA
ATOM      5  C   UNL     1     106.405 125.013 140.790  0.00  0.00    +0.000 A 
ATOM      6  C   UNL     1     105.925 124.938 140.081  0.00  0.00    +0.000 A 
ATOM      7  C   UNL     1     106.262 124.490 141.456  0.00  0.00    +0.000 A 
ATOM      8  C   UNL     1     105.309 124.339 140.048  0.00  0.00    +0.000 A 
ATOM      9  C   UNL     1     105.643 123.897 141.404  0.00  0.00    +0.000 A 
ATOM     10  C   UNL     1     105.173 123.836 140.687  0.00  0.00    +0.000 A 
ATOM     11  C   UNL     1     104.579 123.265 140.644  0.00  0.00    +0.000 A 
ATOM     12  C   UNL     1     104.258 123.700 139.321  0.00  0.00    +0.000 A 
ATOM     13  C   UNL     1     104.121 123.198 139.960  0.00  0.00    +0.000 A 
BRANCH  12  16
ATOM     14  O   UNL     1     101.724 123.883 138.011  0.00  0.00    +0.000 OA
ATOM     15  O   UNL     1     102.427 123.428 136.589  0.00  0.00    +0.000 OA
ATOM     16  C   UNL     1     103.800 123.632 138.638  0.00  0.00    +0.000 A 
ATOM     17  C   UNL     1     102.991 123.792 138.666  0.00  0.00    +0.000 A 
ATOM     18  C   UNL     1     104.151 123.405 137.927  0.00  0.00    +0.000 A 
ATOM     19  C   UNL     1     102.533 123.724 137.983  0.00  0.00    +0.000 A 
ATOM     20  C   UNL     1     103.694 123.337 137.244  0.00  0.00    +0.000 A 
ATOM     21  C   UNL     1     102.885 123.496 137.272  0.00  0.00    +0.000 A 
ENDBRANCH  12  16
ENDBRANCH   1   5
BRANCH   1  27
ATOM     22  O   UNL     1     106.184 126.578 141.456  0.00  0.00    +0.000 OA
ATOM     23  O   UNL     1     108.161 127.436 142.672  0.00  0.00    +0.000 OA
ATOM     24  O   UNL     1     106.687 128.144 142.893  0.00  0.00    +0.000 OA
ATOM     25  C   UNL     1     107.580 126.510 141.751  0.00  0.00    +0.000 C 
ATOM     26  C   UNL     1     107.502 127.150 142.267  0.00  0.00    +0.000 C 
ATOM     27  C   UNL     1     106.920 126.225 141.346  0.00  0.00    +0.000 C 
ATOM     28  C   UNL     1     106.765 127.503 142.377  0.00  0.00    +0.000 C 
ATOM     29  C   UNL     1     106.105 127.217 141.971  0.00  0.00    +0.000 C 
BRANCH  25  30
ATOM     30  O   UNL     1     108.317 126.157 141.641  0.00  0.00    +0.000 OA
BRANCH  30  35
ATOM     31  O   UNL     1     108.709 127.116 140.598  0.00  0.00    +0.000 OA
ATOM     32  O   UNL     1     109.994 125.586 141.351  0.00  0.00    +0.000 OA
ATOM     33  C   UNL     1     109.956 126.691 140.383  0.00  0.00    +0.000 C 
ATOM     34  C   UNL     1     109.622 126.214 140.967  0.00  0.00    +0.000 C 
ATOM     35  C   UNL     1     108.852 126.477 141.100  0.00  0.00    +0.000 C 
ATOM     36  C   UNL     1     109.392 127.247 140.155  0.00  0.00    +0.000 C 
BRANCH  33  38
ATOM     37  O   UNL     1     110.826 125.678 139.873  0.00  0.00    +0.000 OA
ATOM     38  C   UNL     1     110.658 126.260 140.432  0.00  0.00    +0.000 C 
ENDBRANCH  33  38
BRANCH  33  39
ATOM     39  O   UNL     1     110.491 127.010 139.842  0.00  0.00    +0.000 OA
BRANCH  39  41
ATOM     40  O   UNL     1     111.093 128.078 140.576  0.00  0.00    +0.000 OA
ATOM     41  C   UNL     1     110.710 127.804 139.899  0.00  0.00    +0.000 C 
ATOM     42  C   UNL     1     110.546 128.323 139.279  0.00  0.00    +0.000 C 
ENDBRANCH  39  41
ENDBRANCH  33  39
ENDBRANCH  30  35
ENDBRANCH  25  30
ENDBRANCH   1  27
TORSDOF 8
ENDMDL
MODEL 7
REMARK VINA RESULT:      -9.5      3.534      6.570
REMARK  Name = 44258115
REMARK  8 active torsions:
REMARK  status: ('A' for Active; 'I' for Inactive)
REMARK    1  A    between atoms: O_1  and  C_18
REMARK    2  A    between atoms: O_1  and  C_19
REMARK    3  A    between atoms: O_3  and  C_16
REMARK    4  A    between atoms: O_3  and  C_26
REMARK    5  A    between atoms: O_6  and  C_22
REMARK    6  A    between atoms: O_6  and  C_27
REMARK    7  A    between atoms: C_16  and  C_23
REMARK    8  A    between atoms: C_35  and  C_37
REMARK                            x       y       z     vdW  Elec       q    Type
REMARK                         _______ _______ _______ _____ _____    ______ ____
ROOT
ATOM      1  O   UNL     1     105.778 125.114 143.624  0.00  0.00    +0.000 OA
ENDROOT
BRANCH   1   5
ATOM      2  O   UNL     1     104.020 124.546 145.875  0.00  0.00    +0.000 OA
ATOM      3  O   UNL     1     106.858 124.841 146.323  0.00  0.00    +0.000 OA
ATOM      4  O   UNL     1     105.958 124.559 147.414  0.00  0.00    +0.000 OA
ATOM      5  C   UNL     1     105.669 124.977 144.430  0.00  0.00    +0.000 A 
ATOM      6  C   UNL     1     104.882 124.829 144.741  0.00  0.00    +0.000 A 
ATOM      7  C   UNL     1     106.341 124.982 144.964  0.00  0.00    +0.000 A 
ATOM      8  C   UNL     1     104.777 124.688 145.582  0.00  0.00    +0.000 A 
ATOM      9  C   UNL     1     106.218 124.838 145.802  0.00  0.00    +0.000 A 
ATOM     10  C   UNL     1     105.423 124.692 146.095  0.00  0.00    +0.000 A 
ATOM     11  C   UNL     1     105.312 124.555 146.901  0.00  0.00    +0.000 A 
ATOM     12  C   UNL     1     103.907 124.409 146.681  0.00  0.00    +0.000 A 
ATOM     13  C   UNL     1     104.553 124.413 147.194  0.00  0.00    +0.000 A 
BRANCH  12  16
ATOM     14  O   UNL     1     101.540 125.347 147.980  0.00  0.00    +0.000 OA
ATOM     15  O   UNL     1     100.874 123.843 147.852  0.00  0.00    +0.000 OA
ATOM     16  C   UNL     1     103.149 124.267 146.973  0.00  0.00    +0.000 A 
ATOM     17  C   UNL     1     102.724 124.878 147.330  0.00  0.00    +0.000 A 
ATOM     18  C   UNL     1     102.815 123.515 146.909  0.00  0.00    +0.000 A 
ATOM     19  C   UNL     1     101.965 124.737 147.623  0.00  0.00    +0.000 A 
ATOM     20  C   UNL     1     102.058 123.374 147.202  0.00  0.00    +0.000 A 
ATOM     21  C   UNL     1     101.633 123.985 147.559  0.00  0.00    +0.000 A 
ENDBRANCH  12  16
ENDBRANCH   1   5
BRANCH   1  27
ATOM     22  O   UNL     1     105.605 126.523 143.779  0.00  0.00    +0.000 OA
ATOM     23  O   UNL     1     106.822 126.907 141.658  0.00  0.00    +0.000 OA
ATOM     24  O   UNL     1     106.243 128.190 142.520  0.00  0.00    +0.000 OA
ATOM     25  C   UNL     1     106.300 126.010 142.641  0.00  0.00    +0.000 C 
ATOM     26  C   UNL     1     106.416 126.779 142.365  0.00  0.00    +0.000 C 
ATOM     27  C   UNL     1     105.894 125.883 143.348  0.00  0.00    +0.000 C 
ATOM     28  C   UNL     1     106.127 127.420 142.796  0.00  0.00    +0.000 C 
ATOM     29  C   UNL     1     105.721 127.292 143.503  0.00  0.00    +0.000 C 
BRANCH  25  30
ATOM     30  O   UNL     1     106.590 125.369 142.210  0.00  0.00    +0.000 OA
BRANCH  30  35
ATOM     31  O   UNL     1     105.437 125.362 141.297  0.00  0.00    +0.000 OA
ATOM     32  O   UNL     1     107.040 123.954 141.201  0.00  0.00    +0.000 OA
ATOM     33  C   UNL     1     105.772 124.310 140.547  0.00  0.00    +0.000 C 
ATOM     34  C   UNL     1     106.362 124.417 141.113  0.00  0.00    +0.000 C 
ATOM     35  C   UNL     1     106.155 125.067 141.577  0.00  0.00    +0.000 C 
ATOM     36  C   UNL     1     105.201 124.894 140.661  0.00  0.00    +0.000 C 
BRANCH  33  38
ATOM     37  O   UNL     1     105.931 122.895 140.421  0.00  0.00    +0.000 OA
ATOM     38  C   UNL     1     106.181 123.661 140.243  0.00  0.00    +0.000 C 
ENDBRANCH  33  38
BRANCH  33  39
ATOM     39  O   UNL     1     105.338 124.008 139.914  0.00  0.00    +0.000 OA
BRANCH  39  41
ATOM     40  O   UNL     1     105.673 124.950 138.894  0.00  0.00    +0.000 OA
ATOM     41  C   UNL     1     105.108 124.505 139.297  0.00  0.00    +0.000 C 
ATOM     42  C   UNL     1     104.313 124.557 139.083  0.00  0.00    +0.000 C 
ENDBRANCH  39  41
ENDBRANCH  33  39
ENDBRANCH  30  35
ENDBRANCH  25  30
ENDBRANCH   1  27
TORSDOF 8
ENDMDL
MODEL 8
REMARK VINA RESULT:      -9.5      6.800      8.517
REMARK  Name = 44258115
REMARK  8 active torsions:
REMARK  status: ('A' for Active; 'I' for Inactive)
REMARK    1  A    between atoms: O_1  and  C_18
REMARK    2  A    between atoms: O_1  and  C_19
REMARK    3  A    between atoms: O_3  and  C_16
REMARK    4  A    between atoms: O_3  and  C_26
REMARK    5  A    between atoms: O_6  and  C_22
REMARK    6  A    between atoms: O_6  and  C_27
REMARK    7  A    between atoms: C_16  and  C_23
REMARK    8  A    between atoms: C_35  and  C_37
REMARK                            x       y       z     vdW  Elec       q    Type
REMARK                         _______ _______ _______ _____ _____    ______ ____
ROOT
ATOM      1  O   UNL     1     110.412 127.283 137.349  0.00  0.00    +0.000 OA
ENDROOT
BRANCH   1   5
ATOM      2  O   UNL     1     110.029 130.159 137.098  0.00  0.00    +0.000 OA
ATOM      3  O   UNL     1     108.170 128.356 135.818  0.00  0.00    +0.000 OA
ATOM      4  O   UNL     1     108.011 129.786 135.715  0.00  0.00    +0.000 OA
ATOM      5  C   UNL     1     109.984 127.925 137.059  0.00  0.00    +0.000 A 
ATOM      6  C   UNL     1     110.236 128.727 137.234  0.00  0.00    +0.000 A 
ATOM      7  C   UNL     1     109.284 127.796 136.578  0.00  0.00    +0.000 A 
ATOM      8  C   UNL     1     109.783 129.391 136.927  0.00  0.00    +0.000 A 
ATOM      9  C   UNL     1     108.844 128.471 136.280  0.00  0.00    +0.000 A 
ATOM     10  C   UNL     1     109.110 129.266 136.466  0.00  0.00    +0.000 A 
ATOM     11  C   UNL     1     108.684 129.910 136.176  0.00  0.00    +0.000 A 
ATOM     12  C   UNL     1     109.603 130.803 136.809  0.00  0.00    +0.000 A 
ATOM     13  C   UNL     1     108.930 130.679 136.348  0.00  0.00    +0.000 A 
BRANCH  12  16
ATOM     14  O   UNL     1     110.025 132.902 138.703  0.00  0.00    +0.000 OA
ATOM     15  O   UNL     1     110.587 133.877 137.497  0.00  0.00    +0.000 OA
ATOM     16  C   UNL     1     109.849 131.571 136.981  0.00  0.00    +0.000 A 
ATOM     17  C   UNL     1     109.814 131.852 137.756  0.00  0.00    +0.000 A 
ATOM     18  C   UNL     1     110.130 132.060 136.378  0.00  0.00    +0.000 A 
ATOM     19  C   UNL     1     110.060 132.621 137.928  0.00  0.00    +0.000 A 
ATOM     20  C   UNL     1     110.376 132.827 136.550  0.00  0.00    +0.000 A 
ATOM     21  C   UNL     1     110.341 133.108 137.325  0.00  0.00    +0.000 A 
ENDBRANCH  12  16
ENDBRANCH   1   5
BRANCH   1  27
ATOM     22  O   UNL     1     110.012 127.511 138.701  0.00  0.00    +0.000 OA
ATOM     23  O   UNL     1     110.312 125.105 139.197  0.00  0.00    +0.000 OA
ATOM     24  O   UNL     1     109.811 126.135 140.385  0.00  0.00    +0.000 OA
ATOM     25  C   UNL     1     110.362 126.193 138.273  0.00  0.00    +0.000 C 
ATOM     26  C   UNL     1     110.212 125.907 139.032  0.00  0.00    +0.000 C 
ATOM     27  C   UNL     1     110.262 126.996 138.108  0.00  0.00    +0.000 C 
ATOM     28  C   UNL     1     109.961 126.422 139.626  0.00  0.00    +0.000 C 
ATOM     29  C   UNL     1     109.862 127.224 139.460  0.00  0.00    +0.000 C 
BRANCH  25  30
ATOM     30  O   UNL     1     110.612 125.678 137.679  0.00  0.00    +0.000 OA
BRANCH  30  35
ATOM     31  O   UNL     1     112.023 125.769 138.084  0.00  0.00    +0.000 OA
ATOM     32  O   UNL     1     111.302 124.449 136.568  0.00  0.00    +0.000 OA
ATOM     33  C   UNL     1     112.535 124.855 137.257  0.00  0.00    +0.000 C 
ATOM     34  C   UNL     1     111.723 124.895 137.119  0.00  0.00    +0.000 C 
ATOM     35  C   UNL     1     111.407 125.460 137.630  0.00  0.00    +0.000 C 
ATOM     36  C   UNL     1     112.721 125.394 137.852  0.00  0.00    +0.000 C 
BRANCH  33  38
ATOM     37  O   UNL     1     112.651 123.478 136.889  0.00  0.00    +0.000 OA
ATOM     38  C   UNL     1     112.605 124.273 136.675  0.00  0.00    +0.000 C 
ENDBRANCH  33  38
BRANCH  33  39
ATOM     39  O   UNL     1     113.330 124.636 137.207  0.00  0.00    +0.000 OA
BRANCH  39  41
ATOM     40  O   UNL     1     113.894 125.651 136.374  0.00  0.00    +0.000 OA
ATOM     41  C   UNL     1     113.907 125.210 137.071  0.00  0.00    +0.000 C 
ATOM     42  C   UNL     1     114.498 125.342 137.632  0.00  0.00    +0.000 C 
ENDBRANCH  39  41
ENDBRANCH  33  39
ENDBRANCH  30  35
ENDBRANCH  25  30
ENDBRANCH   1  27
TORSDOF 8
ENDMDL
MODEL 9
REMARK VINA RESULT:      -9.5      1.368      2.252
REMARK  Name = 44258115
REMARK  8 active torsions:
REMARK  status: ('A' for Active; 'I' for Inactive)
REMARK    1  A    between atoms: O_1  and  C_18
REMARK    2  A    between atoms: O_1  and  C_19
REMARK    3  A    between atoms: O_3  and  C_16
REMARK    4  A    between atoms: O_3  and  C_26
REMARK    5  A    between atoms: O_6  and  C_22
REMARK    6  A    between atoms: O_6  and  C_27
REMARK    7  A    between atoms: C_16  and  C_23
REMARK    8  A    between atoms: C_35  and  C_37
REMARK                            x       y       z     vdW  Elec       q    Type
REMARK                         _______ _______ _______ _____ _____    ______ ____
ROOT
ATOM      1  O   UNL     1     105.487 127.123 143.001  0.00  0.00    +0.000 OA
ENDROOT
BRANCH   1   5
ATOM      2  O   UNL     1     103.844 129.424 142.305  0.00  0.00    +0.000 OA
ATOM      3  O   UNL     1     106.690 129.507 141.819  0.00  0.00    +0.000 OA
ATOM      4  O   UNL     1     105.845 130.628 141.487  0.00  0.00    +0.000 OA
ATOM      5  C   UNL     1     105.417 127.886 142.695  0.00  0.00    +0.000 A 
ATOM      6  C   UNL     1     104.648 128.268 142.659  0.00  0.00    +0.000 A 
ATOM      7  C   UNL     1     106.111 128.304 142.411  0.00  0.00    +0.000 A 
ATOM      8  C   UNL     1     104.584 129.063 142.338  0.00  0.00    +0.000 A 
ATOM      9  C   UNL     1     106.028 129.098 142.094  0.00  0.00    +0.000 A 
ATOM     10  C   UNL     1     105.251 129.464 142.065  0.00  0.00    +0.000 A 
ATOM     11  C   UNL     1     105.178 130.227 141.760  0.00  0.00    +0.000 A 
ATOM     12  C   UNL     1     103.769 130.187 142.000  0.00  0.00    +0.000 A 
ATOM     13  C   UNL     1     104.437 130.588 141.727  0.00  0.00    +0.000 A 
BRANCH  12  16
ATOM     14  O   UNL     1     101.758 131.822 143.203  0.00  0.00    +0.000 OA
ATOM     15  O   UNL     1     100.806 131.634 141.869  0.00  0.00    +0.000 OA
ATOM     16  C   UNL     1     103.029 130.549 141.967  0.00  0.00    +0.000 A 
ATOM     17  C   UNL     1     102.764 131.004 142.602  0.00  0.00    +0.000 A 
ATOM     18  C   UNL     1     102.553 130.455 141.300  0.00  0.00    +0.000 A 
ATOM     19  C   UNL     1     102.023 131.366 142.569  0.00  0.00    +0.000 A 
ATOM     20  C   UNL     1     101.813 130.816 141.267  0.00  0.00    +0.000 A 
ATOM     21  C   UNL     1     101.548 131.272 141.901  0.00  0.00    +0.000 A 
ENDBRANCH  12  16
ENDBRANCH   1   5
BRANCH   1  27
ATOM     22  O   UNL     1     105.305 126.473 141.743  0.00  0.00    +0.000 OA
ATOM     23  O   UNL     1     106.761 124.616 142.491  0.00  0.00    +0.000 OA
ATOM     24  O   UNL     1     106.094 124.584 140.982  0.00  0.00    +0.000 OA
ATOM     25  C   UNL     1     106.125 125.870 142.747  0.00  0.00    +0.000 C 
ATOM     26  C   UNL     1     106.276 125.235 142.242  0.00  0.00    +0.000 C 
ATOM     27  C   UNL     1     105.639 126.489 142.496  0.00  0.00    +0.000 C 
ATOM     28  C   UNL     1     105.942 125.219 141.487  0.00  0.00    +0.000 C 
ATOM     29  C   UNL     1     105.457 125.838 141.238  0.00  0.00    +0.000 C 
BRANCH  25  30
ATOM     30  O   UNL     1     106.458 125.886 143.501  0.00  0.00    +0.000 OA
BRANCH  30  35
ATOM     31  O   UNL     1     105.466 124.949 144.048  0.00  0.00    +0.000 OA
ATOM     32  O   UNL     1     106.945 125.939 145.228  0.00  0.00    +0.000 OA
ATOM     33  C   UNL     1     105.828 124.989 145.332  0.00  0.00    +0.000 C 
ATOM     34  C   UNL     1     106.329 125.491 144.911  0.00  0.00    +0.000 C 
ATOM     35  C   UNL     1     106.105 125.467 144.117  0.00  0.00    +0.000 C 
ATOM     36  C   UNL     1     105.295 124.655 144.800  0.00  0.00    +0.000 C 
BRANCH  33  38
ATOM     37  O   UNL     1     106.821 124.682 146.313  0.00  0.00    +0.000 OA
ATOM     38  C   UNL     1     106.225 125.178 146.031  0.00  0.00    +0.000 C 
ENDBRANCH  33  38
BRANCH  33  39
ATOM     39  O   UNL     1     105.475 124.570 145.950  0.00  0.00    +0.000 OA
BRANCH  39  41
ATOM     40  O   UNL     1     104.399 125.439 146.311  0.00  0.00    +0.000 OA
ATOM     41  C   UNL     1     104.676 124.685 146.121  0.00  0.00    +0.000 C 
ATOM     42  C   UNL     1     104.154 124.046 146.103  0.00  0.00    +0.000 C 
ENDBRANCH  39  41
ENDBRANCH  33  39
ENDBRANCH  30  35
ENDBRANCH  25  30
ENDBRANCH   1  27
TORSDOF 8
ENDMDL
MODEL 10
REMARK VINA RESULT:      -9.4      7.733     10.899
REMARK  Name = 44258115
REMARK  8 active torsions:
REMARK  status: ('A' for Active; 'I' for Inactive)
REMARK    1  A    between atoms: O_1  and  C_18
REMARK    2  A    between atoms: O_1  and  C_19
REMARK    3  A    between atoms: O_3  and  C_16
REMARK    4  A    between atoms: O_3  and  C_26
REMARK    5  A    between atoms: O_6  and  C_22
REMARK    6  A    between atoms: O_6  and  C_27
REMARK    7  A    between atoms: C_16  and  C_23
REMARK    8  A    between atoms: C_35  and  C_37
REMARK                            x       y       z     vdW  Elec       q    Type
REMARK                         _______ _______ _______ _____ _____    ______ ____
ROOT
ATOM      1  O   UNL     1     111.983 129.698 137.751  0.00  0.00    +0.000 OA
ENDROOT
BRANCH   1   5
ATOM      2  O   UNL     1     112.714 126.961 137.078  0.00  0.00    +0.000 OA
ATOM      3  O   UNL     1     114.207 129.156 135.938  0.00  0.00    +0.000 OA
ATOM      4  O   UNL     1     114.541 127.788 135.627  0.00  0.00    +0.000 OA
ATOM      5  C   UNL     1     112.464 129.165 137.346  0.00  0.00    +0.000 A 
ATOM      6  C   UNL     1     112.335 128.320 137.425  0.00  0.00    +0.000 A 
ATOM      7  C   UNL     1     113.098 129.452 136.842  0.00  0.00    +0.000 A 
ATOM      8  C   UNL     1     112.842 127.772 136.998  0.00  0.00    +0.000 A 
ATOM      9  C   UNL     1     113.595 128.890 136.424  0.00  0.00    +0.000 A 
ATOM     10  C   UNL     1     113.451 128.047 136.515  0.00  0.00    +0.000 A 
ATOM     11  C   UNL     1     113.932 127.512 136.110  0.00  0.00    +0.000 A 
ATOM     12  C   UNL     1     113.194 126.425 136.674  0.00  0.00    +0.000 A 
ATOM     13  C   UNL     1     113.803 126.701 136.190  0.00  0.00    +0.000 A 
BRANCH  12  16
ATOM     14  O   UNL     1     111.593 124.112 136.168  0.00  0.00    +0.000 OA
ATOM     15  O   UNL     1     112.679 123.181 136.991  0.00  0.00    +0.000 OA
ATOM     16  C   UNL     1     113.065 125.615 136.753  0.00  0.00    +0.000 A 
ATOM     17  C   UNL     1     112.394 125.269 136.421  0.00  0.00    +0.000 A 
ATOM     18  C   UNL     1     113.608 125.148 137.164  0.00  0.00    +0.000 A 
ATOM     19  C   UNL     1     112.264 124.458 136.500  0.00  0.00    +0.000 A 
ATOM     20  C   UNL     1     113.479 124.338 137.243  0.00  0.00    +0.000 A 
ATOM     21  C   UNL     1     112.808 123.993 136.911  0.00  0.00    +0.000 A 
ENDBRANCH  12  16
ENDBRANCH   1   5
BRANCH   1  27
ATOM     22  O   UNL     1     112.947 129.825 138.797  0.00  0.00    +0.000 OA
ATOM     23  O   UNL     1     111.229 130.843 140.259  0.00  0.00    +0.000 OA
ATOM     24  O   UNL     1     112.766 130.630 140.819  0.00  0.00    +0.000 OA
ATOM     25  C   UNL     1     111.605 130.271 139.005  0.00  0.00    +0.000 C 
ATOM     26  C   UNL     1     111.802 130.504 139.772  0.00  0.00    +0.000 C 
ATOM     27  C   UNL     1     112.179 129.931 138.518  0.00  0.00    +0.000 C 
ATOM     28  C   UNL     1     112.570 130.397 140.051  0.00  0.00    +0.000 C 
ATOM     29  C   UNL     1     113.143 130.057 139.564  0.00  0.00    +0.000 C 
BRANCH  25  30
ATOM     30  O   UNL     1     110.837 130.377 138.725  0.00  0.00    +0.000 OA
BRANCH  30  35
ATOM     31  O   UNL     1     111.118 131.738 138.243  0.00  0.00    +0.000 OA
ATOM     32  O   UNL     1     109.201 130.804 138.122  0.00  0.00    +0.000 OA
ATOM     33  C   UNL     1     109.901 132.055 137.794  0.00  0.00    +0.000 C 
ATOM     34  C   UNL     1     109.868 131.289 138.099  0.00  0.00    +0.000 C 
ATOM     35  C   UNL     1     110.620 131.093 138.376  0.00  0.00    +0.000 C 
ATOM     36  C   UNL     1     110.672 132.332 137.883  0.00  0.00    +0.000 C 
BRANCH  33  38
ATOM     37  O   UNL     1     108.537 132.353 138.098  0.00  0.00    +0.000 OA
ATOM     38  C   UNL     1     109.100 132.013 137.601  0.00  0.00    +0.000 C 
ENDBRANCH  33  38
BRANCH  33  39
ATOM     39  O   UNL     1     109.684 132.770 137.445  0.00  0.00    +0.000 OA
BRANCH  39  41
ATOM     40  O   UNL     1     109.833 132.608 136.033  0.00  0.00    +0.000 OA
ATOM     41  C   UNL     1     110.028 133.001 136.731  0.00  0.00    +0.000 C 
ATOM     42  C   UNL     1     110.567 133.626 136.716  0.00  0.00    +0.000 C 
ENDBRANCH  39  41
ENDBRANCH  33  39
ENDBRANCH  30  35
ENDBRANCH  25  30
ENDBRANCH   1  27
TORSDOF 8
ENDMDL
