MODEL 1
REMARK VINA RESULT:     -10.6      0.000      0.000
REMARK  Name = 131752196
REMARK  7 active torsions:
REMARK  status: ('A' for Active; 'I' for Inactive)
REMARK    1  A    between atoms: O_2  and  C_13
REMARK    2  A    between atoms: O_2  and  C_25
REMARK    3  A    between atoms: C_15  and  C_18
REMARK    4  A    between atoms: C_17  and  C_19
REMARK    5  A    between atoms: C_25  and  C_29
REMARK    6  A    between atoms: C_27  and  C_30
REMARK    7  A    between atoms: C_31  and  C_34
REMARK                            x       y       z     vdW  Elec       q    Type
REMARK                         _______ _______ _______ _____ _____    ______ ____
ROOT
ATOM      1  O   UNL     1     110.857 125.782 136.386  0.00  0.00    +0.000 OA
ATOM      2  O   UNL     1     110.011 126.288 138.657  0.00  0.00    +0.000 OA
ATOM      3  O   UNL     1     109.086 126.636 137.335  0.00  0.00    +0.000 OA
ATOM      4  C   UNL     1     111.037 125.777 137.804  0.00  0.00    +0.000 C 
ATOM      5  C   UNL     1     110.293 126.119 137.900  0.00  0.00    +0.000 C 
ATOM      6  C   UNL     1     111.319 125.607 137.048  0.00  0.00    +0.000 C 
ATOM      7  C   UNL     1     109.831 126.293 137.239  0.00  0.00    +0.000 C 
ATOM      8  C   UNL     1     110.112 126.124 136.482  0.00  0.00    +0.000 C 
ENDROOT
BRANCH   6  13
ATOM      9  O   UNL     1     112.601 126.582 136.663  0.00  0.00    +0.000 OA
ATOM     10  O   UNL     1     111.508 123.980 137.240  0.00  0.00    +0.000 OA
ATOM     11  O   UNL     1     114.296 124.236 136.664  0.00  0.00    +0.000 OA
ATOM     12  O   UNL     1     114.882 125.522 136.370  0.00  0.00    +0.000 OA
ATOM     13  C   UNL     1     112.063 125.265 136.952  0.00  0.00    +0.000 A 
ATOM     14  C   UNL     1     112.713 125.736 136.760  0.00  0.00    +0.000 A 
ATOM     15  C   UNL     1     112.158 124.451 137.048  0.00  0.00    +0.000 A 
ATOM     16  C   UNL     1     113.457 125.394 136.664  0.00  0.00    +0.000 A 
ATOM     17  C   UNL     1     112.902 124.108 136.952  0.00  0.00    +0.000 A 
ATOM     18  C   UNL     1     113.551 124.579 136.760  0.00  0.00    +0.000 A 
ATOM     19  C   UNL     1     114.141 125.873 136.464  0.00  0.00    +0.000 A 
ATOM     20  C   UNL     1     113.274 127.079 136.463  0.00  0.00    +0.000 A 
ATOM     21  C   UNL     1     114.049 126.722 136.363  0.00  0.00    +0.000 A 
BRANCH  20  23
ATOM     22  O   UNL     1     112.884 130.333 136.080  0.00  0.00    +0.000 OA
ATOM     23  C   UNL     1     113.177 127.892 136.368  0.00  0.00    +0.000 A 
ATOM     24  C   UNL     1     113.340 128.404 136.993  0.00  0.00    +0.000 A 
ATOM     25  C   UNL     1     112.916 128.194 135.645  0.00  0.00    +0.000 A 
ATOM     26  C   UNL     1     113.242 129.217 136.898  0.00  0.00    +0.000 A 
ATOM     27  C   UNL     1     112.819 129.008 135.549  0.00  0.00    +0.000 A 
ATOM     28  C   UNL     1     112.982 129.519 136.176  0.00  0.00    +0.000 A 
ENDBRANCH  20  23
ENDBRANCH   6  13
BRANCH   8  30
ATOM     29  O   UNL     1     109.716 125.837 135.139  0.00  0.00    +0.000 OA
ATOM     30  C   UNL     1     109.651 126.298 135.822  0.00  0.00    +0.000 C 
ENDBRANCH   8  30
BRANCH   4  31
ATOM     31  O   UNL     1     111.500 125.603 138.465  0.00  0.00    +0.000 OA
BRANCH  31  33
ATOM     32  O   UNL     1     110.720 125.728 139.656  0.00  0.00    +0.000 OA
ATOM     33  C   UNL     1     111.349 125.978 139.184  0.00  0.00    +0.000 C 
BRANCH  33  34
ATOM     34  C   UNL     1     111.827 126.604 139.430  0.00  0.00    +0.000 C 
ATOM     35  C   UNL     1     112.311 126.517 140.092  0.00  0.00    +0.000 C 
BRANCH  35  37
ATOM     36  O   UNL     1     114.221 129.021 141.077  0.00  0.00    +0.000 OA
ATOM     37  C   UNL     1     112.789 127.144 140.338  0.00  0.00    +0.000 A 
ATOM     38  C   UNL     1     112.446 127.856 140.574  0.00  0.00    +0.000 A 
ATOM     39  C   UNL     1     113.609 127.057 140.349  0.00  0.00    +0.000 A 
ATOM     40  C   UNL     1     112.924 128.481 140.820  0.00  0.00    +0.000 A 
ATOM     41  C   UNL     1     114.087 127.683 140.594  0.00  0.00    +0.000 A 
ATOM     42  C   UNL     1     113.743 128.395 140.830  0.00  0.00    +0.000 A 
ENDBRANCH  35  37
ENDBRANCH  33  34
ENDBRANCH  31  33
ENDBRANCH   4  31
TORSDOF 7
ENDMDL
MODEL 2
REMARK VINA RESULT:     -10.4      1.097      3.298
REMARK  Name = 131752196
REMARK  7 active torsions:
REMARK  status: ('A' for Active; 'I' for Inactive)
REMARK    1  A    between atoms: O_2  and  C_13
REMARK    2  A    between atoms: O_2  and  C_25
REMARK    3  A    between atoms: C_15  and  C_18
REMARK    4  A    between atoms: C_17  and  C_19
REMARK    5  A    between atoms: C_25  and  C_29
REMARK    6  A    between atoms: C_27  and  C_30
REMARK    7  A    between atoms: C_31  and  C_34
REMARK                            x       y       z     vdW  Elec       q    Type
REMARK                         _______ _______ _______ _____ _____    ______ ____
ROOT
ATOM      1  O   UNL     1     110.841 125.611 138.265  0.00  0.00    +0.000 OA
ATOM      2  O   UNL     1     110.045 127.539 136.931  0.00  0.00    +0.000 OA
ATOM      3  O   UNL     1     109.228 127.083 138.290  0.00  0.00    +0.000 OA
ATOM      4  C   UNL     1     110.983 126.482 137.141  0.00  0.00    +0.000 C 
ATOM      5  C   UNL     1     110.310 126.896 137.376  0.00  0.00    +0.000 C 
ATOM      6  C   UNL     1     111.249 125.840 137.584  0.00  0.00    +0.000 C 
ATOM      7  C   UNL     1     109.902 126.668 138.055  0.00  0.00    +0.000 C 
ATOM      8  C   UNL     1     110.167 126.026 138.500  0.00  0.00    +0.000 C 
ENDROOT
BRANCH   6  13
ATOM      9  O   UNL     1     112.688 126.166 138.337  0.00  0.00    +0.000 OA
ATOM     10  O   UNL     1     111.146 124.711 136.386  0.00  0.00    +0.000 OA
ATOM     11  O   UNL     1     113.944 124.183 136.644  0.00  0.00    +0.000 OA
ATOM     12  O   UNL     1     114.750 124.891 137.609  0.00  0.00    +0.000 OA
ATOM     13  C   UNL     1     111.922 125.426 137.350  0.00  0.00    +0.000 A 
ATOM     14  C   UNL     1     112.648 125.576 137.714  0.00  0.00    +0.000 A 
ATOM     15  C   UNL     1     111.872 124.862 136.750  0.00  0.00    +0.000 A 
ATOM     16  C   UNL     1     113.321 125.162 137.479  0.00  0.00    +0.000 A 
ATOM     17  C   UNL     1     112.545 124.448 136.515  0.00  0.00    +0.000 A 
ATOM     18  C   UNL     1     113.269 124.598 136.879  0.00  0.00    +0.000 A 
ATOM     19  C   UNL     1     114.081 125.309 137.850  0.00  0.00    +0.000 A 
ATOM     20  C   UNL     1     113.440 126.328 138.721  0.00  0.00    +0.000 A 
ATOM     21  C   UNL     1     114.141 125.896 138.476  0.00  0.00    +0.000 A 
BRANCH  20  23
ATOM     22  O   UNL     1     113.633 128.586 141.118  0.00  0.00    +0.000 OA
ATOM     23  C   UNL     1     113.488 126.893 139.320  0.00  0.00    +0.000 A 
ATOM     24  C   UNL     1     113.568 127.691 139.130  0.00  0.00    +0.000 A 
ATOM     25  C   UNL     1     113.457 126.658 140.110  0.00  0.00    +0.000 A 
ATOM     26  C   UNL     1     113.616 128.255 139.728  0.00  0.00    +0.000 A 
ATOM     27  C   UNL     1     113.505 127.223 140.710  0.00  0.00    +0.000 A 
ATOM     28  C   UNL     1     113.585 128.021 140.519  0.00  0.00    +0.000 A 
ENDBRANCH  20  23
ENDBRANCH   6  13
BRANCH   8  30
ATOM     29  O   UNL     1     110.156 125.401 139.785  0.00  0.00    +0.000 OA
ATOM     30  C   UNL     1     109.759 125.797 139.179  0.00  0.00    +0.000 C 
ENDBRANCH   8  30
BRANCH   4  31
ATOM     31  O   UNL     1     111.392 126.711 136.461  0.00  0.00    +0.000 OA
BRANCH  31  33
ATOM     32  O   UNL     1     110.612 127.667 135.740  0.00  0.00    +0.000 OA
ATOM     33  C   UNL     1     111.296 127.472 136.159  0.00  0.00    +0.000 C 
BRANCH  33  34
ATOM     34  C   UNL     1     111.884 128.039 136.276  0.00  0.00    +0.000 C 
ATOM     35  C   UNL     1     112.320 128.320 135.634  0.00  0.00    +0.000 C 
BRANCH  35  37
ATOM     36  O   UNL     1     114.672 130.586 136.102  0.00  0.00    +0.000 OA
ATOM     37  C   UNL     1     112.908 128.887 135.751  0.00  0.00    +0.000 A 
ATOM     38  C   UNL     1     113.699 128.694 135.617  0.00  0.00    +0.000 A 
ATOM     39  C   UNL     1     112.705 129.646 136.001  0.00  0.00    +0.000 A 
ATOM     40  C   UNL     1     114.286 129.261 135.734  0.00  0.00    +0.000 A 
ATOM     41  C   UNL     1     113.293 130.213 136.119  0.00  0.00    +0.000 A 
ATOM     42  C   UNL     1     114.084 130.019 135.985  0.00  0.00    +0.000 A 
ENDBRANCH  35  37
ENDBRANCH  33  34
ENDBRANCH  31  33
ENDBRANCH   4  31
TORSDOF 7
ENDMDL
MODEL 3
REMARK VINA RESULT:     -10.3      1.443      4.145
REMARK  Name = 131752196
REMARK  7 active torsions:
REMARK  status: ('A' for Active; 'I' for Inactive)
REMARK    1  A    between atoms: O_2  and  C_13
REMARK    2  A    between atoms: O_2  and  C_25
REMARK    3  A    between atoms: C_15  and  C_18
REMARK    4  A    between atoms: C_17  and  C_19
REMARK    5  A    between atoms: C_25  and  C_29
REMARK    6  A    between atoms: C_27  and  C_30
REMARK    7  A    between atoms: C_31  and  C_34
REMARK                            x       y       z     vdW  Elec       q    Type
REMARK                         _______ _______ _______ _____ _____    ______ ____
ROOT
ATOM      1  O   UNL     1     110.523 126.646 138.570  0.00  0.00    +0.000 OA
ATOM      2  O   UNL     1     111.723 128.807 138.690  0.00  0.00    +0.000 OA
ATOM      3  O   UNL     1     111.576 127.869 140.040  0.00  0.00    +0.000 OA
ATOM      4  C   UNL     1     110.997 127.835 137.935  0.00  0.00    +0.000 C 
ATOM      5  C   UNL     1     111.323 128.087 138.650  0.00  0.00    +0.000 C 
ATOM      6  C   UNL     1     110.596 127.115 137.894  0.00  0.00    +0.000 C 
ATOM      7  C   UNL     1     111.249 127.618 139.324  0.00  0.00    +0.000 C 
ATOM      8  C   UNL     1     110.849 126.897 139.285  0.00  0.00    +0.000 C 
ENDROOT
BRANCH   6  13
ATOM      9  O   UNL     1     111.470 126.082 136.940  0.00  0.00    +0.000 OA
ATOM     10  O   UNL     1     109.101 127.644 137.441  0.00  0.00    +0.000 OA
ATOM     11  O   UNL     1     109.291 126.111 135.035  0.00  0.00    +0.000 OA
ATOM     12  O   UNL     1     110.460 125.316 134.748  0.00  0.00    +0.000 OA
ATOM     13  C   UNL     1     110.270 126.865 137.180  0.00  0.00    +0.000 A 
ATOM     14  C   UNL     1     110.692 126.349 136.692  0.00  0.00    +0.000 A 
ATOM     15  C   UNL     1     109.523 127.128 136.953  0.00  0.00    +0.000 A 
ATOM     16  C   UNL     1     110.366 126.098 135.978  0.00  0.00    +0.000 A 
ATOM     17  C   UNL     1     109.196 126.877 136.238  0.00  0.00    +0.000 A 
ATOM     18  C   UNL     1     109.617 126.362 135.751  0.00  0.00    +0.000 A 
ATOM     19  C   UNL     1     110.794 125.562 135.461  0.00  0.00    +0.000 A 
ATOM     20  C   UNL     1     111.914 125.545 136.437  0.00  0.00    +0.000 A 
ATOM     21  C   UNL     1     111.574 125.283 135.692  0.00  0.00    +0.000 A 
BRANCH  20  23
ATOM     22  O   UNL     1     114.905 124.497 137.355  0.00  0.00    +0.000 OA
ATOM     23  C   UNL     1     112.662 125.283 136.666  0.00  0.00    +0.000 A 
ATOM     24  C   UNL     1     112.756 124.524 136.975  0.00  0.00    +0.000 A 
ATOM     25  C   UNL     1     113.315 125.780 136.586  0.00  0.00    +0.000 A 
ATOM     26  C   UNL     1     113.503 124.262 137.205  0.00  0.00    +0.000 A 
ATOM     27  C   UNL     1     114.063 125.518 136.816  0.00  0.00    +0.000 A 
ATOM     28  C   UNL     1     114.157 124.759 137.125  0.00  0.00    +0.000 A 
ENDBRANCH  20  23
ENDBRANCH   6  13
BRANCH   8  30
ATOM     29  O   UNL     1     110.691 125.610 139.885  0.00  0.00    +0.000 OA
ATOM     30  C   UNL     1     110.775 126.428 139.959  0.00  0.00    +0.000 C 
ENDBRANCH   8  30
BRANCH   4  31
ATOM     31  O   UNL     1     111.070 128.305 137.260  0.00  0.00    +0.000 OA
BRANCH  31  33
ATOM     32  O   UNL     1     111.263 129.648 137.709  0.00  0.00    +0.000 OA
ATOM     33  C   UNL     1     111.527 128.992 137.284  0.00  0.00    +0.000 C 
BRANCH  33  34
ATOM     34  C   UNL     1     112.247 129.022 136.882  0.00  0.00    +0.000 C 
ATOM     35  C   UNL     1     112.329 129.507 136.220  0.00  0.00    +0.000 C 
BRANCH  35  37
ATOM     36  O   UNL     1     115.209 129.628 134.613  0.00  0.00    +0.000 OA
ATOM     37  C   UNL     1     113.050 129.537 135.818  0.00  0.00    +0.000 A 
ATOM     38  C   UNL     1     113.156 129.096 135.129  0.00  0.00    +0.000 A 
ATOM     39  C   UNL     1     113.662 130.008 136.105  0.00  0.00    +0.000 A 
ATOM     40  C   UNL     1     113.876 129.126 134.728  0.00  0.00    +0.000 A 
ATOM     41  C   UNL     1     114.382 130.039 135.704  0.00  0.00    +0.000 A 
ATOM     42  C   UNL     1     114.489 129.597 135.015  0.00  0.00    +0.000 A 
ENDBRANCH  35  37
ENDBRANCH  33  34
ENDBRANCH  31  33
ENDBRANCH   4  31
TORSDOF 7
ENDMDL
MODEL 4
REMARK VINA RESULT:     -10.0      2.649      5.050
REMARK  Name = 131752196
REMARK  7 active torsions:
REMARK  status: ('A' for Active; 'I' for Inactive)
REMARK    1  A    between atoms: O_2  and  C_13
REMARK    2  A    between atoms: O_2  and  C_25
REMARK    3  A    between atoms: C_15  and  C_18
REMARK    4  A    between atoms: C_17  and  C_19
REMARK    5  A    between atoms: C_25  and  C_29
REMARK    6  A    between atoms: C_27  and  C_30
REMARK    7  A    between atoms: C_31  and  C_34
REMARK                            x       y       z     vdW  Elec       q    Type
REMARK                         _______ _______ _______ _____ _____    ______ ____
ROOT
ATOM      1  O   UNL     1     109.730 130.977 136.704  0.00  0.00    +0.000 OA
ATOM      2  O   UNL     1     108.501 129.408 135.236  0.00  0.00    +0.000 OA
ATOM      3  O   UNL     1     108.831 130.939 134.715  0.00  0.00    +0.000 OA
ATOM      4  C   UNL     1     109.155 129.689 136.475  0.00  0.00    +0.000 C 
ATOM      5  C   UNL     1     108.911 129.931 135.725  0.00  0.00    +0.000 C 
ATOM      6  C   UNL     1     109.565 130.211 136.965  0.00  0.00    +0.000 C 
ATOM      7  C   UNL     1     109.076 130.696 135.465  0.00  0.00    +0.000 C 
ATOM      8  C   UNL     1     109.486 131.219 135.954  0.00  0.00    +0.000 C 
ENDROOT
BRANCH   6  13
ATOM      9  O   UNL     1     111.131 129.715 137.170  0.00  0.00    +0.000 OA
ATOM     10  O   UNL     1     108.499 130.227 138.224  0.00  0.00    +0.000 OA
ATOM     11  O   UNL     1     110.542 129.241 139.964  0.00  0.00    +0.000 OA
ATOM     12  O   UNL     1     111.873 128.973 139.474  0.00  0.00    +0.000 OA
ATOM     13  C   UNL     1     109.809 129.969 137.714  0.00  0.00    +0.000 A 
ATOM     14  C   UNL     1     110.587 129.718 137.834  0.00  0.00    +0.000 A 
ATOM     15  C   UNL     1     109.277 129.976 138.344  0.00  0.00    +0.000 A 
ATOM     16  C   UNL     1     110.831 129.476 138.583  0.00  0.00    +0.000 A 
ATOM     17  C   UNL     1     109.521 129.734 139.094  0.00  0.00    +0.000 A 
ATOM     18  C   UNL     1     110.298 129.484 139.213  0.00  0.00    +0.000 A 
ATOM     19  C   UNL     1     111.637 129.213 138.721  0.00  0.00    +0.000 A 
ATOM     20  C   UNL     1     111.943 129.456 137.288  0.00  0.00    +0.000 A 
ATOM     21  C   UNL     1     112.197 129.203 138.069  0.00  0.00    +0.000 A 
BRANCH  20  23
ATOM     22  O   UNL     1     114.065 129.430 134.762  0.00  0.00    +0.000 OA
ATOM     23  C   UNL     1     112.473 129.449 136.656  0.00  0.00    +0.000 A 
ATOM     24  C   UNL     1     112.548 128.775 136.187  0.00  0.00    +0.000 A 
ATOM     25  C   UNL     1     112.929 130.117 136.495  0.00  0.00    +0.000 A 
ATOM     26  C   UNL     1     113.078 128.769 135.556  0.00  0.00    +0.000 A 
ATOM     27  C   UNL     1     113.460 130.111 135.863  0.00  0.00    +0.000 A 
ATOM     28  C   UNL     1     113.534 129.437 135.393  0.00  0.00    +0.000 A 
ENDBRANCH  20  23
ENDBRANCH   6  13
BRANCH   8  30
ATOM     29  O   UNL     1     109.731 132.598 136.241  0.00  0.00    +0.000 OA
ATOM     30  C   UNL     1     109.651 131.984 135.694  0.00  0.00    +0.000 C 
ENDBRANCH   8  30
BRANCH   4  31
ATOM     31  O   UNL     1     108.990 128.923 136.736  0.00  0.00    +0.000 OA
BRANCH  31  33
ATOM     32  O   UNL     1     108.047 128.343 135.832  0.00  0.00    +0.000 OA
ATOM     33  C   UNL     1     108.790 128.337 136.191  0.00  0.00    +0.000 C 
BRANCH  33  34
ATOM     34  C   UNL     1     109.333 127.743 136.006  0.00  0.00    +0.000 C 
ATOM     35  C   UNL     1     109.203 126.971 136.264  0.00  0.00    +0.000 C 
BRANCH  35  37
ATOM     36  O   UNL     1     111.375 124.599 135.523  0.00  0.00    +0.000 OA
ATOM     37  C   UNL     1     109.746 126.377 136.078  0.00  0.00    +0.000 A 
ATOM     38  C   UNL     1     110.245 126.078 136.663  0.00  0.00    +0.000 A 
ATOM     39  C   UNL     1     109.791 126.085 135.309  0.00  0.00    +0.000 A 
ATOM     40  C   UNL     1     110.787 125.485 136.478  0.00  0.00    +0.000 A 
ATOM     41  C   UNL     1     110.333 125.492 135.123  0.00  0.00    +0.000 A 
ATOM     42  C   UNL     1     110.832 125.193 135.709  0.00  0.00    +0.000 A 
ENDBRANCH  35  37
ENDBRANCH  33  34
ENDBRANCH  31  33
ENDBRANCH   4  31
TORSDOF 7
ENDMDL
MODEL 5
REMARK VINA RESULT:     -10.0      1.318      3.244
REMARK  Name = 131752196
REMARK  7 active torsions:
REMARK  status: ('A' for Active; 'I' for Inactive)
REMARK    1  A    between atoms: O_2  and  C_13
REMARK    2  A    between atoms: O_2  and  C_25
REMARK    3  A    between atoms: C_15  and  C_18
REMARK    4  A    between atoms: C_17  and  C_19
REMARK    5  A    between atoms: C_25  and  C_29
REMARK    6  A    between atoms: C_27  and  C_30
REMARK    7  A    between atoms: C_31  and  C_34
REMARK                            x       y       z     vdW  Elec       q    Type
REMARK                         _______ _______ _______ _____ _____    ______ ____
ROOT
ATOM      1  O   UNL     1     113.254 127.524 136.074  0.00  0.00    +0.000 OA
ATOM      2  O   UNL     1     113.027 128.569 138.307  0.00  0.00    +0.000 OA
ATOM      3  O   UNL     1     113.189 129.516 136.965  0.00  0.00    +0.000 OA
ATOM      4  C   UNL     1     113.098 127.399 137.489  0.00  0.00    +0.000 C 
ATOM      5  C   UNL     1     113.103 128.221 137.562  0.00  0.00    +0.000 C 
ATOM      6  C   UNL     1     113.173 127.050 136.745  0.00  0.00    +0.000 C 
ATOM      7  C   UNL     1     113.183 128.693 136.892  0.00  0.00    +0.000 C 
ATOM      8  C   UNL     1     113.259 128.346 136.147  0.00  0.00    +0.000 C 
ENDROOT
BRANCH   6  13
ATOM      9  O   UNL     1     111.738 126.288 136.426  0.00  0.00    +0.000 OA
ATOM     10  O   UNL     1     114.575 126.199 136.917  0.00  0.00    +0.000 OA
ATOM     11  O   UNL     1     113.152 123.763 136.453  0.00  0.00    +0.000 OA
ATOM     12  O   UNL     1     111.731 123.766 136.203  0.00  0.00    +0.000 OA
ATOM     13  C   UNL     1     113.168 126.229 136.672  0.00  0.00    +0.000 A 
ATOM     14  C   UNL     1     112.461 125.833 136.513  0.00  0.00    +0.000 A 
ATOM     15  C   UNL     1     113.868 125.803 136.758  0.00  0.00    +0.000 A 
ATOM     16  C   UNL     1     112.456 125.012 136.440  0.00  0.00    +0.000 A 
ATOM     17  C   UNL     1     113.863 124.981 136.685  0.00  0.00    +0.000 A 
ATOM     18  C   UNL     1     113.157 124.586 136.526  0.00  0.00    +0.000 A 
ATOM     19  C   UNL     1     111.727 124.588 136.275  0.00  0.00    +0.000 A 
ATOM     20  C   UNL     1     110.998 125.882 136.260  0.00  0.00    +0.000 A 
ATOM     21  C   UNL     1     110.993 125.026 136.184  0.00  0.00    +0.000 A 
BRANCH  20  23
ATOM     22  O   UNL     1     108.200 127.597 135.917  0.00  0.00    +0.000 OA
ATOM     23  C   UNL     1     110.299 126.311 136.175  0.00  0.00    +0.000 A 
ATOM     24  C   UNL     1     109.822 126.459 136.831  0.00  0.00    +0.000 A 
ATOM     25  C   UNL     1     110.076 126.591 135.432  0.00  0.00    +0.000 A 
ATOM     26  C   UNL     1     109.123 126.887 136.746  0.00  0.00    +0.000 A 
ATOM     27  C   UNL     1     109.376 127.020 135.345  0.00  0.00    +0.000 A 
ATOM     28  C   UNL     1     108.900 127.168 136.003  0.00  0.00    +0.000 A 
ENDBRANCH  20  23
ENDBRANCH   6  13
BRANCH   8  30
ATOM     29  O   UNL     1     112.794 128.755 134.859  0.00  0.00    +0.000 OA
ATOM     30  C   UNL     1     113.339 128.818 135.477  0.00  0.00    +0.000 C 
ENDBRANCH   8  30
BRANCH   4  31
ATOM     31  O   UNL     1     113.017 126.925 138.160  0.00  0.00    +0.000 OA
BRANCH  31  33
ATOM     32  O   UNL     1     113.632 127.660 139.220  0.00  0.00    +0.000 OA
ATOM     33  C   UNL     1     112.974 127.273 138.907  0.00  0.00    +0.000 C 
BRANCH  33  34
ATOM     34  C   UNL     1     112.273 127.233 139.341  0.00  0.00    +0.000 C 
ATOM     35  C   UNL     1     112.226 126.744 140.004  0.00  0.00    +0.000 C 
BRANCH  35  37
ATOM     36  O   UNL     1     109.423 126.585 141.739  0.00  0.00    +0.000 OA
ATOM     37  C   UNL     1     111.525 126.704 140.438  0.00  0.00    +0.000 A 
ATOM     38  C   UNL     1     111.476 127.071 141.175  0.00  0.00    +0.000 A 
ATOM     39  C   UNL     1     110.875 126.299 140.134  0.00  0.00    +0.000 A 
ATOM     40  C   UNL     1     110.775 127.030 141.608  0.00  0.00    +0.000 A 
ATOM     41  C   UNL     1     110.174 126.259 140.567  0.00  0.00    +0.000 A 
ATOM     42  C   UNL     1     110.125 126.625 141.305  0.00  0.00    +0.000 A 
ENDBRANCH  35  37
ENDBRANCH  33  34
ENDBRANCH  31  33
ENDBRANCH   4  31
TORSDOF 7
ENDMDL
MODEL 6
REMARK VINA RESULT:     -10.0      1.721      3.837
REMARK  Name = 131752196
REMARK  7 active torsions:
REMARK  status: ('A' for Active; 'I' for Inactive)
REMARK    1  A    between atoms: O_2  and  C_13
REMARK    2  A    between atoms: O_2  and  C_25
REMARK    3  A    between atoms: C_15  and  C_18
REMARK    4  A    between atoms: C_17  and  C_19
REMARK    5  A    between atoms: C_25  and  C_29
REMARK    6  A    between atoms: C_27  and  C_30
REMARK    7  A    between atoms: C_31  and  C_34
REMARK                            x       y       z     vdW  Elec       q    Type
REMARK                         _______ _______ _______ _____ _____    ______ ____
ROOT
ATOM      1  O   UNL     1     112.754 128.475 135.386  0.00  0.00    +0.000 OA
ATOM      2  O   UNL     1     112.384 129.714 137.496  0.00  0.00    +0.000 OA
ATOM      3  O   UNL     1     113.750 129.984 136.610  0.00  0.00    +0.000 OA
ATOM      4  C   UNL     1     111.948 128.754 136.533  0.00  0.00    +0.000 C 
ATOM      5  C   UNL     1     112.508 129.301 136.793  0.00  0.00    +0.000 C 
ATOM      6  C   UNL     1     112.070 128.340 135.829  0.00  0.00    +0.000 C 
ATOM      7  C   UNL     1     113.190 129.435 136.349  0.00  0.00    +0.000 C 
ATOM      8  C   UNL     1     113.313 129.022 135.646  0.00  0.00    +0.000 C 
ENDROOT
BRANCH   6  13
ATOM      9  O   UNL     1     112.318 126.735 136.151  0.00  0.00    +0.000 OA
ATOM     10  O   UNL     1     110.736 128.853 135.006  0.00  0.00    +0.000 OA
ATOM     11  O   UNL     1     109.832 126.150 134.789  0.00  0.00    +0.000 OA
ATOM     12  O   UNL     1     110.596 125.061 135.350  0.00  0.00    +0.000 OA
ATOM     13  C   UNL     1     111.512 127.793 135.570  0.00  0.00    +0.000 A 
ATOM     14  C   UNL     1     111.619 126.989 135.722  0.00  0.00    +0.000 A 
ATOM     15  C   UNL     1     110.844 128.049 135.158  0.00  0.00    +0.000 A 
ATOM     16  C   UNL     1     111.060 126.441 135.462  0.00  0.00    +0.000 A 
ATOM     17  C   UNL     1     110.284 127.501 134.898  0.00  0.00    +0.000 A 
ATOM     18  C   UNL     1     110.392 126.698 135.050  0.00  0.00    +0.000 A 
ATOM     19  C   UNL     1     111.160 125.602 135.613  0.00  0.00    +0.000 A 
ATOM     20  C   UNL     1     112.437 125.899 136.312  0.00  0.00    +0.000 A 
ATOM     21  C   UNL     1     111.854 125.329 136.042  0.00  0.00    +0.000 A 
BRANCH  20  23
ATOM     22  O   UNL     1     115.109 124.885 137.961  0.00  0.00    +0.000 OA
ATOM     23  C   UNL     1     113.105 125.645 136.724  0.00  0.00    +0.000 A 
ATOM     24  C   UNL     1     113.787 125.431 136.313  0.00  0.00    +0.000 A 
ATOM     25  C   UNL     1     113.090 125.606 137.548  0.00  0.00    +0.000 A 
ATOM     26  C   UNL     1     114.454 125.178 136.725  0.00  0.00    +0.000 A 
ATOM     27  C   UNL     1     113.759 125.353 137.961  0.00  0.00    +0.000 A 
ATOM     28  C   UNL     1     114.441 125.139 137.549  0.00  0.00    +0.000 A 
ENDBRANCH  20  23
ENDBRANCH   6  13
BRANCH   8  30
ATOM     29  O   UNL     1     114.551 128.553 135.107  0.00  0.00    +0.000 OA
ATOM     30  C   UNL     1     113.995 129.157 135.202  0.00  0.00    +0.000 C 
ENDBRANCH   8  30
BRANCH   4  31
ATOM     31  O   UNL     1     111.265 128.619 136.976  0.00  0.00    +0.000 OA
BRANCH  31  33
ATOM     32  O   UNL     1     111.088 129.690 137.906  0.00  0.00    +0.000 OA
ATOM     33  C   UNL     1     111.219 128.889 137.754  0.00  0.00    +0.000 C 
BRANCH  33  34
ATOM     34  C   UNL     1     111.305 128.359 138.381  0.00  0.00    +0.000 C 
ATOM     35  C   UNL     1     110.665 128.200 138.876  0.00  0.00    +0.000 C 
BRANCH  35  37
ATOM     36  O   UNL     1     111.006 126.078 141.380  0.00  0.00    +0.000 OA
ATOM     37  C   UNL     1     110.750 127.669 139.503  0.00  0.00    +0.000 A 
ATOM     38  C   UNL     1     110.382 126.931 139.471  0.00  0.00    +0.000 A 
ATOM     39  C   UNL     1     111.203 127.876 140.160  0.00  0.00    +0.000 A 
ATOM     40  C   UNL     1     110.468 126.401 140.097  0.00  0.00    +0.000 A 
ATOM     41  C   UNL     1     111.288 127.346 140.786  0.00  0.00    +0.000 A 
ATOM     42  C   UNL     1     110.921 126.609 140.754  0.00  0.00    +0.000 A 
ENDBRANCH  35  37
ENDBRANCH  33  34
ENDBRANCH  31  33
ENDBRANCH   4  31
TORSDOF 7
ENDMDL
MODEL 7
REMARK VINA RESULT:      -9.8      2.002      4.582
REMARK  Name = 131752196
REMARK  7 active torsions:
REMARK  status: ('A' for Active; 'I' for Inactive)
REMARK    1  A    between atoms: O_2  and  C_13
REMARK    2  A    between atoms: O_2  and  C_25
REMARK    3  A    between atoms: C_15  and  C_18
REMARK    4  A    between atoms: C_17  and  C_19
REMARK    5  A    between atoms: C_25  and  C_29
REMARK    6  A    between atoms: C_27  and  C_30
REMARK    7  A    between atoms: C_31  and  C_34
REMARK                            x       y       z     vdW  Elec       q    Type
REMARK                         _______ _______ _______ _____ _____    ______ ____
ROOT
ATOM      1  O   UNL     1     112.569 129.609 140.073  0.00  0.00    +0.000 OA
ATOM      2  O   UNL     1     113.993 127.597 140.301  0.00  0.00    +0.000 OA
ATOM      3  O   UNL     1     114.442 129.011 141.023  0.00  0.00    +0.000 OA
ATOM      4  C   UNL     1     112.819 128.231 139.788  0.00  0.00    +0.000 C 
ATOM      5  C   UNL     1     113.518 128.268 140.225  0.00  0.00    +0.000 C 
ATOM      6  C   UNL     1     112.344 128.901 139.712  0.00  0.00    +0.000 C 
ATOM      7  C   UNL     1     113.742 128.975 140.586  0.00  0.00    +0.000 C 
ATOM      8  C   UNL     1     113.268 129.646 140.510  0.00  0.00    +0.000 C 
ENDROOT
BRANCH   6  13
ATOM      9  O   UNL     1     112.371 129.381 138.127  0.00  0.00    +0.000 OA
ATOM     10  O   UNL     1     110.957 128.358 140.420  0.00  0.00    +0.000 OA
ATOM     11  O   UNL     1     109.549 128.755 137.964  0.00  0.00    +0.000 OA
ATOM     12  O   UNL     1     110.221 129.265 136.793  0.00  0.00    +0.000 OA
ATOM     13  C   UNL     1     111.647 128.865 139.275  0.00  0.00    +0.000 A 
ATOM     14  C   UNL     1     111.642 129.100 138.484  0.00  0.00    +0.000 A 
ATOM     15  C   UNL     1     110.952 128.593 139.629  0.00  0.00    +0.000 A 
ATOM     16  C   UNL     1     110.943 129.063 138.047  0.00  0.00    +0.000 A 
ATOM     17  C   UNL     1     110.254 128.556 139.192  0.00  0.00    +0.000 A 
ATOM     18  C   UNL     1     110.249 128.791 138.401  0.00  0.00    +0.000 A 
ATOM     19  C   UNL     1     110.925 129.305 137.223  0.00  0.00    +0.000 A 
ATOM     20  C   UNL     1     112.372 129.627 137.303  0.00  0.00    +0.000 A 
ATOM     21  C   UNL     1     111.645 129.589 136.848  0.00  0.00    +0.000 A 
BRANCH  20  23
ATOM     22  O   UNL     1     115.153 130.714 135.899  0.00  0.00    +0.000 OA
ATOM     23  C   UNL     1     113.068 129.899 136.952  0.00  0.00    +0.000 A 
ATOM     24  C   UNL     1     113.535 129.383 136.509  0.00  0.00    +0.000 A 
ATOM     25  C   UNL     1     113.295 130.686 137.044  0.00  0.00    +0.000 A 
ATOM     26  C   UNL     1     114.230 129.655 136.159  0.00  0.00    +0.000 A 
ATOM     27  C   UNL     1     113.991 130.958 136.693  0.00  0.00    +0.000 A 
ATOM     28  C   UNL     1     114.458 130.442 136.250  0.00  0.00    +0.000 A 
ENDBRANCH  20  23
ENDBRANCH   6  13
BRANCH   8  30
ATOM     29  O   UNL     1     112.925 130.933 141.029  0.00  0.00    +0.000 OA
ATOM     30  C   UNL     1     113.492 130.352 140.871  0.00  0.00    +0.000 C 
ENDBRANCH   8  30
BRANCH   4  31
ATOM     31  O   UNL     1     112.595 127.524 139.427  0.00  0.00    +0.000 OA
BRANCH  31  33
ATOM     32  O   UNL     1     113.133 126.442 140.191  0.00  0.00    +0.000 OA
ATOM     33  C   UNL     1     113.083 126.861 139.482  0.00  0.00    +0.000 C 
BRANCH  33  34
ATOM     34  C   UNL     1     113.521 126.616 138.826  0.00  0.00    +0.000 C 
ATOM     35  C   UNL     1     113.303 125.933 138.417  0.00  0.00    +0.000 C 
BRANCH  35  37
ATOM     36  O   UNL     1     115.055 124.955 135.797  0.00  0.00    +0.000 OA
ATOM     37  C   UNL     1     113.741 125.689 137.761  0.00  0.00    +0.000 A 
ATOM     38  C   UNL     1     114.409 125.216 137.865  0.00  0.00    +0.000 A 
ATOM     39  C   UNL     1     113.511 125.916 137.003  0.00  0.00    +0.000 A 
ATOM     40  C   UNL     1     114.847 124.972 137.210  0.00  0.00    +0.000 A 
ATOM     41  C   UNL     1     113.949 125.672 136.348  0.00  0.00    +0.000 A 
ATOM     42  C   UNL     1     114.617 125.200 136.452  0.00  0.00    +0.000 A 
ENDBRANCH  35  37
ENDBRANCH  33  34
ENDBRANCH  31  33
ENDBRANCH   4  31
TORSDOF 7
ENDMDL
MODEL 8
REMARK VINA RESULT:      -9.8      1.515      2.921
REMARK  Name = 131752196
REMARK  7 active torsions:
REMARK  status: ('A' for Active; 'I' for Inactive)
REMARK    1  A    between atoms: O_2  and  C_13
REMARK    2  A    between atoms: O_2  and  C_25
REMARK    3  A    between atoms: C_15  and  C_18
REMARK    4  A    between atoms: C_17  and  C_19
REMARK    5  A    between atoms: C_25  and  C_29
REMARK    6  A    between atoms: C_27  and  C_30
REMARK    7  A    between atoms: C_31  and  C_34
REMARK                            x       y       z     vdW  Elec       q    Type
REMARK                         _______ _______ _______ _____ _____    ______ ____
ROOT
ATOM      1  O   UNL     1     113.388 125.682 136.501  0.00  0.00    +0.000 OA
ATOM      2  O   UNL     1     113.277 126.047 138.946  0.00  0.00    +0.000 OA
ATOM      3  O   UNL     1     114.648 125.430 138.266  0.00  0.00    +0.000 OA
ATOM      4  C   UNL     1     112.666 126.112 137.657  0.00  0.00    +0.000 C 
ATOM      5  C   UNL     1     113.314 125.925 138.131  0.00  0.00    +0.000 C 
ATOM      6  C   UNL     1     112.702 125.991 136.841  0.00  0.00    +0.000 C 
ATOM      7  C   UNL     1     113.999 125.617 137.791  0.00  0.00    +0.000 C 
ATOM      8  C   UNL     1     114.036 125.495 136.975  0.00  0.00    +0.000 C 
ENDROOT
BRANCH   6  13
ATOM      9  O   UNL     1     112.659 127.470 136.100  0.00  0.00    +0.000 OA
ATOM     10  O   UNL     1     111.481 124.898 136.647  0.00  0.00    +0.000 OA
ATOM     11  O   UNL     1     110.108 126.738 134.943  0.00  0.00    +0.000 OA
ATOM     12  O   UNL     1     110.665 128.036 134.645  0.00  0.00    +0.000 OA
ATOM     13  C   UNL     1     112.054 126.177 136.367  0.00  0.00    +0.000 A 
ATOM     14  C   UNL     1     112.016 126.911 135.990  0.00  0.00    +0.000 A 
ATOM     15  C   UNL     1     111.443 125.632 136.269  0.00  0.00    +0.000 A 
ATOM     16  C   UNL     1     111.368 127.097 135.515  0.00  0.00    +0.000 A 
ATOM     17  C   UNL     1     110.795 125.819 135.795  0.00  0.00    +0.000 A 
ATOM     18  C   UNL     1     110.758 126.551 135.418  0.00  0.00    +0.000 A 
ATOM     19  C   UNL     1     111.317 127.857 135.118  0.00  0.00    +0.000 A 
ATOM     20  C   UNL     1     112.625 128.236 135.709  0.00  0.00    +0.000 A 
ATOM     21  C   UNL     1     111.950 128.430 135.215  0.00  0.00    +0.000 A 
BRANCH  20  23
ATOM     22  O   UNL     1     115.073 130.413 136.108  0.00  0.00    +0.000 OA
ATOM     23  C   UNL     1     113.237 128.780 135.809  0.00  0.00    +0.000 A 
ATOM     24  C   UNL     1     113.895 128.757 135.312  0.00  0.00    +0.000 A 
ATOM     25  C   UNL     1     113.191 129.348 136.406  0.00  0.00    +0.000 A 
ATOM     26  C   UNL     1     114.506 129.301 135.412  0.00  0.00    +0.000 A 
ATOM     27  C   UNL     1     113.803 129.892 136.506  0.00  0.00    +0.000 A 
ATOM     28  C   UNL     1     114.461 129.869 136.008  0.00  0.00    +0.000 A 
ENDBRANCH  20  23
ENDBRANCH   6  13
BRANCH   8  30
ATOM     29  O   UNL     1     114.989 125.478 135.910  0.00  0.00    +0.000 OA
ATOM     30  C   UNL     1     114.721 125.187 136.635  0.00  0.00    +0.000 C 
ENDBRANCH   8  30
BRANCH   4  31
ATOM     31  O   UNL     1     111.980 126.421 137.997  0.00  0.00    +0.000 OA
BRANCH  31  33
ATOM     32  O   UNL     1     111.964 126.050 139.377  0.00  0.00    +0.000 OA
ATOM     33  C   UNL     1     111.976 126.633 138.794  0.00  0.00    +0.000 C 
BRANCH  33  34
ATOM     34  C   UNL     1     111.983 127.431 139.008  0.00  0.00    +0.000 C 
ATOM     35  C   UNL     1     111.309 127.776 139.335  0.00  0.00    +0.000 C 
BRANCH  35  37
ATOM     36  O   UNL     1     111.339 130.963 140.190  0.00  0.00    +0.000 OA
ATOM     37  C   UNL     1     111.317 128.573 139.549  0.00  0.00    +0.000 A 
ATOM     38  C   UNL     1     110.918 129.127 139.086  0.00  0.00    +0.000 A 
ATOM     39  C   UNL     1     111.722 128.815 140.224  0.00  0.00    +0.000 A 
ATOM     40  C   UNL     1     110.925 129.924 139.300  0.00  0.00    +0.000 A 
ATOM     41  C   UNL     1     111.730 129.611 140.438  0.00  0.00    +0.000 A 
ATOM     42  C   UNL     1     111.331 130.166 139.976  0.00  0.00    +0.000 A 
ENDBRANCH  35  37
ENDBRANCH  33  34
ENDBRANCH  31  33
ENDBRANCH   4  31
TORSDOF 7
ENDMDL
MODEL 9
REMARK VINA RESULT:      -9.8      1.845      3.686
REMARK  Name = 131752196
REMARK  7 active torsions:
REMARK  status: ('A' for Active; 'I' for Inactive)
REMARK    1  A    between atoms: O_2  and  C_13
REMARK    2  A    between atoms: O_2  and  C_25
REMARK    3  A    between atoms: C_15  and  C_18
REMARK    4  A    between atoms: C_17  and  C_19
REMARK    5  A    between atoms: C_25  and  C_29
REMARK    6  A    between atoms: C_27  and  C_30
REMARK    7  A    between atoms: C_31  and  C_34
REMARK                            x       y       z     vdW  Elec       q    Type
REMARK                         _______ _______ _______ _____ _____    ______ ____
ROOT
ATOM      1  O   UNL     1     110.263 128.964 136.270  0.00  0.00    +0.000 OA
ATOM      2  O   UNL     1     110.276 126.540 135.772  0.00  0.00    +0.000 OA
ATOM      3  O   UNL     1     109.800 127.617 134.615  0.00  0.00    +0.000 OA
ATOM      4  C   UNL     1     110.505 127.617 136.682  0.00  0.00    +0.000 C 
ATOM      5  C   UNL     1     110.271 127.348 135.937  0.00  0.00    +0.000 C 
ATOM      6  C   UNL     1     110.501 128.425 136.849  0.00  0.00    +0.000 C 
ATOM      7  C   UNL     1     110.034 127.887 135.360  0.00  0.00    +0.000 C 
ATOM      8  C   UNL     1     110.030 128.695 135.526  0.00  0.00    +0.000 C 
ENDROOT
BRANCH   6  13
ATOM      9  O   UNL     1     112.039 129.008 137.038  0.00  0.00    +0.000 OA
ATOM     10  O   UNL     1     109.442 128.375 138.112  0.00  0.00    +0.000 OA
ATOM     11  O   UNL     1     111.435 129.501 139.825  0.00  0.00    +0.000 OA
ATOM     12  O   UNL     1     112.747 129.832 139.325  0.00  0.00    +0.000 OA
ATOM     13  C   UNL     1     110.734 128.694 137.592  0.00  0.00    +0.000 A 
ATOM     14  C   UNL     1     111.497 128.988 137.704  0.00  0.00    +0.000 A 
ATOM     15  C   UNL     1     110.205 128.669 138.224  0.00  0.00    +0.000 A 
ATOM     16  C   UNL     1     111.731 129.257 138.448  0.00  0.00    +0.000 A 
ATOM     17  C   UNL     1     110.439 128.938 138.969  0.00  0.00    +0.000 A 
ATOM     18  C   UNL     1     111.201 129.232 139.080  0.00  0.00    +0.000 A 
ATOM     19  C   UNL     1     112.522 129.565 138.577  0.00  0.00    +0.000 A 
ATOM     20  C   UNL     1     112.835 129.313 137.148  0.00  0.00    +0.000 A 
ATOM     21  C   UNL     1     113.078 129.593 137.923  0.00  0.00    +0.000 A 
BRANCH  20  23
ATOM     22  O   UNL     1     114.945 129.406 134.612  0.00  0.00    +0.000 OA
ATOM     23  C   UNL     1     113.363 129.337 136.514  0.00  0.00    +0.000 A 
ATOM     24  C   UNL     1     113.463 130.034 136.086  0.00  0.00    +0.000 A 
ATOM     25  C   UNL     1     113.790 128.661 136.308  0.00  0.00    +0.000 A 
ATOM     26  C   UNL     1     113.990 130.058 135.453  0.00  0.00    +0.000 A 
ATOM     27  C   UNL     1     114.317 128.684 135.674  0.00  0.00    +0.000 A 
ATOM     28  C   UNL     1     114.417 129.383 135.246  0.00  0.00    +0.000 A 
ENDBRANCH  20  23
ENDBRANCH   6  13
BRANCH   8  30
ATOM     29  O   UNL     1     109.390 129.922 135.167  0.00  0.00    +0.000 OA
ATOM     30  C   UNL     1     109.793 129.234 134.949  0.00  0.00    +0.000 C 
ENDBRANCH   8  30
BRANCH   4  31
ATOM     31  O   UNL     1     110.742 127.078 137.260  0.00  0.00    +0.000 OA
BRANCH  31  33
ATOM     32  O   UNL     1     110.331 125.760 136.890  0.00  0.00    +0.000 OA
ATOM     33  C   UNL     1     110.931 126.303 137.048  0.00  0.00    +0.000 C 
BRANCH  33  34
ATOM     34  C   UNL     1     111.722 126.072 136.994  0.00  0.00    +0.000 C 
ATOM     35  C   UNL     1     112.031 125.531 137.534  0.00  0.00    +0.000 C 
BRANCH  35  37
ATOM     36  O   UNL     1     115.191 124.606 137.317  0.00  0.00    +0.000 OA
ATOM     37  C   UNL     1     112.822 125.300 137.480  0.00  0.00    +0.000 A 
ATOM     38  C   UNL     1     113.039 124.693 136.965  0.00  0.00    +0.000 A 
ATOM     39  C   UNL     1     113.393 125.675 137.940  0.00  0.00    +0.000 A 
ATOM     40  C   UNL     1     113.829 124.462 136.911  0.00  0.00    +0.000 A 
ATOM     41  C   UNL     1     114.183 125.444 137.886  0.00  0.00    +0.000 A 
ATOM     42  C   UNL     1     114.400 124.837 137.371  0.00  0.00    +0.000 A 
ENDBRANCH  35  37
ENDBRANCH  33  34
ENDBRANCH  31  33
ENDBRANCH   4  31
TORSDOF 7
ENDMDL
MODEL 10
REMARK VINA RESULT:      -9.8      1.632      3.244
REMARK  Name = 131752196
REMARK  7 active torsions:
REMARK  status: ('A' for Active; 'I' for Inactive)
REMARK    1  A    between atoms: O_2  and  C_13
REMARK    2  A    between atoms: O_2  and  C_25
REMARK    3  A    between atoms: C_15  and  C_18
REMARK    4  A    between atoms: C_17  and  C_19
REMARK    5  A    between atoms: C_25  and  C_29
REMARK    6  A    between atoms: C_27  and  C_30
REMARK    7  A    between atoms: C_31  and  C_34
REMARK                            x       y       z     vdW  Elec       q    Type
REMARK                         _______ _______ _______ _____ _____    ______ ____
ROOT
ATOM      1  O   UNL     1     112.584 126.090 137.633  0.00  0.00    +0.000 OA
ATOM      2  O   UNL     1     114.288 126.266 139.419  0.00  0.00    +0.000 OA
ATOM      3  O   UNL     1     114.604 125.382 138.061  0.00  0.00    +0.000 OA
ATOM      4  C   UNL     1     112.994 126.590 138.907  0.00  0.00    +0.000 C 
ATOM      5  C   UNL     1     113.720 126.207 138.823  0.00  0.00    +0.000 C 
ATOM      6  C   UNL     1     112.426 126.532 138.312  0.00  0.00    +0.000 C 
ATOM      7  C   UNL     1     113.878 125.766 138.145  0.00  0.00    +0.000 C 
ATOM      8  C   UNL     1     113.310 125.707 137.549  0.00  0.00    +0.000 C 
ENDROOT
BRANCH   6  13
ATOM      9  O   UNL     1     112.223 128.017 137.607  0.00  0.00    +0.000 OA
ATOM     10  O   UNL     1     111.211 125.817 139.168  0.00  0.00    +0.000 OA
ATOM     11  O   UNL     1     109.522 128.064 138.646  0.00  0.00    +0.000 OA
ATOM     12  O   UNL     1     109.992 129.185 137.869  0.00  0.00    +0.000 OA
ATOM     13  C   UNL     1     111.701 126.914 138.395  0.00  0.00    +0.000 A 
ATOM     14  C   UNL     1     111.583 127.655 138.051  0.00  0.00    +0.000 A 
ATOM     15  C   UNL     1     111.092 126.558 138.823  0.00  0.00    +0.000 A 
ATOM     16  C   UNL     1     110.857 128.038 138.134  0.00  0.00    +0.000 A 
ATOM     17  C   UNL     1     110.367 126.941 138.907  0.00  0.00    +0.000 A 
ATOM     18  C   UNL     1     110.249 127.680 138.563  0.00  0.00    +0.000 A 
ATOM     19  C   UNL     1     110.721 128.809 137.780  0.00  0.00    +0.000 A 
ATOM     20  C   UNL     1     112.107 128.788 137.246  0.00  0.00    +0.000 A 
ATOM     21  C   UNL     1     111.351 129.187 137.333  0.00  0.00    +0.000 A 
BRANCH  20  23
ATOM     22  O   UNL     1     114.546 130.208 135.537  0.00  0.00    +0.000 OA
ATOM     23  C   UNL     1     112.717 129.143 136.818  0.00  0.00    +0.000 A 
ATOM     24  C   UNL     1     112.817 128.968 136.019  0.00  0.00    +0.000 A 
ATOM     25  C   UNL     1     113.226 129.673 137.191  0.00  0.00    +0.000 A 
ATOM     26  C   UNL     1     113.426 129.323 135.592  0.00  0.00    +0.000 A 
ATOM     27  C   UNL     1     113.837 130.029 136.764  0.00  0.00    +0.000 A 
ATOM     28  C   UNL     1     113.936 129.853 135.964  0.00  0.00    +0.000 A 
ENDBRANCH  20  23
ENDBRANCH   6  13
BRANCH   8  30
ATOM     29  O   UNL     1     112.846 125.020 136.385  0.00  0.00    +0.000 OA
ATOM     30  C   UNL     1     113.467 125.265 136.871  0.00  0.00    +0.000 C 
ENDBRANCH   8  30
BRANCH   4  31
ATOM     31  O   UNL     1     112.836 127.032 139.586  0.00  0.00    +0.000 OA
BRANCH  31  33
ATOM     32  O   UNL     1     113.758 126.638 140.605  0.00  0.00    +0.000 OA
ATOM     33  C   UNL     1     113.448 127.218 140.107  0.00  0.00    +0.000 C 
BRANCH  33  34
ATOM     34  C   UNL     1     113.750 127.987 140.131  0.00  0.00    +0.000 C 
ATOM     35  C   UNL     1     113.650 128.447 140.809  0.00  0.00    +0.000 C 
BRANCH  35  37
ATOM     36  O   UNL     1     114.855 131.518 140.904  0.00  0.00    +0.000 OA
ATOM     37  C   UNL     1     113.952 129.215 140.832  0.00  0.00    +0.000 A 
ATOM     38  C   UNL     1     113.485 129.832 141.119  0.00  0.00    +0.000 A 
ATOM     39  C   UNL     1     114.719 129.365 140.570  0.00  0.00    +0.000 A 
ATOM     40  C   UNL     1     113.787 130.599 141.143  0.00  0.00    +0.000 A 
ATOM     41  C   UNL     1     115.020 130.133 140.594  0.00  0.00    +0.000 A 
ATOM     42  C   UNL     1     114.554 130.750 140.880  0.00  0.00    +0.000 A 
ENDBRANCH  35  37
ENDBRANCH  33  34
ENDBRANCH  31  33
ENDBRANCH   4  31
TORSDOF 7
ENDMDL
