MODEL 1
REMARK VINA RESULT:     -10.5      0.000      0.000
REMARK  Name = 44258792
REMARK  10 active torsions:
REMARK  status: ('A' for Active; 'I' for Inactive)
REMARK    1  A    between atoms: O_1  and  C_20
REMARK    2  A    between atoms: O_1  and  C_23
REMARK    3  A    between atoms: O_4  and  C_24
REMARK    4  A    between atoms: O_4  and  C_37
REMARK    5  A    between atoms: O_11  and  C_36
REMARK    6  A    between atoms: O_11  and  C_42
REMARK    7  A    between atoms: C_35  and  C_38
REMARK    8  A    between atoms: C_40  and  C_48
REMARK    9  A    between atoms: C_44  and  C_47
REMARK   10  A    between atoms: C_47  and  C_49
REMARK                            x       y       z     vdW  Elec       q    Type
REMARK                         _______ _______ _______ _____ _____    ______ ____
ROOT
ATOM      1  O   UNL     1     112.398 127.821 139.304  0.00  0.00    +0.000 OA
ATOM      2  O   UNL     1     111.465 129.621 137.884  0.00  0.00    +0.000 OA
ATOM      3  O   UNL     1     111.841 130.621 138.854  0.00  0.00    +0.000 OA
ATOM      4  C   UNL     1     111.740 128.237 138.105  0.00  0.00    +0.000 A 
ATOM      5  C   UNL     1     111.776 129.021 138.357  0.00  0.00    +0.000 A 
ATOM      6  C   UNL     1     112.051 127.636 138.579  0.00  0.00    +0.000 A 
ATOM      7  C   UNL     1     112.123 129.206 139.082  0.00  0.00    +0.000 A 
ATOM      8  C   UNL     1     112.838 129.601 140.581  0.00  0.00    +0.000 A 
ATOM      9  C   UNL     1     112.434 128.607 139.556  0.00  0.00    +0.000 A 
ATOM     10  C   UNL     1     112.798 128.786 140.313  0.00  0.00    +0.000 A 
ATOM     11  C   UNL     1     112.154 130.027 139.333  0.00  0.00    +0.000 A 
ATOM     12  C   UNL     1     112.514 130.227 140.088  0.00  0.00    +0.000 A 
ENDROOT
BRANCH   6  14
ATOM     13  O   UNL     1     111.909 124.497 137.571  0.00  0.00    +0.000 OA
ATOM     14  C   UNL     1     112.016 126.852 138.327  0.00  0.00    +0.000 A 
ATOM     15  C   UNL     1     112.647 126.523 137.911  0.00  0.00    +0.000 A 
ATOM     16  C   UNL     1     111.348 126.395 138.491  0.00  0.00    +0.000 A 
ATOM     17  C   UNL     1     112.612 125.738 137.658  0.00  0.00    +0.000 A 
ATOM     18  C   UNL     1     111.313 125.611 138.240  0.00  0.00    +0.000 A 
ATOM     19  C   UNL     1     111.944 125.282 137.823  0.00  0.00    +0.000 A 
ENDBRANCH   6  14
BRANCH   4  20
ATOM     20  O   UNL     1     111.393 128.051 137.380  0.00  0.00    +0.000 OA
BRANCH  20  27
ATOM     21  O   UNL     1     112.480 128.520 136.579  0.00  0.00    +0.000 OA
ATOM     22  O   UNL     1     110.881 129.238 134.831  0.00  0.00    +0.000 OA
ATOM     23  O   UNL     1     112.500 129.466 134.612  0.00  0.00    +0.000 OA
ATOM     24  C   UNL     1     111.136 128.644 136.106  0.00  0.00    +0.000 C 
ATOM     25  C   UNL     1     111.414 128.998 135.414  0.00  0.00    +0.000 C 
ATOM     26  C   UNL     1     112.223 129.113 135.304  0.00  0.00    +0.000 C 
ATOM     27  C   UNL     1     111.669 128.405 136.688  0.00  0.00    +0.000 C 
ATOM     28  C   UNL     1     112.756 128.873 135.887  0.00  0.00    +0.000 C 
ATOM     29  C   UNL     1     113.566 128.988 135.777  0.00  0.00    +0.000 C 
BRANCH  24  30
ATOM     30  O   UNL     1     110.328 128.530 136.215  0.00  0.00    +0.000 OA
BRANCH  30  35
ATOM     31  O   UNL     1     110.386 127.345 135.418  0.00  0.00    +0.000 OA
ATOM     32  O   UNL     1     108.724 128.261 136.496  0.00  0.00    +0.000 OA
ATOM     33  O   UNL     1     107.981 126.942 135.839  0.00  0.00    +0.000 OA
ATOM     34  O   UNL     1     108.842 125.892 134.901  0.00  0.00    +0.000 OA
ATOM     35  C   UNL     1     109.956 127.871 135.887  0.00  0.00    +0.000 C 
ATOM     36  C   UNL     1     109.154 127.736 136.027  0.00  0.00    +0.000 C 
ATOM     37  C   UNL     1     108.782 127.076 135.699  0.00  0.00    +0.000 C 
ATOM     38  C   UNL     1     109.213 126.552 135.230  0.00  0.00    +0.000 C 
ATOM     39  C   UNL     1     110.015 126.686 135.089  0.00  0.00    +0.000 C 
ATOM     40  C   UNL     1     110.446 126.161 134.620  0.00  0.00    +0.000 C 
ENDBRANCH  30  35
ENDBRANCH  24  30
ENDBRANCH  20  27
ENDBRANCH   4  20
BRANCH   8  41
ATOM     41  O   UNL     1     113.186 129.783 141.307  0.00  0.00    +0.000 OA
BRANCH  41  50
ATOM     42  O   UNL     1     112.050 130.035 142.138  0.00  0.00    +0.000 OA
ATOM     43  O   UNL     1     113.069 132.163 142.885  0.00  0.00    +0.000 OA
ATOM     44  O   UNL     1     111.594 131.705 143.467  0.00  0.00    +0.000 OA
ATOM     45  O   UNL     1     113.864 131.202 141.805  0.00  0.00    +0.000 OA
ATOM     46  C   UNL     1     112.729 131.454 142.636  0.00  0.00    +0.000 C 
ATOM     47  C   UNL     1     111.992 131.225 142.927  0.00  0.00    +0.000 C 
ATOM     48  C   UNL     1     113.127 130.973 142.096  0.00  0.00    +0.000 C 
ATOM     49  C   UNL     1     111.652 130.515 142.678  0.00  0.00    +0.000 C 
ATOM     50  C   UNL     1     112.787 130.264 141.847  0.00  0.00    +0.000 C 
BRANCH  49  52
ATOM     51  O   UNL     1     110.320 130.053 142.446  0.00  0.00    +0.000 OA
ATOM     52  C   UNL     1     110.915 130.286 142.968  0.00  0.00    +0.000 C 
ENDBRANCH  49  52
ENDBRANCH  41  50
ENDBRANCH   8  41
BRANCH  10  53
ATOM     53  C   UNL     1     113.107 128.180 140.780  0.00  0.00    +0.000 C 
BRANCH  53  54
ATOM     54  C   UNL     1     113.894 127.950 140.689  0.00  0.00    +0.000 C 
ATOM     55  C   UNL     1     114.177 127.285 141.089  0.00  0.00    +0.000 C 
ATOM     56  C   UNL     1     114.965 127.056 140.998  0.00  0.00    +0.000 C 
ATOM     57  C   UNL     1     113.675 126.852 141.577  0.00  0.00    +0.000 C 
ENDBRANCH  53  54
ENDBRANCH  10  53
TORSDOF 10
ENDMDL
MODEL 2
REMARK VINA RESULT:     -10.3      2.121      3.793
REMARK  Name = 44258792
REMARK  10 active torsions:
REMARK  status: ('A' for Active; 'I' for Inactive)
REMARK    1  A    between atoms: O_1  and  C_20
REMARK    2  A    between atoms: O_1  and  C_23
REMARK    3  A    between atoms: O_4  and  C_24
REMARK    4  A    between atoms: O_4  and  C_37
REMARK    5  A    between atoms: O_11  and  C_36
REMARK    6  A    between atoms: O_11  and  C_42
REMARK    7  A    between atoms: C_35  and  C_38
REMARK    8  A    between atoms: C_40  and  C_48
REMARK    9  A    between atoms: C_44  and  C_47
REMARK   10  A    between atoms: C_47  and  C_49
REMARK                            x       y       z     vdW  Elec       q    Type
REMARK                         _______ _______ _______ _____ _____    ______ ____
ROOT
ATOM      1  O   UNL     1     111.560 128.550 140.594  0.00  0.00    +0.000 OA
ATOM      2  O   UNL     1     110.574 128.041 138.382  0.00  0.00    +0.000 OA
ATOM      3  O   UNL     1     109.401 128.821 138.693  0.00  0.00    +0.000 OA
ATOM      4  C   UNL     1     111.642 127.907 139.321  0.00  0.00    +0.000 A 
ATOM      5  C   UNL     1     110.903 128.211 139.119  0.00  0.00    +0.000 A 
ATOM      6  C   UNL     1     111.971 128.076 140.059  0.00  0.00    +0.000 A 
ATOM      7  C   UNL     1     110.492 128.685 139.655  0.00  0.00    +0.000 A 
ATOM      8  C   UNL     1     109.631 129.667 140.754  0.00  0.00    +0.000 A 
ATOM      9  C   UNL     1     110.820 128.855 140.392  0.00  0.00    +0.000 A 
ATOM     10  C   UNL     1     110.402 129.347 140.959  0.00  0.00    +0.000 A 
ATOM     11  C   UNL     1     109.722 128.996 139.432  0.00  0.00    +0.000 A 
ATOM     12  C   UNL     1     109.288 129.490 139.986  0.00  0.00    +0.000 A 
ENDROOT
BRANCH   6  14
ATOM     13  O   UNL     1     114.930 126.858 140.868  0.00  0.00    +0.000 OA
ATOM     14  C   UNL     1     112.710 127.772 140.261  0.00  0.00    +0.000 A 
ATOM     15  C   UNL     1     112.774 127.004 140.556  0.00  0.00    +0.000 A 
ATOM     16  C   UNL     1     113.387 128.235 140.169  0.00  0.00    +0.000 A 
ATOM     17  C   UNL     1     113.514 126.699 140.758  0.00  0.00    +0.000 A 
ATOM     18  C   UNL     1     114.126 127.931 140.371  0.00  0.00    +0.000 A 
ATOM     19  C   UNL     1     114.190 127.163 140.666  0.00  0.00    +0.000 A 
ENDBRANCH   6  14
BRANCH   4  20
ATOM     20  O   UNL     1     112.053 127.433 138.786  0.00  0.00    +0.000 OA
BRANCH  20  27
ATOM     21  O   UNL     1     112.500 128.488 137.932  0.00  0.00    +0.000 OA
ATOM     22  O   UNL     1     112.186 127.025 135.960  0.00  0.00    +0.000 OA
ATOM     23  O   UNL     1     112.737 128.568 135.763  0.00  0.00    +0.000 OA
ATOM     24  C   UNL     1     112.119 127.228 137.373  0.00  0.00    +0.000 C 
ATOM     25  C   UNL     1     112.291 127.513 136.617  0.00  0.00    +0.000 C 
ATOM     26  C   UNL     1     112.566 128.283 136.519  0.00  0.00    +0.000 C 
ATOM     27  C   UNL     1     112.224 127.716 138.030  0.00  0.00    +0.000 C 
ATOM     28  C   UNL     1     112.671 128.771 137.176  0.00  0.00    +0.000 C 
ATOM     29  C   UNL     1     112.947 129.543 137.078  0.00  0.00    +0.000 C 
BRANCH  24  30
ATOM     30  O   UNL     1     111.844 126.458 137.471  0.00  0.00    +0.000 OA
BRANCH  30  35
ATOM     31  O   UNL     1     113.178 125.947 137.439  0.00  0.00    +0.000 OA
ATOM     32  O   UNL     1     111.255 124.932 137.249  0.00  0.00    +0.000 OA
ATOM     33  O   UNL     1     112.296 123.660 137.105  0.00  0.00    +0.000 OA
ATOM     34  O   UNL     1     113.924 123.912 137.184  0.00  0.00    +0.000 OA
ATOM     35  C   UNL     1     112.364 125.821 137.399  0.00  0.00    +0.000 C 
ATOM     36  C   UNL     1     112.070 125.058 137.288  0.00  0.00    +0.000 C 
ATOM     37  C   UNL     1     112.590 124.422 137.216  0.00  0.00    +0.000 C 
ATOM     38  C   UNL     1     113.404 124.549 137.256  0.00  0.00    +0.000 C 
ATOM     39  C   UNL     1     113.698 125.311 137.367  0.00  0.00    +0.000 C 
ATOM     40  C   UNL     1     114.513 125.438 137.406  0.00  0.00    +0.000 C 
ENDBRANCH  30  35
ENDBRANCH  24  30
ENDBRANCH  20  27
ENDBRANCH   4  20
BRANCH   8  41
ATOM     41  O   UNL     1     109.222 130.140 141.292  0.00  0.00    +0.000 OA
BRANCH  41  50
ATOM     42  O   UNL     1     108.125 129.294 141.645  0.00  0.00    +0.000 OA
ATOM     43  O   UNL     1     106.558 131.175 141.276  0.00  0.00    +0.000 OA
ATOM     44  O   UNL     1     105.983 129.703 141.752  0.00  0.00    +0.000 OA
ATOM     45  O   UNL     1     108.177 131.393 141.047  0.00  0.00    +0.000 OA
ATOM     46  C   UNL     1     107.080 130.548 141.399  0.00  0.00    +0.000 C 
ATOM     47  C   UNL     1     106.793 129.812 141.637  0.00  0.00    +0.000 C 
ATOM     48  C   UNL     1     107.890 130.657 141.284  0.00  0.00    +0.000 C 
ATOM     49  C   UNL     1     107.315 129.185 141.759  0.00  0.00    +0.000 C 
ATOM     50  C   UNL     1     108.412 130.030 141.407  0.00  0.00    +0.000 C 
BRANCH  49  52
ATOM     51  O   UNL     1     107.454 127.995 142.540  0.00  0.00    +0.000 OA
ATOM     52  C   UNL     1     107.028 128.449 141.997  0.00  0.00    +0.000 C 
ENDBRANCH  49  52
ENDBRANCH  41  50
ENDBRANCH   8  41
BRANCH  10  53
ATOM     53  C   UNL     1     110.738 129.511 141.694  0.00  0.00    +0.000 C 
BRANCH  53  54
ATOM     54  C   UNL     1     111.168 130.206 141.804  0.00  0.00    +0.000 C 
ATOM     55  C   UNL     1     111.529 130.357 142.532  0.00  0.00    +0.000 C 
ATOM     56  C   UNL     1     111.959 131.052 142.642  0.00  0.00    +0.000 C 
ATOM     57  C   UNL     1     111.459 129.813 143.147  0.00  0.00    +0.000 C 
ENDBRANCH  53  54
ENDBRANCH  10  53
TORSDOF 10
ENDMDL
MODEL 3
REMARK VINA RESULT:     -10.2      2.289      6.262
REMARK  Name = 44258792
REMARK  10 active torsions:
REMARK  status: ('A' for Active; 'I' for Inactive)
REMARK    1  A    between atoms: O_1  and  C_20
REMARK    2  A    between atoms: O_1  and  C_23
REMARK    3  A    between atoms: O_4  and  C_24
REMARK    4  A    between atoms: O_4  and  C_37
REMARK    5  A    between atoms: O_11  and  C_36
REMARK    6  A    between atoms: O_11  and  C_42
REMARK    7  A    between atoms: C_35  and  C_38
REMARK    8  A    between atoms: C_40  and  C_48
REMARK    9  A    between atoms: C_44  and  C_47
REMARK   10  A    between atoms: C_47  and  C_49
REMARK                            x       y       z     vdW  Elec       q    Type
REMARK                         _______ _______ _______ _____ _____    ______ ____
ROOT
ATOM      1  O   UNL     1     111.267 128.692 138.709  0.00  0.00    +0.000 OA
ATOM      2  O   UNL     1     110.747 127.274 140.671  0.00  0.00    +0.000 OA
ATOM      3  O   UNL     1     111.642 126.245 140.200  0.00  0.00    +0.000 OA
ATOM      4  C   UNL     1     110.561 128.484 139.934  0.00  0.00    +0.000 A 
ATOM      5  C   UNL     1     110.920 127.747 140.017  0.00  0.00    +0.000 A 
ATOM      6  C   UNL     1     110.734 128.957 139.281  0.00  0.00    +0.000 A 
ATOM      7  C   UNL     1     111.453 127.481 139.446  0.00  0.00    +0.000 A 
ATOM      8  C   UNL     1     112.557 126.921 138.270  0.00  0.00    +0.000 A 
ATOM      9  C   UNL     1     111.627 127.953 138.792  0.00  0.00    +0.000 A 
ATOM     10  C   UNL     1     112.180 127.689 138.190  0.00  0.00    +0.000 A 
ATOM     11  C   UNL     1     111.821 126.711 139.543  0.00  0.00    +0.000 A 
ATOM     12  C   UNL     1     112.377 126.428 138.951  0.00  0.00    +0.000 A 
ENDROOT
BRANCH   6  14
ATOM     13  O   UNL     1     109.295 131.909 138.950  0.00  0.00    +0.000 OA
ATOM     14  C   UNL     1     110.375 129.695 139.198  0.00  0.00    +0.000 A 
ATOM     15  C   UNL     1     109.629 129.753 138.851  0.00  0.00    +0.000 A 
ATOM     16  C   UNL     1     110.761 130.375 139.463  0.00  0.00    +0.000 A 
ATOM     17  C   UNL     1     109.269 130.492 138.768  0.00  0.00    +0.000 A 
ATOM     18  C   UNL     1     110.401 131.112 139.380  0.00  0.00    +0.000 A 
ATOM     19  C   UNL     1     109.655 131.171 139.033  0.00  0.00    +0.000 A 
ENDBRANCH   6  14
BRANCH   4  20
ATOM     20  O   UNL     1     110.028 128.750 140.506  0.00  0.00    +0.000 OA
BRANCH  20  27
ATOM     21  O   UNL     1     111.021 129.035 141.493  0.00  0.00    +0.000 OA
ATOM     22  O   UNL     1     109.421 128.423 143.279  0.00  0.00    +0.000 OA
ATOM     23  O   UNL     1     110.947 128.913 143.671  0.00  0.00    +0.000 OA
ATOM     24  C   UNL     1     109.724 128.586 141.892  0.00  0.00    +0.000 C 
ATOM     25  C   UNL     1     109.955 128.627 142.684  0.00  0.00    +0.000 C 
ATOM     26  C   UNL     1     110.717 128.872 142.879  0.00  0.00    +0.000 C 
ATOM     27  C   UNL     1     110.257 128.790 141.297  0.00  0.00    +0.000 C 
ATOM     28  C   UNL     1     111.250 129.076 142.284  0.00  0.00    +0.000 C 
ATOM     29  C   UNL     1     112.014 129.321 142.480  0.00  0.00    +0.000 C 
BRANCH  24  30
ATOM     30  O   UNL     1     108.962 128.341 141.696  0.00  0.00    +0.000 OA
BRANCH  30  35
ATOM     31  O   UNL     1     108.463 129.643 142.010  0.00  0.00    +0.000 OA
ATOM     32  O   UNL     1     107.434 127.849 141.313  0.00  0.00    +0.000 OA
ATOM     33  O   UNL     1     106.172 128.905 141.435  0.00  0.00    +0.000 OA
ATOM     34  O   UNL     1     106.438 130.453 141.941  0.00  0.00    +0.000 OA
ATOM     35  C   UNL     1     108.331 128.869 141.758  0.00  0.00    +0.000 C 
ATOM     36  C   UNL     1     107.566 128.623 141.566  0.00  0.00    +0.000 C 
ATOM     37  C   UNL     1     106.935 129.151 141.627  0.00  0.00    +0.000 C 
ATOM     38  C   UNL     1     107.069 129.925 141.880  0.00  0.00    +0.000 C 
ATOM     39  C   UNL     1     107.832 130.171 142.071  0.00  0.00    +0.000 C 
ATOM     40  C   UNL     1     107.965 130.945 142.324  0.00  0.00    +0.000 C 
ENDBRANCH  30  35
ENDBRANCH  24  30
ENDBRANCH  20  27
ENDBRANCH   4  20
BRANCH   8  41
ATOM     41  O   UNL     1     113.090 126.658 137.698  0.00  0.00    +0.000 OA
BRANCH  41  50
ATOM     42  O   UNL     1     112.356 125.602 137.072  0.00  0.00    +0.000 OA
ATOM     43  O   UNL     1     114.319 124.110 137.293  0.00  0.00    +0.000 OA
ATOM     44  O   UNL     1     112.932 123.552 136.595  0.00  0.00    +0.000 OA
ATOM     45  O   UNL     1     114.397 125.663 137.845  0.00  0.00    +0.000 OA
ATOM     46  C   UNL     1     113.665 124.608 137.220  0.00  0.00    +0.000 C 
ATOM     47  C   UNL     1     112.971 124.328 136.870  0.00  0.00    +0.000 C 
ATOM     48  C   UNL     1     113.704 125.384 137.495  0.00  0.00    +0.000 C 
ATOM     49  C   UNL     1     112.317 124.826 136.797  0.00  0.00    +0.000 C 
ATOM     50  C   UNL     1     113.050 125.882 137.422  0.00  0.00    +0.000 C 
BRANCH  49  52
ATOM     51  O   UNL     1     111.160 125.053 135.989  0.00  0.00    +0.000 OA
ATOM     52  C   UNL     1     111.624 124.547 136.447  0.00  0.00    +0.000 C 
ENDBRANCH  49  52
ENDBRANCH  41  50
ENDBRANCH   8  41
BRANCH  10  53
ATOM     53  C   UNL     1     112.347 128.168 137.540  0.00  0.00    +0.000 C 
BRANCH  53  54
ATOM     54  C   UNL     1     113.000 128.672 137.556  0.00  0.00    +0.000 C 
ATOM     55  C   UNL     1     113.155 129.166 136.914  0.00  0.00    +0.000 C 
ATOM     56  C   UNL     1     113.808 129.670 136.930  0.00  0.00    +0.000 C 
ATOM     57  C   UNL     1     112.658 129.158 136.257  0.00  0.00    +0.000 C 
ENDBRANCH  53  54
ENDBRANCH  10  53
TORSDOF 10
ENDMDL
MODEL 4
REMARK VINA RESULT:     -10.2      2.472      4.853
REMARK  Name = 44258792
REMARK  10 active torsions:
REMARK  status: ('A' for Active; 'I' for Inactive)
REMARK    1  A    between atoms: O_1  and  C_20
REMARK    2  A    between atoms: O_1  and  C_23
REMARK    3  A    between atoms: O_4  and  C_24
REMARK    4  A    between atoms: O_4  and  C_37
REMARK    5  A    between atoms: O_11  and  C_36
REMARK    6  A    between atoms: O_11  and  C_42
REMARK    7  A    between atoms: C_35  and  C_38
REMARK    8  A    between atoms: C_40  and  C_48
REMARK    9  A    between atoms: C_44  and  C_47
REMARK   10  A    between atoms: C_47  and  C_49
REMARK                            x       y       z     vdW  Elec       q    Type
REMARK                         _______ _______ _______ _____ _____    ______ ____
ROOT
ATOM      1  O   UNL     1     111.416 129.648 143.267  0.00  0.00    +0.000 OA
ATOM      2  O   UNL     1     111.581 131.592 141.744  0.00  0.00    +0.000 OA
ATOM      3  O   UNL     1     111.608 132.503 142.862  0.00  0.00    +0.000 OA
ATOM      4  C   UNL     1     111.486 130.180 141.943  0.00  0.00    +0.000 A 
ATOM      5  C   UNL     1     111.526 130.944 142.251  0.00  0.00    +0.000 A 
ATOM      6  C   UNL     1     111.431 129.532 142.451  0.00  0.00    +0.000 A 
ATOM      7  C   UNL     1     111.511 131.060 143.068  0.00  0.00    +0.000 A 
ATOM      8  C   UNL     1     111.480 131.314 144.756  0.00  0.00    +0.000 A 
ATOM      9  C   UNL     1     111.455 130.413 143.576  0.00  0.00    +0.000 A 
ATOM     10  C   UNL     1     111.439 130.520 144.428  0.00  0.00    +0.000 A 
ATOM     11  C   UNL     1     111.553 131.861 143.377  0.00  0.00    +0.000 A 
ATOM     12  C   UNL     1     111.538 131.989 144.227  0.00  0.00    +0.000 A 
ENDROOT
BRANCH   6  14
ATOM     13  O   UNL     1     111.272 126.475 141.217  0.00  0.00    +0.000 OA
ATOM     14  C   UNL     1     111.391 128.768 142.142  0.00  0.00    +0.000 A 
ATOM     15  C   UNL     1     112.082 128.378 141.918  0.00  0.00    +0.000 A 
ATOM     16  C   UNL     1     110.660 128.394 142.058  0.00  0.00    +0.000 A 
ATOM     17  C   UNL     1     112.042 127.613 141.609  0.00  0.00    +0.000 A 
ATOM     18  C   UNL     1     110.620 127.631 141.750  0.00  0.00    +0.000 A 
ATOM     19  C   UNL     1     111.311 127.240 141.526  0.00  0.00    +0.000 A 
ENDBRANCH   6  14
BRANCH   4  20
ATOM     20  O   UNL     1     111.502 130.064 141.126  0.00  0.00    +0.000 OA
BRANCH  20  27
ATOM     21  O   UNL     1     110.149 130.457 140.887  0.00  0.00    +0.000 OA
ATOM     22  O   UNL     1     110.822 131.462 138.728  0.00  0.00    +0.000 OA
ATOM     23  O   UNL     1     109.245 131.521 139.209  0.00  0.00    +0.000 OA
ATOM     24  C   UNL     1     111.163 130.763 139.927  0.00  0.00    +0.000 C 
ATOM     25  C   UNL     1     110.598 131.127 139.448  0.00  0.00    +0.000 C 
ATOM     26  C   UNL     1     109.810 131.156 139.688  0.00  0.00    +0.000 C 
ATOM     27  C   UNL     1     110.938 130.428 140.647  0.00  0.00    +0.000 C 
ATOM     28  C   UNL     1     109.585 130.822 140.408  0.00  0.00    +0.000 C 
ATOM     29  C   UNL     1     108.796 130.851 140.649  0.00  0.00    +0.000 C 
BRANCH  24  30
ATOM     30  O   UNL     1     111.951 130.733 139.687  0.00  0.00    +0.000 OA
BRANCH  30  35
ATOM     31  O   UNL     1     111.670 129.596 138.868  0.00  0.00    +0.000 OA
ATOM     32  O   UNL     1     113.455 130.842 139.018  0.00  0.00    +0.000 OA
ATOM     33  O   UNL     1     113.926 129.759 137.866  0.00  0.00    +0.000 OA
ATOM     34  O   UNL     1     112.893 128.567 137.382  0.00  0.00    +0.000 OA
ATOM     35  C   UNL     1     112.186 130.192 139.111  0.00  0.00    +0.000 C 
ATOM     36  C   UNL     1     112.939 130.246 138.776  0.00  0.00    +0.000 C 
ATOM     37  C   UNL     1     113.175 129.705 138.200  0.00  0.00    +0.000 C 
ATOM     38  C   UNL     1     112.657 129.109 137.958  0.00  0.00    +0.000 C 
ATOM     39  C   UNL     1     111.906 129.054 138.292  0.00  0.00    +0.000 C 
ATOM     40  C   UNL     1     111.388 128.459 138.051  0.00  0.00    +0.000 C 
ENDBRANCH  30  35
ENDBRANCH  24  30
ENDBRANCH  20  27
ENDBRANCH   4  20
BRANCH   8  41
ATOM     41  O   UNL     1     111.464 131.427 145.573  0.00  0.00    +0.000 OA
BRANCH  41  50
ATOM     42  O   UNL     1     110.189 132.052 145.737  0.00  0.00    +0.000 OA
ATOM     43  O   UNL     1     111.218 133.765 147.197  0.00  0.00    +0.000 OA
ATOM     44  O   UNL     1     109.601 133.819 146.875  0.00  0.00    +0.000 OA
ATOM     45  O   UNL     1     112.149 132.569 146.546  0.00  0.00    +0.000 OA
ATOM     46  C   UNL     1     110.875 133.194 146.711  0.00  0.00    +0.000 C 
ATOM     47  C   UNL     1     110.066 133.221 146.550  0.00  0.00    +0.000 C 
ATOM     48  C   UNL     1     111.341 132.596 146.385  0.00  0.00    +0.000 C 
ATOM     49  C   UNL     1     109.723 132.650 146.063  0.00  0.00    +0.000 C 
ATOM     50  C   UNL     1     110.998 132.025 145.898  0.00  0.00    +0.000 C 
BRANCH  49  52
ATOM     51  O   UNL     1     108.476 131.977 145.876  0.00  0.00    +0.000 OA
ATOM     52  C   UNL     1     108.914 132.677 145.902  0.00  0.00    +0.000 C 
ENDBRANCH  49  52
ENDBRANCH  41  50
ENDBRANCH   8  41
BRANCH  10  53
ATOM     53  C   UNL     1     111.383 129.867 144.929  0.00  0.00    +0.000 C 
BRANCH  53  54
ATOM     54  C   UNL     1     112.057 129.580 145.308  0.00  0.00    +0.000 C 
ATOM     55  C   UNL     1     112.017 128.882 145.747  0.00  0.00    +0.000 C 
ATOM     56  C   UNL     1     112.691 128.595 146.126  0.00  0.00    +0.000 C 
ATOM     57  C   UNL     1     111.305 128.472 145.807  0.00  0.00    +0.000 C 
ENDBRANCH  53  54
ENDBRANCH  10  53
TORSDOF 10
ENDMDL
MODEL 5
REMARK VINA RESULT:     -10.2      1.592      6.560
REMARK  Name = 44258792
REMARK  10 active torsions:
REMARK  status: ('A' for Active; 'I' for Inactive)
REMARK    1  A    between atoms: O_1  and  C_20
REMARK    2  A    between atoms: O_1  and  C_23
REMARK    3  A    between atoms: O_4  and  C_24
REMARK    4  A    between atoms: O_4  and  C_37
REMARK    5  A    between atoms: O_11  and  C_36
REMARK    6  A    between atoms: O_11  and  C_42
REMARK    7  A    between atoms: C_35  and  C_38
REMARK    8  A    between atoms: C_40  and  C_48
REMARK    9  A    between atoms: C_44  and  C_47
REMARK   10  A    between atoms: C_47  and  C_49
REMARK                            x       y       z     vdW  Elec       q    Type
REMARK                         _______ _______ _______ _____ _____    ______ ____
ROOT
ATOM      1  O   UNL     1     112.686 128.802 138.580  0.00  0.00    +0.000 OA
ATOM      2  O   UNL     1     110.477 128.522 139.662  0.00  0.00    +0.000 OA
ATOM      3  O   UNL     1     109.991 127.758 138.539  0.00  0.00    +0.000 OA
ATOM      4  C   UNL     1     111.809 129.039 139.683  0.00  0.00    +0.000 A 
ATOM      5  C   UNL     1     111.214 128.616 139.302  0.00  0.00    +0.000 A 
ATOM      6  C   UNL     1     112.546 129.133 139.323  0.00  0.00    +0.000 A 
ATOM      7  C   UNL     1     111.354 128.286 138.559  0.00  0.00    +0.000 A 
ATOM      8  C   UNL     1     111.631 127.597 137.022  0.00  0.00    +0.000 A 
ATOM      9  C   UNL     1     112.089 128.378 138.198  0.00  0.00    +0.000 A 
ATOM     10  C   UNL     1     112.248 128.039 137.424  0.00  0.00    +0.000 A 
ATOM     11  C   UNL     1     110.725 127.847 138.171  0.00  0.00    +0.000 A 
ATOM     12  C   UNL     1     110.864 127.500 137.397  0.00  0.00    +0.000 A 
ENDROOT
BRANCH   6  14
ATOM     13  O   UNL     1     114.930 130.827 140.850  0.00  0.00    +0.000 OA
ATOM     14  C   UNL     1     113.142 129.556 139.705  0.00  0.00    +0.000 A 
ATOM     15  C   UNL     1     113.278 130.345 139.508  0.00  0.00    +0.000 A 
ATOM     16  C   UNL     1     113.602 129.190 140.284  0.00  0.00    +0.000 A 
ATOM     17  C   UNL     1     113.874 130.769 139.890  0.00  0.00    +0.000 A 
ATOM     18  C   UNL     1     114.198 129.614 140.666  0.00  0.00    +0.000 A 
ATOM     19  C   UNL     1     114.334 130.403 140.468  0.00  0.00    +0.000 A 
ENDBRANCH   6  14
BRANCH   4  20
ATOM     20  O   UNL     1     111.669 129.370 140.426  0.00  0.00    +0.000 OA
BRANCH  20  27
ATOM     21  O   UNL     1     110.850 130.446 139.965  0.00  0.00    +0.000 OA
ATOM     22  O   UNL     1     109.474 130.278 142.015  0.00  0.00    +0.000 OA
ATOM     23  O   UNL     1     109.114 131.410 140.870  0.00  0.00    +0.000 OA
ATOM     24  C   UNL     1     110.572 129.823 141.221  0.00  0.00    +0.000 C 
ATOM     25  C   UNL     1     109.933 130.334 141.332  0.00  0.00    +0.000 C 
ATOM     26  C   UNL     1     109.753 130.900 140.760  0.00  0.00    +0.000 C 
ATOM     27  C   UNL     1     111.030 129.879 140.538  0.00  0.00    +0.000 C 
ATOM     28  C   UNL     1     110.212 130.956 140.076  0.00  0.00    +0.000 C 
ATOM     29  C   UNL     1     110.032 131.522 139.503  0.00  0.00    +0.000 C 
BRANCH  24  30
ATOM     30  O   UNL     1     110.752 129.257 141.793  0.00  0.00    +0.000 OA
BRANCH  30  35
ATOM     31  O   UNL     1     111.428 130.243 142.576  0.00  0.00    +0.000 OA
ATOM     32  O   UNL     1     110.839 128.197 143.054  0.00  0.00    +0.000 OA
ATOM     33  O   UNL     1     111.558 128.653 144.467  0.00  0.00    +0.000 OA
ATOM     34  O   UNL     1     112.190 130.169 144.620  0.00  0.00    +0.000 OA
ATOM     35  C   UNL     1     111.111 129.485 142.500  0.00  0.00    +0.000 C 
ATOM     36  C   UNL     1     111.155 128.955 143.131  0.00  0.00    +0.000 C 
ATOM     37  C   UNL     1     111.515 129.183 143.837  0.00  0.00    +0.000 C 
ATOM     38  C   UNL     1     111.831 129.941 143.913  0.00  0.00    +0.000 C 
ATOM     39  C   UNL     1     111.787 130.471 143.283  0.00  0.00    +0.000 C 
ATOM     40  C   UNL     1     112.103 131.230 143.359  0.00  0.00    +0.000 C 
ENDBRANCH  30  35
ENDBRANCH  24  30
ENDBRANCH  20  27
ENDBRANCH   4  20
BRANCH   8  41
ATOM     41  O   UNL     1     111.774 127.268 136.279  0.00  0.00    +0.000 OA
BRANCH  41  50
ATOM     42  O   UNL     1     111.905 125.882 136.606  0.00  0.00    +0.000 OA
ATOM     43  O   UNL     1     110.373 125.300 134.751  0.00  0.00    +0.000 OA
ATOM     44  O   UNL     1     111.014 124.109 135.696  0.00  0.00    +0.000 OA
ATOM     45  O   UNL     1     110.753 126.879 135.043  0.00  0.00    +0.000 OA
ATOM     46  C   UNL     1     110.883 125.494 135.370  0.00  0.00    +0.000 C 
ATOM     47  C   UNL     1     111.204 124.899 135.842  0.00  0.00    +0.000 C 
ATOM     48  C   UNL     1     111.074 126.284 135.515  0.00  0.00    +0.000 C 
ATOM     49  C   UNL     1     111.715 125.093 136.460  0.00  0.00    +0.000 C 
ATOM     50  C   UNL     1     111.584 126.478 136.134  0.00  0.00    +0.000 C 
BRANCH  49  52
ATOM     51  O   UNL     1     112.824 124.542 137.175  0.00  0.00    +0.000 OA
ATOM     52  C   UNL     1     112.036 124.497 136.932  0.00  0.00    +0.000 C 
ENDBRANCH  49  52
ENDBRANCH  41  50
ENDBRANCH   8  41
BRANCH  10  53
ATOM     53  C   UNL     1     112.987 128.137 137.071  0.00  0.00    +0.000 C 
BRANCH  53  54
ATOM     54  C   UNL     1     113.113 128.762 136.547  0.00  0.00    +0.000 C 
ATOM     55  C   UNL     1     113.839 128.833 136.159  0.00  0.00    +0.000 C 
ATOM     56  C   UNL     1     113.965 129.457 135.634  0.00  0.00    +0.000 C 
ATOM     57  C   UNL     1     114.436 128.282 136.295  0.00  0.00    +0.000 C 
ENDBRANCH  53  54
ENDBRANCH  10  53
TORSDOF 10
ENDMDL
MODEL 6
REMARK VINA RESULT:     -10.0      1.519      2.213
REMARK  Name = 44258792
REMARK  10 active torsions:
REMARK  status: ('A' for Active; 'I' for Inactive)
REMARK    1  A    between atoms: O_1  and  C_20
REMARK    2  A    between atoms: O_1  and  C_23
REMARK    3  A    between atoms: O_4  and  C_24
REMARK    4  A    between atoms: O_4  and  C_37
REMARK    5  A    between atoms: O_11  and  C_36
REMARK    6  A    between atoms: O_11  and  C_42
REMARK    7  A    between atoms: C_35  and  C_38
REMARK    8  A    between atoms: C_40  and  C_48
REMARK    9  A    between atoms: C_44  and  C_47
REMARK   10  A    between atoms: C_47  and  C_49
REMARK                            x       y       z     vdW  Elec       q    Type
REMARK                         _______ _______ _______ _____ _____    ______ ____
ROOT
ATOM      1  O   UNL     1     112.573 129.506 139.341  0.00  0.00    +0.000 OA
ATOM      2  O   UNL     1     110.164 130.032 139.131  0.00  0.00    +0.000 OA
ATOM      3  O   UNL     1     110.153 130.643 140.438  0.00  0.00    +0.000 OA
ATOM      4  C   UNL     1     111.360 129.470 138.588  0.00  0.00    +0.000 A 
ATOM      5  C   UNL     1     110.967 129.857 139.201  0.00  0.00    +0.000 A 
ATOM      6  C   UNL     1     112.163 129.294 138.657  0.00  0.00    +0.000 A 
ATOM      7  C   UNL     1     111.377 130.068 139.884  0.00  0.00    +0.000 A 
ATOM      8  C   UNL     1     112.215 130.512 141.304  0.00  0.00    +0.000 A 
ATOM      9  C   UNL     1     112.180 129.893 139.955  0.00  0.00    +0.000 A 
ATOM     10  C   UNL     1     112.619 130.108 140.662  0.00  0.00    +0.000 A 
ATOM     11  C   UNL     1     110.956 130.471 140.516  0.00  0.00    +0.000 A 
ATOM     12  C   UNL     1     111.378 130.695 141.232  0.00  0.00    +0.000 A 
ENDROOT
BRANCH   6  14
ATOM     13  O   UNL     1     113.735 127.746 136.204  0.00  0.00    +0.000 OA
ATOM     14  C   UNL     1     112.556 128.907 138.045  0.00  0.00    +0.000 A 
ATOM     15  C   UNL     1     112.961 129.344 137.474  0.00  0.00    +0.000 A 
ATOM     16  C   UNL     1     112.544 128.083 138.001  0.00  0.00    +0.000 A 
ATOM     17  C   UNL     1     113.354 128.957 136.860  0.00  0.00    +0.000 A 
ATOM     18  C   UNL     1     112.937 127.696 137.388  0.00  0.00    +0.000 A 
ATOM     19  C   UNL     1     113.342 128.133 136.818  0.00  0.00    +0.000 A 
ENDBRANCH   6  14
BRANCH   4  20
ATOM     20  O   UNL     1     110.950 129.258 137.904  0.00  0.00    +0.000 OA
BRANCH  20  27
ATOM     21  O   UNL     1     110.860 130.586 137.384  0.00  0.00    +0.000 OA
ATOM     22  O   UNL     1     108.672 130.040 136.365  0.00  0.00    +0.000 OA
ATOM     23  O   UNL     1     109.311 131.550 136.186  0.00  0.00    +0.000 OA
ATOM     24  C   UNL     1     109.810 129.648 137.135  0.00  0.00    +0.000 C 
ATOM     25  C   UNL     1     109.401 130.222 136.705  0.00  0.00    +0.000 C 
ATOM     26  C   UNL     1     109.720 130.977 136.615  0.00  0.00    +0.000 C 
ATOM     27  C   UNL     1     110.540 129.830 137.474  0.00  0.00    +0.000 C 
ATOM     28  C   UNL     1     110.450 131.159 136.955  0.00  0.00    +0.000 C 
ATOM     29  C   UNL     1     110.770 131.914 136.865  0.00  0.00    +0.000 C 
BRANCH  24  30
ATOM     30  O   UNL     1     109.491 128.894 137.224  0.00  0.00    +0.000 OA
BRANCH  30  35
ATOM     31  O   UNL     1     109.952 128.542 135.918  0.00  0.00    +0.000 OA
ATOM     32  O   UNL     1     108.866 127.378 137.411  0.00  0.00    +0.000 OA
ATOM     33  O   UNL     1     109.015 126.269 136.198  0.00  0.00    +0.000 OA
ATOM     34  O   UNL     1     109.789 126.677 134.799  0.00  0.00    +0.000 OA
ATOM     35  C   UNL     1     109.565 128.339 136.618  0.00  0.00    +0.000 C 
ATOM     36  C   UNL     1     109.253 127.581 136.711  0.00  0.00    +0.000 C 
ATOM     37  C   UNL     1     109.327 127.027 136.104  0.00  0.00    +0.000 C 
ATOM     38  C   UNL     1     109.715 127.231 135.405  0.00  0.00    +0.000 C 
ATOM     39  C   UNL     1     110.027 127.988 135.312  0.00  0.00    +0.000 C 
ATOM     40  C   UNL     1     110.414 128.192 134.612  0.00  0.00    +0.000 C 
ENDBRANCH  30  35
ENDBRANCH  24  30
ENDBRANCH  20  27
ENDBRANCH   4  20
BRANCH   8  41
ATOM     41  O   UNL     1     112.627 130.722 141.987  0.00  0.00    +0.000 OA
BRANCH  41  50
ATOM     42  O   UNL     1     111.947 129.952 142.981  0.00  0.00    +0.000 OA
ATOM     43  O   UNL     1     111.785 131.958 144.422  0.00  0.00    +0.000 OA
ATOM     44  O   UNL     1     111.159 130.520 144.936  0.00  0.00    +0.000 OA
ATOM     45  O   UNL     1     112.519 132.058 142.948  0.00  0.00    +0.000 OA
ATOM     46  C   UNL     1     111.839 131.289 143.942  0.00  0.00    +0.000 C 
ATOM     47  C   UNL     1     111.526 130.571 144.199  0.00  0.00    +0.000 C 
ATOM     48  C   UNL     1     112.206 131.340 143.205  0.00  0.00    +0.000 C 
ATOM     49  C   UNL     1     111.580 129.902 143.718  0.00  0.00    +0.000 C 
ATOM     50  C   UNL     1     112.260 130.671 142.724  0.00  0.00    +0.000 C 
BRANCH  49  52
ATOM     51  O   UNL     1     111.678 128.481 143.836  0.00  0.00    +0.000 OA
ATOM     52  C   UNL     1     111.267 129.183 143.975  0.00  0.00    +0.000 C 
ENDBRANCH  49  52
ENDBRANCH  41  50
ENDBRANCH   8  41
BRANCH  10  53
ATOM     53  C   UNL     1     113.421 129.929 140.724  0.00  0.00    +0.000 C 
BRANCH  53  54
ATOM     54  C   UNL     1     113.986 130.513 140.581  0.00  0.00    +0.000 C 
ATOM     55  C   UNL     1     114.789 130.319 140.584  0.00  0.00    +0.000 C 
ATOM     56  C   UNL     1     115.354 130.903 140.441  0.00  0.00    +0.000 C 
ATOM     57  C   UNL     1     115.026 129.543 140.730  0.00  0.00    +0.000 C 
ENDBRANCH  53  54
ENDBRANCH  10  53
TORSDOF 10
ENDMDL
MODEL 7
REMARK VINA RESULT:      -9.9      1.617      2.632
REMARK  Name = 44258792
REMARK  10 active torsions:
REMARK  status: ('A' for Active; 'I' for Inactive)
REMARK    1  A    between atoms: O_1  and  C_20
REMARK    2  A    between atoms: O_1  and  C_23
REMARK    3  A    between atoms: O_4  and  C_24
REMARK    4  A    between atoms: O_4  and  C_37
REMARK    5  A    between atoms: O_11  and  C_36
REMARK    6  A    between atoms: O_11  and  C_42
REMARK    7  A    between atoms: C_35  and  C_38
REMARK    8  A    between atoms: C_40  and  C_48
REMARK    9  A    between atoms: C_44  and  C_47
REMARK   10  A    between atoms: C_47  and  C_49
REMARK                            x       y       z     vdW  Elec       q    Type
REMARK                         _______ _______ _______ _____ _____    ______ ____
ROOT
ATOM      1  O   UNL     1     112.521 128.699 139.721  0.00  0.00    +0.000 OA
ATOM      2  O   UNL     1     110.078 128.730 139.322  0.00  0.00    +0.000 OA
ATOM      3  O   UNL     1     109.903 129.779 140.297  0.00  0.00    +0.000 OA
ATOM      4  C   UNL     1     111.372 128.195 139.037  0.00  0.00    +0.000 A 
ATOM      5  C   UNL     1     110.892 128.719 139.455  0.00  0.00    +0.000 A 
ATOM      6  C   UNL     1     112.186 128.185 139.170  0.00  0.00    +0.000 A 
ATOM      7  C   UNL     1     111.227 129.234 140.006  0.00  0.00    +0.000 A 
ATOM      8  C   UNL     1     111.906 130.304 141.150  0.00  0.00    +0.000 A 
ATOM      9  C   UNL     1     112.040 129.224 140.140  0.00  0.00    +0.000 A 
ATOM     10  C   UNL     1     112.401 129.755 140.711  0.00  0.00    +0.000 A 
ATOM     11  C   UNL     1     110.716 129.776 140.436  0.00  0.00    +0.000 A 
ATOM     12  C   UNL     1     111.058 130.315 141.012  0.00  0.00    +0.000 A 
ENDROOT
BRANCH   6  14
ATOM     13  O   UNL     1     114.107 126.086 137.497  0.00  0.00    +0.000 OA
ATOM     14  C   UNL     1     112.666 127.660 138.752  0.00  0.00    +0.000 A 
ATOM     15  C   UNL     1     112.895 126.947 139.096  0.00  0.00    +0.000 A 
ATOM     16  C   UNL     1     112.918 127.849 137.989  0.00  0.00    +0.000 A 
ATOM     17  C   UNL     1     113.376 126.422 138.678  0.00  0.00    +0.000 A 
ATOM     18  C   UNL     1     113.397 127.325 137.571  0.00  0.00    +0.000 A 
ATOM     19  C   UNL     1     113.626 126.611 137.915  0.00  0.00    +0.000 A 
ENDBRANCH   6  14
BRANCH   4  20
ATOM     20  O   UNL     1     111.038 127.681 138.486  0.00  0.00    +0.000 OA
BRANCH  20  27
ATOM     21  O   UNL     1     110.457 126.805 139.454  0.00  0.00    +0.000 OA
ATOM     22  O   UNL     1     108.571 126.354 137.916  0.00  0.00    +0.000 OA
ATOM     23  O   UNL     1     108.619 125.629 139.397  0.00  0.00    +0.000 OA
ATOM     24  C   UNL     1     109.804 127.018 138.200  0.00  0.00    +0.000 C 
ATOM     25  C   UNL     1     109.200 126.504 138.428  0.00  0.00    +0.000 C 
ATOM     26  C   UNL     1     109.223 126.142 139.169  0.00  0.00    +0.000 C 
ATOM     27  C   UNL     1     110.433 127.168 138.713  0.00  0.00    +0.000 C 
ATOM     28  C   UNL     1     109.852 126.293 139.681  0.00  0.00    +0.000 C 
ATOM     29  C   UNL     1     109.876 125.930 140.423  0.00  0.00    +0.000 C 
BRANCH  24  30
ATOM     30  O   UNL     1     109.781 127.380 137.460  0.00  0.00    +0.000 OA
BRANCH  30  35
ATOM     31  O   UNL     1     110.313 126.201 136.852  0.00  0.00    +0.000 OA
ATOM     32  O   UNL     1     109.463 128.006 135.967  0.00  0.00    +0.000 OA
ATOM     33  O   UNL     1     109.837 127.140 134.613  0.00  0.00    +0.000 OA
ATOM     34  O   UNL     1     110.527 125.648 134.752  0.00  0.00    +0.000 OA
ATOM     35  C   UNL     1     109.967 126.947 136.783  0.00  0.00    +0.000 C 
ATOM     36  C   UNL     1     109.809 127.260 136.035  0.00  0.00    +0.000 C 
ATOM     37  C   UNL     1     109.995 126.827 135.358  0.00  0.00    +0.000 C 
ATOM     38  C   UNL     1     110.341 126.081 135.429  0.00  0.00    +0.000 C 
ATOM     39  C   UNL     1     110.499 125.768 136.175  0.00  0.00    +0.000 C 
ATOM     40  C   UNL     1     110.845 125.022 136.245  0.00  0.00    +0.000 C 
ENDBRANCH  30  35
ENDBRANCH  24  30
ENDBRANCH  20  27
ENDBRANCH   4  20
BRANCH   8  41
ATOM     41  O   UNL     1     112.243 130.817 141.701  0.00  0.00    +0.000 OA
BRANCH  41  50
ATOM     42  O   UNL     1     111.809 130.211 142.921  0.00  0.00    +0.000 OA
ATOM     43  O   UNL     1     111.161 132.434 143.794  0.00  0.00    +0.000 OA
ATOM     44  O   UNL     1     110.943 131.087 144.722  0.00  0.00    +0.000 OA
ATOM     45  O   UNL     1     111.811 132.299 142.284  0.00  0.00    +0.000 OA
ATOM     46  C   UNL     1     111.377 131.693 143.503  0.00  0.00    +0.000 C 
ATOM     47  C   UNL     1     111.268 131.019 143.967  0.00  0.00    +0.000 C 
ATOM     48  C   UNL     1     111.702 131.625 142.748  0.00  0.00    +0.000 C 
ATOM     49  C   UNL     1     111.484 130.278 143.676  0.00  0.00    +0.000 C 
ATOM     50  C   UNL     1     111.918 130.884 142.457  0.00  0.00    +0.000 C 
BRANCH  49  52
ATOM     51  O   UNL     1     111.951 129.013 144.150  0.00  0.00    +0.000 OA
ATOM     52  C   UNL     1     111.375 129.605 144.140  0.00  0.00    +0.000 C 
ENDBRANCH  49  52
ENDBRANCH  41  50
ENDBRANCH   8  41
BRANCH  10  53
ATOM     53  C   UNL     1     113.216 129.738 140.838  0.00  0.00    +0.000 C 
BRANCH  53  54
ATOM     54  C   UNL     1     113.702 130.294 140.469  0.00  0.00    +0.000 C 
ATOM     55  C   UNL     1     114.523 130.220 140.518  0.00  0.00    +0.000 C 
ATOM     56  C   UNL     1     115.008 130.776 140.150  0.00  0.00    +0.000 C 
ATOM     57  C   UNL     1     114.857 129.592 140.934  0.00  0.00    +0.000 C 
ENDBRANCH  53  54
ENDBRANCH  10  53
TORSDOF 10
ENDMDL
MODEL 8
REMARK VINA RESULT:      -9.9      2.119      4.448
REMARK  Name = 44258792
REMARK  10 active torsions:
REMARK  status: ('A' for Active; 'I' for Inactive)
REMARK    1  A    between atoms: O_1  and  C_20
REMARK    2  A    between atoms: O_1  and  C_23
REMARK    3  A    between atoms: O_4  and  C_24
REMARK    4  A    between atoms: O_4  and  C_37
REMARK    5  A    between atoms: O_11  and  C_36
REMARK    6  A    between atoms: O_11  and  C_42
REMARK    7  A    between atoms: C_35  and  C_38
REMARK    8  A    between atoms: C_40  and  C_48
REMARK    9  A    between atoms: C_44  and  C_47
REMARK   10  A    between atoms: C_47  and  C_49
REMARK                            x       y       z     vdW  Elec       q    Type
REMARK                         _______ _______ _______ _____ _____    ______ ____
ROOT
ATOM      1  O   UNL     1     111.603 129.522 137.208  0.00  0.00    +0.000 OA
ATOM      2  O   UNL     1     110.992 127.254 137.991  0.00  0.00    +0.000 OA
ATOM      3  O   UNL     1     109.931 127.791 138.809  0.00  0.00    +0.000 OA
ATOM      4  C   UNL     1     111.819 128.110 137.199  0.00  0.00    +0.000 A 
ATOM      5  C   UNL     1     111.196 128.010 137.730  0.00  0.00    +0.000 A 
ATOM      6  C   UNL     1     112.023 128.865 136.938  0.00  0.00    +0.000 A 
ATOM      7  C   UNL     1     110.776 128.667 138.000  0.00  0.00    +0.000 A 
ATOM      8  C   UNL     1     109.899 130.017 138.566  0.00  0.00    +0.000 A 
ATOM      9  C   UNL     1     110.979 129.423 137.740  0.00  0.00    +0.000 A 
ATOM     10  C   UNL     1     110.549 130.115 138.013  0.00  0.00    +0.000 A 
ATOM     11  C   UNL     1     110.128 128.550 138.553  0.00  0.00    +0.000 A 
ATOM     12  C   UNL     1     109.686 129.230 138.839  0.00  0.00    +0.000 A 
ENDROOT
BRANCH   6  14
ATOM     13  O   UNL     1     114.517 129.263 134.813  0.00  0.00    +0.000 OA
ATOM     14  C   UNL     1     112.646 128.965 136.407  0.00  0.00    +0.000 A 
ATOM     15  C   UNL     1     112.493 129.032 135.600  0.00  0.00    +0.000 A 
ATOM     16  C   UNL     1     113.423 128.996 136.683  0.00  0.00    +0.000 A 
ATOM     17  C   UNL     1     113.117 129.132 135.068  0.00  0.00    +0.000 A 
ATOM     18  C   UNL     1     114.046 129.096 136.153  0.00  0.00    +0.000 A 
ATOM     19  C   UNL     1     113.893 129.164 135.345  0.00  0.00    +0.000 A 
ENDBRANCH   6  14
BRANCH   4  20
ATOM     20  O   UNL     1     112.239 127.453 136.929  0.00  0.00    +0.000 OA
BRANCH  20  27
ATOM     21  O   UNL     1     111.297 126.990 135.959  0.00  0.00    +0.000 OA
ATOM     22  O   UNL     1     111.737 124.654 136.646  0.00  0.00    +0.000 OA
ATOM     23  O   UNL     1     110.649 124.970 135.447  0.00  0.00    +0.000 OA
ATOM     24  C   UNL     1     111.989 126.053 136.788  0.00  0.00    +0.000 C 
ATOM     25  C   UNL     1     111.591 125.433 136.417  0.00  0.00    +0.000 C 
ATOM     26  C   UNL     1     111.047 125.591 135.818  0.00  0.00    +0.000 C 
ATOM     27  C   UNL     1     111.842 126.832 136.559  0.00  0.00    +0.000 C 
ATOM     28  C   UNL     1     110.900 126.369 135.589  0.00  0.00    +0.000 C 
ATOM     29  C   UNL     1     110.355 126.528 134.989  0.00  0.00    +0.000 C 
BRANCH  24  30
ATOM     30  O   UNL     1     112.533 125.895 137.387  0.00  0.00    +0.000 OA
BRANCH  30  35
ATOM     31  O   UNL     1     113.550 125.669 136.409  0.00  0.00    +0.000 OA
ATOM     32  O   UNL     1     113.578 125.435 138.578  0.00  0.00    +0.000 OA
ATOM     33  O   UNL     1     115.117 124.980 138.196  0.00  0.00    +0.000 OA
ATOM     34  O   UNL     1     115.611 124.983 136.621  0.00  0.00    +0.000 OA
ATOM     35  C   UNL     1     113.302 125.667 137.195  0.00  0.00    +0.000 C 
ATOM     36  C   UNL     1     113.825 125.437 137.792  0.00  0.00    +0.000 C 
ATOM     37  C   UNL     1     114.595 125.209 137.600  0.00  0.00    +0.000 C 
ATOM     38  C   UNL     1     114.841 125.211 136.813  0.00  0.00    +0.000 C 
ATOM     39  C   UNL     1     114.319 125.441 136.217  0.00  0.00    +0.000 C 
ATOM     40  C   UNL     1     114.566 125.443 135.430  0.00  0.00    +0.000 C 
ENDBRANCH  30  35
ENDBRANCH  24  30
ENDBRANCH  20  27
ENDBRANCH   4  20
BRANCH   8  41
ATOM     41  O   UNL     1     109.480 130.676 138.835  0.00  0.00    +0.000 OA
BRANCH  41  50
ATOM     42  O   UNL     1     109.921 130.754 140.193  0.00  0.00    +0.000 OA
ATOM     43  O   UNL     1     107.575 131.012 140.938  0.00  0.00    +0.000 OA
ATOM     44  O   UNL     1     108.797 131.004 142.047  0.00  0.00    +0.000 OA
ATOM     45  O   UNL     1     107.917 130.848 139.332  0.00  0.00    +0.000 OA
ATOM     46  C   UNL     1     108.357 130.926 140.689  0.00  0.00    +0.000 C 
ATOM     47  C   UNL     1     108.968 130.922 141.244  0.00  0.00    +0.000 C 
ATOM     48  C   UNL     1     108.528 130.844 139.887  0.00  0.00    +0.000 C 
ATOM     49  C   UNL     1     109.750 130.836 140.995  0.00  0.00    +0.000 C 
ATOM     50  C   UNL     1     109.310 130.758 139.638  0.00  0.00    +0.000 C 
BRANCH  49  52
ATOM     51  O   UNL     1     111.052 131.261 141.406  0.00  0.00    +0.000 OA
ATOM     52  C   UNL     1     110.361 130.832 141.550  0.00  0.00    +0.000 C 
ENDBRANCH  49  52
ENDBRANCH  41  50
ENDBRANCH   8  41
BRANCH  10  53
ATOM     53  C   UNL     1     110.760 130.866 137.747  0.00  0.00    +0.000 C 
BRANCH  53  54
ATOM     54  C   UNL     1     110.333 131.222 137.137  0.00  0.00    +0.000 C 
ATOM     55  C   UNL     1     110.557 131.965 136.856  0.00  0.00    +0.000 C 
ATOM     56  C   UNL     1     110.130 132.320 136.245  0.00  0.00    +0.000 C 
ATOM     57  C   UNL     1     111.207 132.351 137.184  0.00  0.00    +0.000 C 
ENDBRANCH  53  54
ENDBRANCH  10  53
TORSDOF 10
ENDMDL
MODEL 9
REMARK VINA RESULT:      -9.9      1.843      3.196
REMARK  Name = 44258792
REMARK  10 active torsions:
REMARK  status: ('A' for Active; 'I' for Inactive)
REMARK    1  A    between atoms: O_1  and  C_20
REMARK    2  A    between atoms: O_1  and  C_23
REMARK    3  A    between atoms: O_4  and  C_24
REMARK    4  A    between atoms: O_4  and  C_37
REMARK    5  A    between atoms: O_11  and  C_36
REMARK    6  A    between atoms: O_11  and  C_42
REMARK    7  A    between atoms: C_35  and  C_38
REMARK    8  A    between atoms: C_40  and  C_48
REMARK    9  A    between atoms: C_44  and  C_47
REMARK   10  A    between atoms: C_47  and  C_49
REMARK                            x       y       z     vdW  Elec       q    Type
REMARK                         _______ _______ _______ _____ _____    ______ ____
ROOT
ATOM      1  O   UNL     1     112.102 129.926 139.550  0.00  0.00    +0.000 OA
ATOM      2  O   UNL     1     109.838 128.938 139.387  0.00  0.00    +0.000 OA
ATOM      3  O   UNL     1     109.850 128.607 140.792  0.00  0.00    +0.000 OA
ATOM      4  C   UNL     1     110.951 129.590 138.772  0.00  0.00    +0.000 A 
ATOM      5  C   UNL     1     110.593 129.267 139.441  0.00  0.00    +0.000 A 
ATOM      6  C   UNL     1     111.706 129.919 138.826  0.00  0.00    +0.000 A 
ATOM      7  C   UNL     1     110.989 129.274 140.165  0.00  0.00    +0.000 A 
ATOM      8  C   UNL     1     111.798 129.282 141.668  0.00  0.00    +0.000 A 
ATOM      9  C   UNL     1     111.743 129.603 140.220  0.00  0.00    +0.000 A 
ATOM     10  C   UNL     1     112.166 129.617 140.967  0.00  0.00    +0.000 A 
ATOM     11  C   UNL     1     110.604 128.935 140.855  0.00  0.00    +0.000 A 
ATOM     12  C   UNL     1     111.012 128.939 141.612  0.00  0.00    +0.000 A 
ENDROOT
BRANCH   6  14
ATOM     13  O   UNL     1     113.140 131.211 136.149  0.00  0.00    +0.000 OA
ATOM     14  C   UNL     1     112.064 130.242 138.157  0.00  0.00    +0.000 A 
ATOM     15  C   UNL     1     111.898 131.019 137.935  0.00  0.00    +0.000 A 
ATOM     16  C   UNL     1     112.589 129.788 137.710  0.00  0.00    +0.000 A 
ATOM     17  C   UNL     1     112.257 131.342 137.265  0.00  0.00    +0.000 A 
ATOM     18  C   UNL     1     112.947 130.111 137.041  0.00  0.00    +0.000 A 
ATOM     19  C   UNL     1     112.781 130.887 136.819  0.00  0.00    +0.000 A 
ENDBRANCH   6  14
BRANCH   4  20
ATOM     20  O   UNL     1     110.555 129.583 138.049  0.00  0.00    +0.000 OA
BRANCH  20  27
ATOM     21  O   UNL     1     110.803 128.207 137.754  0.00  0.00    +0.000 OA
ATOM     22  O   UNL     1     108.589 128.042 136.660  0.00  0.00    +0.000 OA
ATOM     23  O   UNL     1     109.575 126.721 136.730  0.00  0.00    +0.000 OA
ATOM     24  C   UNL     1     109.572 128.813 137.354  0.00  0.00    +0.000 C 
ATOM     25  C   UNL     1     109.327 128.097 137.025  0.00  0.00    +0.000 C 
ATOM     26  C   UNL     1     109.820 127.437 137.060  0.00  0.00    +0.000 C 
ATOM     27  C   UNL     1     110.310 128.868 137.719  0.00  0.00    +0.000 C 
ATOM     28  C   UNL     1     110.558 127.492 137.424  0.00  0.00    +0.000 C 
ATOM     29  C   UNL     1     111.051 126.831 137.460  0.00  0.00    +0.000 C 
BRANCH  24  30
ATOM     30  O   UNL     1     109.079 129.473 137.319  0.00  0.00    +0.000 OA
BRANCH  30  35
ATOM     31  O   UNL     1     109.490 129.713 135.972  0.00  0.00    +0.000 OA
ATOM     32  O   UNL     1     108.217 130.880 137.307  0.00  0.00    +0.000 OA
ATOM     33  O   UNL     1     108.197 131.823 135.953  0.00  0.00    +0.000 OA
ATOM     34  O   UNL     1     109.039 131.360 134.612  0.00  0.00    +0.000 OA
ATOM     35  C   UNL     1     109.069 129.945 136.642  0.00  0.00    +0.000 C 
ATOM     36  C   UNL     1     108.638 130.649 136.636  0.00  0.00    +0.000 C 
ATOM     37  C   UNL     1     108.628 131.120 135.959  0.00  0.00    +0.000 C 
ATOM     38  C   UNL     1     109.049 130.888 135.289  0.00  0.00    +0.000 C 
ATOM     39  C   UNL     1     109.480 130.185 135.295  0.00  0.00    +0.000 C 
ATOM     40  C   UNL     1     109.902 129.953 134.625  0.00  0.00    +0.000 C 
ENDBRANCH  30  35
ENDBRANCH  24  30
ENDBRANCH  20  27
ENDBRANCH   4  20
BRANCH   8  41
ATOM     41  O   UNL     1     112.196 129.290 142.390  0.00  0.00    +0.000 OA
BRANCH  41  50
ATOM     42  O   UNL     1     111.559 130.359 143.094  0.00  0.00    +0.000 OA
ATOM     43  O   UNL     1     111.213 128.869 145.041  0.00  0.00    +0.000 OA
ATOM     44  O   UNL     1     110.691 130.433 145.096  0.00  0.00    +0.000 OA
ATOM     45  O   UNL     1     111.966 128.298 143.688  0.00  0.00    +0.000 OA
ATOM     46  C   UNL     1     111.328 129.366 144.392  0.00  0.00    +0.000 C 
ATOM     47  C   UNL     1     111.067 130.148 144.420  0.00  0.00    +0.000 C 
ATOM     48  C   UNL     1     111.705 129.080 143.716  0.00  0.00    +0.000 C 
ATOM     49  C   UNL     1     111.182 130.644 143.771  0.00  0.00    +0.000 C 
ATOM     50  C   UNL     1     111.820 129.577 143.067  0.00  0.00    +0.000 C 
BRANCH  49  52
ATOM     51  O   UNL     1     110.772 131.837 143.097  0.00  0.00    +0.000 OA
ATOM     52  C   UNL     1     110.921 131.427 143.798  0.00  0.00    +0.000 C 
ENDBRANCH  49  52
ENDBRANCH  41  50
ENDBRANCH   8  41
BRANCH  10  53
ATOM     53  C   UNL     1     112.920 129.948 141.012  0.00  0.00    +0.000 C 
BRANCH  53  54
ATOM     54  C   UNL     1     113.585 129.480 140.873  0.00  0.00    +0.000 C 
ATOM     55  C   UNL     1     114.336 129.823 140.866  0.00  0.00    +0.000 C 
ATOM     56  C   UNL     1     115.001 129.355 140.726  0.00  0.00    +0.000 C 
ATOM     57  C   UNL     1     114.422 130.632 140.998  0.00  0.00    +0.000 C 
ENDBRANCH  53  54
ENDBRANCH  10  53
TORSDOF 10
ENDMDL
MODEL 10
REMARK VINA RESULT:      -9.9      1.887      6.662
REMARK  Name = 44258792
REMARK  10 active torsions:
REMARK  status: ('A' for Active; 'I' for Inactive)
REMARK    1  A    between atoms: O_1  and  C_20
REMARK    2  A    between atoms: O_1  and  C_23
REMARK    3  A    between atoms: O_4  and  C_24
REMARK    4  A    between atoms: O_4  and  C_37
REMARK    5  A    between atoms: O_11  and  C_36
REMARK    6  A    between atoms: O_11  and  C_42
REMARK    7  A    between atoms: C_35  and  C_38
REMARK    8  A    between atoms: C_40  and  C_48
REMARK    9  A    between atoms: C_44  and  C_47
REMARK   10  A    between atoms: C_47  and  C_49
REMARK                            x       y       z     vdW  Elec       q    Type
REMARK                         _______ _______ _______ _____ _____    ______ ____
ROOT
ATOM      1  O   UNL     1     111.886 128.882 138.199  0.00  0.00    +0.000 OA
ATOM      2  O   UNL     1     112.460 127.842 140.371  0.00  0.00    +0.000 OA
ATOM      3  O   UNL     1     113.153 126.765 139.705  0.00  0.00    +0.000 OA
ATOM      4  C   UNL     1     111.834 128.889 139.627  0.00  0.00    +0.000 A 
ATOM      5  C   UNL     1     112.269 128.189 139.647  0.00  0.00    +0.000 A 
ATOM      6  C   UNL     1     111.642 129.236 138.903  0.00  0.00    +0.000 A 
ATOM      7  C   UNL     1     112.512 127.835 138.943  0.00  0.00    +0.000 A 
ATOM      8  C   UNL     1     113.023 127.092 137.493  0.00  0.00    +0.000 A 
ATOM      9  C   UNL     1     112.321 128.181 138.219  0.00  0.00    +0.000 A 
ATOM     10  C   UNL     1     112.569 127.822 137.478  0.00  0.00    +0.000 A 
ATOM     11  C   UNL     1     112.965 127.105 138.977  0.00  0.00    +0.000 A 
ATOM     12  C   UNL     1     113.223 126.731 138.247  0.00  0.00    +0.000 A 
ENDROOT
BRANCH   6  14
ATOM     13  O   UNL     1     109.901 132.038 138.823  0.00  0.00    +0.000 OA
ATOM     14  C   UNL     1     111.207 129.936 138.883  0.00  0.00    +0.000 A 
ATOM     15  C   UNL     1     110.389 129.911 138.780  0.00  0.00    +0.000 A 
ATOM     16  C   UNL     1     111.589 130.663 138.967  0.00  0.00    +0.000 A 
ATOM     17  C   UNL     1     109.953 130.612 138.760  0.00  0.00    +0.000 A 
ATOM     18  C   UNL     1     111.155 131.363 138.947  0.00  0.00    +0.000 A 
ATOM     19  C   UNL     1     110.337 131.337 138.843  0.00  0.00    +0.000 A 
ENDBRANCH   6  14
BRANCH   4  20
ATOM     20  O   UNL     1     111.590 129.243 140.331  0.00  0.00    +0.000 OA
BRANCH  20  27
ATOM     21  O   UNL     1     110.525 128.329 140.601  0.00  0.00    +0.000 OA
ATOM     22  O   UNL     1     110.979 128.518 143.027  0.00  0.00    +0.000 OA
ATOM     23  O   UNL     1     109.763 127.541 142.489  0.00  0.00    +0.000 OA
ATOM     24  C   UNL     1     111.285 128.881 141.679  0.00  0.00    +0.000 C 
ATOM     25  C   UNL     1     110.828 128.455 142.218  0.00  0.00    +0.000 C 
ATOM     26  C   UNL     1     110.220 127.967 141.950  0.00  0.00    +0.000 C 
ATOM     27  C   UNL     1     111.134 128.818 140.871  0.00  0.00    +0.000 C 
ATOM     28  C   UNL     1     110.069 127.904 141.141  0.00  0.00    +0.000 C 
ATOM     29  C   UNL     1     109.460 127.415 140.871  0.00  0.00    +0.000 C 
BRANCH  24  30
ATOM     30  O   UNL     1     111.892 129.369 141.948  0.00  0.00    +0.000 OA
BRANCH  30  35
ATOM     31  O   UNL     1     110.937 130.367 142.312  0.00  0.00    +0.000 OA
ATOM     32  O   UNL     1     113.119 130.408 142.320  0.00  0.00    +0.000 OA
ATOM     33  O   UNL     1     112.776 131.926 142.870  0.00  0.00    +0.000 OA
ATOM     34  O   UNL     1     111.206 132.404 143.048  0.00  0.00    +0.000 OA
ATOM     35  C   UNL     1     111.721 130.127 142.223  0.00  0.00    +0.000 C 
ATOM     36  C   UNL     1     112.334 130.648 142.409  0.00  0.00    +0.000 C 
ATOM     37  C   UNL     1     112.163 131.407 142.684  0.00  0.00    +0.000 C 
ATOM     38  C   UNL     1     111.378 131.645 142.773  0.00  0.00    +0.000 C 
ATOM     39  C   UNL     1     110.765 131.126 142.587  0.00  0.00    +0.000 C 
ATOM     40  C   UNL     1     109.980 131.364 142.676  0.00  0.00    +0.000 C 
ENDBRANCH  30  35
ENDBRANCH  24  30
ENDBRANCH  20  27
ENDBRANCH   4  20
BRANCH   8  41
ATOM     41  O   UNL     1     113.265 126.741 136.787  0.00  0.00    +0.000 OA
BRANCH  41  50
ATOM     42  O   UNL     1     112.425 125.586 136.718  0.00  0.00    +0.000 OA
ATOM     43  O   UNL     1     114.407 124.171 136.273  0.00  0.00    +0.000 OA
ATOM     44  O   UNL     1     112.907 123.489 136.352  0.00  0.00    +0.000 OA
ATOM     45  O   UNL     1     114.585 125.797 136.491  0.00  0.00    +0.000 OA
ATOM     46  C   UNL     1     113.746 124.643 136.421  0.00  0.00    +0.000 C 
ATOM     47  C   UNL     1     112.996 124.301 136.461  0.00  0.00    +0.000 C 
ATOM     48  C   UNL     1     113.835 125.456 136.530  0.00  0.00    +0.000 C 
ATOM     49  C   UNL     1     112.335 124.773 136.609  0.00  0.00    +0.000 C 
ATOM     50  C   UNL     1     113.175 125.927 136.678  0.00  0.00    +0.000 C 
BRANCH  49  52
ATOM     51  O   UNL     1     110.934 124.829 136.333  0.00  0.00    +0.000 OA
ATOM     52  C   UNL     1     111.585 124.432 136.649  0.00  0.00    +0.000 C 
ENDBRANCH  49  52
ENDBRANCH  41  50
ENDBRANCH   8  41
BRANCH  10  53
ATOM     53  C   UNL     1     112.373 128.176 136.759  0.00  0.00    +0.000 C 
BRANCH  53  54
ATOM     54  C   UNL     1     112.924 128.652 136.371  0.00  0.00    +0.000 C 
ATOM     55  C   UNL     1     112.720 129.023 135.662  0.00  0.00    +0.000 C 
ATOM     56  C   UNL     1     113.270 129.500 135.274  0.00  0.00    +0.000 C 
ATOM     57  C   UNL     1     111.967 128.919 135.343  0.00  0.00    +0.000 C 
ENDBRANCH  53  54
ENDBRANCH  10  53
TORSDOF 10
ENDMDL
