MODEL 1
REMARK VINA RESULT:     -10.0      0.000      0.000
REMARK  Name = 44256850
REMARK  9 active torsions:
REMARK  status: ('A' for Active; 'I' for Inactive)
REMARK    1  A    between atoms: O_2  and  C_19
REMARK    2  A    between atoms: O_2  and  C_21
REMARK    3  A    between atoms: O_6  and  C_20
REMARK    4  A    between atoms: O_6  and  C_25
REMARK    5  A    between atoms: O_11  and  C_35
REMARK    6  A    between atoms: C_17  and  C_20
REMARK    7  A    between atoms: C_22  and  C_27
REMARK    8  A    between atoms: C_25  and  C_31
REMARK    9  A    between atoms: C_38  and  C_39
REMARK                            x       y       z     vdW  Elec       q    Type
REMARK                         _______ _______ _______ _____ _____    ______ ____
ROOT
ATOM      1  O   UNL     1     112.756 125.750 137.390  0.00  0.00    +0.000 OA
ATOM      2  O   UNL     1     113.728 124.203 136.196  0.00  0.00    +0.000 OA
ATOM      3  O   UNL     1     114.915 124.544 137.291  0.00  0.00    +0.000 OA
ATOM      4  O   UNL     1     114.662 125.689 138.452  0.00  0.00    +0.000 OA
ATOM      5  C   UNL     1     113.601 124.776 136.776  0.00  0.00    +0.000 C 
ATOM      6  C   UNL     1     114.195 124.946 137.324  0.00  0.00    +0.000 C 
ATOM      7  C   UNL     1     112.881 125.178 136.809  0.00  0.00    +0.000 C 
ATOM      8  C   UNL     1     114.068 125.518 137.904  0.00  0.00    +0.000 C 
ATOM      9  C   UNL     1     113.348 125.920 137.937  0.00  0.00    +0.000 C 
ENDROOT
BRANCH   9  10
ATOM     10  O   UNL     1     113.222 126.493 138.518  0.00  0.00    +0.000 OA
BRANCH  10  14
ATOM     11  O   UNL     1     112.097 128.363 138.567  0.00  0.00    +0.000 OA
ATOM     12  O   UNL     1     113.801 128.343 136.234  0.00  0.00    +0.000 OA
ATOM     13  O   UNL     1     112.080 130.644 136.757  0.00  0.00    +0.000 OA
ATOM     14  C   UNL     1     112.940 127.239 138.307  0.00  0.00    +0.000 A 
ATOM     15  C   UNL     1     112.378 127.616 138.778  0.00  0.00    +0.000 A 
ATOM     16  C   UNL     1     113.221 127.608 137.624  0.00  0.00    +0.000 A 
ATOM     17  C   UNL     1     112.939 128.354 137.413  0.00  0.00    +0.000 A 
ATOM     18  C   UNL     1     112.377 128.731 137.885  0.00  0.00    +0.000 A 
ATOM     19  C   UNL     1     113.239 128.728 136.700  0.00  0.00    +0.000 A 
ATOM     20  C   UNL     1     112.076 129.508 137.676  0.00  0.00    +0.000 A 
ATOM     21  C   UNL     1     112.949 129.505 136.475  0.00  0.00    +0.000 A 
ATOM     22  C   UNL     1     112.363 129.898 136.966  0.00  0.00    +0.000 A 
BRANCH  15  24
ATOM     23  O   UNL     1     111.259 126.141 141.509  0.00  0.00    +0.000 OA
ATOM     24  C   UNL     1     112.098 127.247 139.462  0.00  0.00    +0.000 A 
ATOM     25  C   UNL     1     111.384 126.835 139.444  0.00  0.00    +0.000 A 
ATOM     26  C   UNL     1     112.533 127.291 140.161  0.00  0.00    +0.000 A 
ATOM     27  C   UNL     1     111.104 126.466 140.127  0.00  0.00    +0.000 A 
ATOM     28  C   UNL     1     112.253 126.921 140.843  0.00  0.00    +0.000 A 
ATOM     29  C   UNL     1     111.538 126.509 140.826  0.00  0.00    +0.000 A 
BRANCH  27  30
ATOM     30  O   UNL     1     110.390 126.054 140.109  0.00  0.00    +0.000 OA
ATOM     31  C   UNL     1     109.885 126.129 139.461  0.00  0.00    +0.000 C 
ENDBRANCH  27  30
ENDBRANCH  15  24
ENDBRANCH  10  14
ENDBRANCH   9  10
BRANCH   7  32
ATOM     32  C   UNL     1     112.289 125.007 136.262  0.00  0.00    +0.000 C 
BRANCH  32  33
ATOM     33  O   UNL     1     111.511 125.242 136.408  0.00  0.00    +0.000 OA
BRANCH  33  35
ATOM     34  O   UNL     1     110.693 124.741 135.351  0.00  0.00    +0.000 OA
ATOM     35  C   UNL     1     110.996 125.377 135.779  0.00  0.00    +0.000 C 
BRANCH  35  36
ATOM     36  C   UNL     1     110.783 126.148 135.577  0.00  0.00    +0.000 C 
ATOM     37  C   UNL     1     110.026 126.426 135.750  0.00  0.00    +0.000 C 
BRANCH  37  40
ATOM     38  O   UNL     1     108.548 128.809 136.302  0.00  0.00    +0.000 OA
ATOM     39  O   UNL     1     109.172 129.511 134.945  0.00  0.00    +0.000 OA
ATOM     40  C   UNL     1     109.813 127.198 135.548  0.00  0.00    +0.000 A 
ATOM     41  C   UNL     1     109.288 127.618 136.026  0.00  0.00    +0.000 A 
ATOM     42  C   UNL     1     110.124 127.548 134.870  0.00  0.00    +0.000 A 
ATOM     43  C   UNL     1     109.074 128.389 135.825  0.00  0.00    +0.000 A 
ATOM     44  C   UNL     1     109.911 128.318 134.669  0.00  0.00    +0.000 A 
ATOM     45  C   UNL     1     109.386 128.739 135.146  0.00  0.00    +0.000 A 
ENDBRANCH  37  40
ENDBRANCH  35  36
ENDBRANCH  33  35
ENDBRANCH  32  33
ENDBRANCH   7  32
TORSDOF 9
ENDMDL
MODEL 2
REMARK VINA RESULT:      -9.8      1.539      4.179
REMARK  Name = 44256850
REMARK  9 active torsions:
REMARK  status: ('A' for Active; 'I' for Inactive)
REMARK    1  A    between atoms: O_2  and  C_19
REMARK    2  A    between atoms: O_2  and  C_21
REMARK    3  A    between atoms: O_6  and  C_20
REMARK    4  A    between atoms: O_6  and  C_25
REMARK    5  A    between atoms: O_11  and  C_35
REMARK    6  A    between atoms: C_17  and  C_20
REMARK    7  A    between atoms: C_22  and  C_27
REMARK    8  A    between atoms: C_25  and  C_31
REMARK    9  A    between atoms: C_38  and  C_39
REMARK                            x       y       z     vdW  Elec       q    Type
REMARK                         _______ _______ _______ _____ _____    ______ ____
ROOT
ATOM      1  O   UNL     1     111.423 126.404 137.265  0.00  0.00    +0.000 OA
ATOM      2  O   UNL     1     111.745 124.321 137.832  0.00  0.00    +0.000 OA
ATOM      3  O   UNL     1     111.374 124.155 136.232  0.00  0.00    +0.000 OA
ATOM      4  O   UNL     1     111.036 125.489 135.322  0.00  0.00    +0.000 OA
ATOM      5  C   UNL     1     111.576 124.988 137.377  0.00  0.00    +0.000 C 
ATOM      6  C   UNL     1     111.390 124.905 136.577  0.00  0.00    +0.000 C 
ATOM      7  C   UNL     1     111.592 125.738 137.721  0.00  0.00    +0.000 C 
ATOM      8  C   UNL     1     111.221 125.572 136.122  0.00  0.00    +0.000 C 
ATOM      9  C   UNL     1     111.238 126.322 136.466  0.00  0.00    +0.000 C 
ENDROOT
BRANCH   9  10
ATOM     10  O   UNL     1     111.068 126.988 136.010  0.00  0.00    +0.000 OA
BRANCH  10  14
ATOM     11  O   UNL     1     111.849 129.025 135.931  0.00  0.00    +0.000 OA
ATOM     12  O   UNL     1     114.058 127.167 136.051  0.00  0.00    +0.000 OA
ATOM     13  O   UNL     1     114.580 130.038 135.929  0.00  0.00    +0.000 OA
ATOM     14  C   UNL     1     111.599 127.619 135.990  0.00  0.00    +0.000 A 
ATOM     15  C   UNL     1     111.318 128.394 135.951  0.00  0.00    +0.000 A 
ATOM     16  C   UNL     1     112.412 127.476 136.010  0.00  0.00    +0.000 A 
ATOM     17  C   UNL     1     112.943 128.107 135.990  0.00  0.00    +0.000 A 
ATOM     18  C   UNL     1     112.661 128.882 135.950  0.00  0.00    +0.000 A 
ATOM     19  C   UNL     1     113.787 127.945 136.011  0.00  0.00    +0.000 A 
ATOM     20  C   UNL     1     113.203 129.547 135.929  0.00  0.00    +0.000 A 
ATOM     21  C   UNL     1     114.344 128.598 135.991  0.00  0.00    +0.000 A 
ATOM     22  C   UNL     1     114.051 129.405 135.949  0.00  0.00    +0.000 A 
BRANCH  15  24
ATOM     23  O   UNL     1     108.069 128.966 135.871  0.00  0.00    +0.000 OA
ATOM     24  C   UNL     1     110.505 128.537 135.931  0.00  0.00    +0.000 A 
ATOM     25  C   UNL     1     110.109 128.762 136.619  0.00  0.00    +0.000 A 
ATOM     26  C   UNL     1     110.090 128.455 135.223  0.00  0.00    +0.000 A 
ATOM     27  C   UNL     1     109.298 128.905 136.599  0.00  0.00    +0.000 A 
ATOM     28  C   UNL     1     109.278 128.598 135.204  0.00  0.00    +0.000 A 
ATOM     29  C   UNL     1     108.882 128.823 135.892  0.00  0.00    +0.000 A 
BRANCH  27  30
ATOM     30  O   UNL     1     108.902 129.130 137.287  0.00  0.00    +0.000 OA
ATOM     31  C   UNL     1     109.303 129.542 137.878  0.00  0.00    +0.000 C 
ENDBRANCH  27  30
ENDBRANCH  15  24
ENDBRANCH  10  14
ENDBRANCH   9  10
BRANCH   7  32
ATOM     32  C   UNL     1     111.778 125.820 138.520  0.00  0.00    +0.000 C 
BRANCH  32  33
ATOM     33  O   UNL     1     111.574 126.511 138.923  0.00  0.00    +0.000 OA
BRANCH  33  35
ATOM     34  O   UNL     1     111.986 126.340 140.279  0.00  0.00    +0.000 OA
ATOM     35  C   UNL     1     112.020 126.759 139.570  0.00  0.00    +0.000 C 
BRANCH  35  36
ATOM     36  C   UNL     1     112.501 127.427 139.508  0.00  0.00    +0.000 C 
ATOM     37  C   UNL     1     112.254 128.146 139.826  0.00  0.00    +0.000 C 
BRANCH  37  40
ATOM     38  O   UNL     1     112.579 130.909 139.173  0.00  0.00    +0.000 OA
ATOM     39  O   UNL     1     114.176 130.816 139.578  0.00  0.00    +0.000 OA
ATOM     40  C   UNL     1     112.735 128.813 139.764  0.00  0.00    +0.000 A 
ATOM     41  C   UNL     1     112.417 129.527 139.500  0.00  0.00    +0.000 A 
ATOM     42  C   UNL     1     113.533 128.767 139.967  0.00  0.00    +0.000 A 
ATOM     43  C   UNL     1     112.897 130.195 139.437  0.00  0.00    +0.000 A 
ATOM     44  C   UNL     1     114.013 129.434 139.905  0.00  0.00    +0.000 A 
ATOM     45  C   UNL     1     113.695 130.148 139.640  0.00  0.00    +0.000 A 
ENDBRANCH  37  40
ENDBRANCH  35  36
ENDBRANCH  33  35
ENDBRANCH  32  33
ENDBRANCH   7  32
TORSDOF 9
ENDMDL
MODEL 3
REMARK VINA RESULT:      -9.7      1.234      4.860
REMARK  Name = 44256850
REMARK  9 active torsions:
REMARK  status: ('A' for Active; 'I' for Inactive)
REMARK    1  A    between atoms: O_2  and  C_19
REMARK    2  A    between atoms: O_2  and  C_21
REMARK    3  A    between atoms: O_6  and  C_20
REMARK    4  A    between atoms: O_6  and  C_25
REMARK    5  A    between atoms: O_11  and  C_35
REMARK    6  A    between atoms: C_17  and  C_20
REMARK    7  A    between atoms: C_22  and  C_27
REMARK    8  A    between atoms: C_25  and  C_31
REMARK    9  A    between atoms: C_38  and  C_39
REMARK                            x       y       z     vdW  Elec       q    Type
REMARK                         _______ _______ _______ _____ _____    ______ ____
ROOT
ATOM      1  O   UNL     1     110.239 128.219 136.252  0.00  0.00    +0.000 OA
ATOM      2  O   UNL     1     108.135 128.426 135.707  0.00  0.00    +0.000 OA
ATOM      3  O   UNL     1     108.439 129.916 136.348  0.00  0.00    +0.000 OA
ATOM      4  O   UNL     1     109.943 130.275 136.924  0.00  0.00    +0.000 OA
ATOM      5  C   UNL     1     108.887 128.605 135.995  0.00  0.00    +0.000 C 
ATOM      6  C   UNL     1     109.039 129.350 136.316  0.00  0.00    +0.000 C 
ATOM      7  C   UNL     1     109.487 128.039 135.963  0.00  0.00    +0.000 C 
ATOM      8  C   UNL     1     109.791 129.529 136.604  0.00  0.00    +0.000 C 
ATOM      9  C   UNL     1     110.391 128.964 136.572  0.00  0.00    +0.000 C 
ENDROOT
BRANCH   9  10
ATOM     10  O   UNL     1     111.143 129.144 136.860  0.00  0.00    +0.000 OA
BRANCH  10  14
ATOM     11  O   UNL     1     112.683 128.013 137.916  0.00  0.00    +0.000 OA
ATOM     12  O   UNL     1     110.123 127.515 139.158  0.00  0.00    +0.000 OA
ATOM     13  O   UNL     1     112.523 126.225 140.209  0.00  0.00    +0.000 OA
ATOM     14  C   UNL     1     111.506 128.642 137.405  0.00  0.00    +0.000 A 
ATOM     15  C   UNL     1     112.320 128.515 137.371  0.00  0.00    +0.000 A 
ATOM     16  C   UNL     1     111.054 128.267 137.986  0.00  0.00    +0.000 A 
ATOM     17  C   UNL     1     111.417 127.766 138.531  0.00  0.00    +0.000 A 
ATOM     18  C   UNL     1     112.232 127.639 138.496  0.00  0.00    +0.000 A 
ATOM     19  C   UNL     1     110.936 127.382 139.131  0.00  0.00    +0.000 A 
ATOM     20  C   UNL     1     112.621 127.119 139.058  0.00  0.00    +0.000 A 
ATOM     21  C   UNL     1     111.309 126.858 139.701  0.00  0.00    +0.000 A 
ATOM     22  C   UNL     1     112.157 126.726 139.665  0.00  0.00    +0.000 A 
BRANCH  15  24
ATOM     23  O   UNL     1     114.124 130.012 135.049  0.00  0.00    +0.000 OA
ATOM     24  C   UNL     1     112.771 128.889 136.790  0.00  0.00    +0.000 A 
ATOM     25  C   UNL     1     113.046 129.658 136.913  0.00  0.00    +0.000 A 
ATOM     26  C   UNL     1     112.947 128.495 136.087  0.00  0.00    +0.000 A 
ATOM     27  C   UNL     1     113.497 130.031 136.332  0.00  0.00    +0.000 A 
ATOM     28  C   UNL     1     113.398 128.870 135.507  0.00  0.00    +0.000 A 
ATOM     29  C   UNL     1     113.673 129.638 135.630  0.00  0.00    +0.000 A 
BRANCH  27  30
ATOM     30  O   UNL     1     113.772 130.799 136.455  0.00  0.00    +0.000 OA
ATOM     31  C   UNL     1     113.998 131.041 137.211  0.00  0.00    +0.000 C 
ENDBRANCH  27  30
ENDBRANCH  15  24
ENDBRANCH  10  14
ENDBRANCH   9  10
BRANCH   7  32
ATOM     32  C   UNL     1     109.335 127.295 135.643  0.00  0.00    +0.000 C 
BRANCH  32  33
ATOM     33  O   UNL     1     109.946 126.862 135.296  0.00  0.00    +0.000 OA
BRANCH  33  35
ATOM     34  O   UNL     1     109.389 125.633 134.827  0.00  0.00    +0.000 OA
ATOM     35  C   UNL     1     109.925 126.038 135.306  0.00  0.00    +0.000 C 
BRANCH  35  36
ATOM     36  C   UNL     1     110.439 125.617 135.796  0.00  0.00    +0.000 C 
ATOM     37  C   UNL     1     111.146 125.320 135.493  0.00  0.00    +0.000 C 
BRANCH  37  40
ATOM     38  O   UNL     1     113.794 124.802 136.436  0.00  0.00    +0.000 OA
ATOM     39  O   UNL     1     113.206 123.639 137.449  0.00  0.00    +0.000 OA
ATOM     40  C   UNL     1     111.661 124.900 135.983  0.00  0.00    +0.000 A 
ATOM     41  C   UNL     1     112.470 125.061 135.965  0.00  0.00    +0.000 A 
ATOM     42  C   UNL     1     111.367 124.319 136.489  0.00  0.00    +0.000 A 
ATOM     43  C   UNL     1     112.985 124.641 136.454  0.00  0.00    +0.000 A 
ATOM     44  C   UNL     1     111.881 123.899 136.977  0.00  0.00    +0.000 A 
ATOM     45  C   UNL     1     112.690 124.060 136.960  0.00  0.00    +0.000 A 
ENDBRANCH  37  40
ENDBRANCH  35  36
ENDBRANCH  33  35
ENDBRANCH  32  33
ENDBRANCH   7  32
TORSDOF 9
ENDMDL
MODEL 4
REMARK VINA RESULT:      -9.4      1.678      5.061
REMARK  Name = 44256850
REMARK  9 active torsions:
REMARK  status: ('A' for Active; 'I' for Inactive)
REMARK    1  A    between atoms: O_2  and  C_19
REMARK    2  A    between atoms: O_2  and  C_21
REMARK    3  A    between atoms: O_6  and  C_20
REMARK    4  A    between atoms: O_6  and  C_25
REMARK    5  A    between atoms: O_11  and  C_35
REMARK    6  A    between atoms: C_17  and  C_20
REMARK    7  A    between atoms: C_22  and  C_27
REMARK    8  A    between atoms: C_25  and  C_31
REMARK    9  A    between atoms: C_38  and  C_39
REMARK                            x       y       z     vdW  Elec       q    Type
REMARK                         _______ _______ _______ _____ _____    ______ ____
ROOT
ATOM      1  O   UNL     1     111.538 129.236 138.563  0.00  0.00    +0.000 OA
ATOM      2  O   UNL     1     111.856 129.732 140.665  0.00  0.00    +0.000 OA
ATOM      3  O   UNL     1     111.239 131.154 140.098  0.00  0.00    +0.000 OA
ATOM      4  O   UNL     1     110.821 131.296 138.509  0.00  0.00    +0.000 OA
ATOM      5  C   UNL     1     111.648 129.803 139.870  0.00  0.00    +0.000 C 
ATOM      6  C   UNL     1     111.339 130.514 139.587  0.00  0.00    +0.000 C 
ATOM      7  C   UNL     1     111.747 129.163 139.358  0.00  0.00    +0.000 C 
ATOM      8  C   UNL     1     111.130 130.585 138.792  0.00  0.00    +0.000 C 
ATOM      9  C   UNL     1     111.230 129.946 138.280  0.00  0.00    +0.000 C 
ENDROOT
BRANCH   9  10
ATOM     10  O   UNL     1     111.020 130.018 137.485  0.00  0.00    +0.000 OA
BRANCH  10  14
ATOM     11  O   UNL     1     111.884 129.312 135.608  0.00  0.00    +0.000 OA
ATOM     12  O   UNL     1     113.977 130.439 137.250  0.00  0.00    +0.000 OA
ATOM     13  O   UNL     1     114.623 129.348 134.619  0.00  0.00    +0.000 OA
ATOM     14  C   UNL     1     111.573 129.847 136.897  0.00  0.00    +0.000 A 
ATOM     15  C   UNL     1     111.332 129.483 136.197  0.00  0.00    +0.000 A 
ATOM     16  C   UNL     1     112.368 130.040 137.008  0.00  0.00    +0.000 A 
ATOM     17  C   UNL     1     112.920 129.869 136.419  0.00  0.00    +0.000 A 
ATOM     18  C   UNL     1     112.678 129.505 135.720  0.00  0.00    +0.000 A 
ATOM     19  C   UNL     1     113.745 130.075 136.547  0.00  0.00    +0.000 A 
ATOM     20  C   UNL     1     113.243 129.322 135.099  0.00  0.00    +0.000 A 
ATOM     21  C   UNL     1     114.324 129.900 135.938  0.00  0.00    +0.000 A 
ATOM     22  C   UNL     1     114.073 129.520 135.209  0.00  0.00    +0.000 A 
BRANCH  15  24
ATOM     23  O   UNL     1     108.154 128.710 135.753  0.00  0.00    +0.000 OA
ATOM     24  C   UNL     1     110.536 129.289 136.086  0.00  0.00    +0.000 A 
ATOM     25  C   UNL     1     110.013 129.853 135.787  0.00  0.00    +0.000 A 
ATOM     26  C   UNL     1     110.267 128.533 136.273  0.00  0.00    +0.000 A 
ATOM     27  C   UNL     1     109.219 129.659 135.676  0.00  0.00    +0.000 A 
ATOM     28  C   UNL     1     109.472 128.340 136.162  0.00  0.00    +0.000 A 
ATOM     29  C   UNL     1     108.949 128.903 135.864  0.00  0.00    +0.000 A 
BRANCH  27  30
ATOM     30  O   UNL     1     108.695 130.222 135.378  0.00  0.00    +0.000 OA
ATOM     31  C   UNL     1     108.975 130.836 134.903  0.00  0.00    +0.000 C 
ENDBRANCH  27  30
ENDBRANCH  15  24
ENDBRANCH  10  14
ENDBRANCH   9  10
BRANCH   7  32
ATOM     32  C   UNL     1     112.056 128.453 139.641  0.00  0.00    +0.000 C 
BRANCH  32  33
ATOM     33  O   UNL     1     111.959 127.758 139.207  0.00  0.00    +0.000 OA
BRANCH  33  35
ATOM     34  O   UNL     1     112.396 126.701 140.062  0.00  0.00    +0.000 OA
ATOM     35  C   UNL     1     112.450 127.111 139.348  0.00  0.00    +0.000 C 
BRANCH  35  36
ATOM     36  C   UNL     1     112.994 126.873 138.776  0.00  0.00    +0.000 C 
ATOM     37  C   UNL     1     112.867 126.181 138.347  0.00  0.00    +0.000 C 
BRANCH  37  40
ATOM     38  O   UNL     1     115.118 124.595 137.583  0.00  0.00    +0.000 OA
ATOM     39  O   UNL     1     115.047 125.227 136.060  0.00  0.00    +0.000 OA
ATOM     40  C   UNL     1     113.411 125.943 137.774  0.00  0.00    +0.000 A 
ATOM     41  C   UNL     1     113.992 125.389 137.964  0.00  0.00    +0.000 A 
ATOM     42  C   UNL     1     113.376 126.258 137.014  0.00  0.00    +0.000 A 
ATOM     43  C   UNL     1     114.538 125.150 137.393  0.00  0.00    +0.000 A 
ATOM     44  C   UNL     1     113.920 126.020 136.442  0.00  0.00    +0.000 A 
ATOM     45  C   UNL     1     114.501 125.466 136.632  0.00  0.00    +0.000 A 
ENDBRANCH  37  40
ENDBRANCH  35  36
ENDBRANCH  33  35
ENDBRANCH  32  33
ENDBRANCH   7  32
TORSDOF 9
ENDMDL
MODEL 5
REMARK VINA RESULT:      -9.3      1.315      4.019
REMARK  Name = 44256850
REMARK  9 active torsions:
REMARK  status: ('A' for Active; 'I' for Inactive)
REMARK    1  A    between atoms: O_2  and  C_19
REMARK    2  A    between atoms: O_2  and  C_21
REMARK    3  A    between atoms: O_6  and  C_20
REMARK    4  A    between atoms: O_6  and  C_25
REMARK    5  A    between atoms: O_11  and  C_35
REMARK    6  A    between atoms: C_17  and  C_20
REMARK    7  A    between atoms: C_22  and  C_27
REMARK    8  A    between atoms: C_25  and  C_31
REMARK    9  A    between atoms: C_38  and  C_39
REMARK                            x       y       z     vdW  Elec       q    Type
REMARK                         _______ _______ _______ _____ _____    ______ ____
ROOT
ATOM      1  O   UNL     1     110.053 128.301 136.712  0.00  0.00    +0.000 OA
ATOM      2  O   UNL     1     108.142 128.495 135.675  0.00  0.00    +0.000 OA
ATOM      3  O   UNL     1     108.334 130.024 136.265  0.00  0.00    +0.000 OA
ATOM      4  O   UNL     1     109.672 130.404 137.153  0.00  0.00    +0.000 OA
ATOM      5  C   UNL     1     108.811 128.685 136.118  0.00  0.00    +0.000 C 
ATOM      6  C   UNL     1     108.907 129.450 136.414  0.00  0.00    +0.000 C 
ATOM      7  C   UNL     1     109.384 128.110 136.267  0.00  0.00    +0.000 C 
ATOM      8  C   UNL     1     109.576 129.639 136.858  0.00  0.00    +0.000 C 
ATOM      9  C   UNL     1     110.149 129.065 137.007  0.00  0.00    +0.000 C 
ENDROOT
BRANCH   9  10
ATOM     10  O   UNL     1     110.818 129.255 137.451  0.00  0.00    +0.000 OA
BRANCH  10  14
ATOM     11  O   UNL     1     112.932 128.730 137.312  0.00  0.00    +0.000 OA
ATOM     12  O   UNL     1     111.989 129.556 134.710  0.00  0.00    +0.000 OA
ATOM     13  O   UNL     1     114.773 128.747 135.056  0.00  0.00    +0.000 OA
ATOM     14  C   UNL     1     111.570 129.127 137.138  0.00  0.00    +0.000 A 
ATOM     15  C   UNL     1     112.180 128.859 137.625  0.00  0.00    +0.000 A 
ATOM     16  C   UNL     1     111.714 129.267 136.337  0.00  0.00    +0.000 A 
ATOM     17  C   UNL     1     112.467 129.139 136.024  0.00  0.00    +0.000 A 
ATOM     18  C   UNL     1     113.076 128.870 136.513  0.00  0.00    +0.000 A 
ATOM     19  C   UNL     1     112.604 129.288 135.189  0.00  0.00    +0.000 A 
ATOM     20  C   UNL     1     113.863 128.733 136.199  0.00  0.00    +0.000 A 
ATOM     21  C   UNL     1     113.385 129.156 134.858  0.00  0.00    +0.000 A 
ATOM     22  C   UNL     1     114.020 128.877 135.366  0.00  0.00    +0.000 A 
BRANCH  15  24
ATOM     23  O   UNL     1     111.605 128.299 140.826  0.00  0.00    +0.000 OA
ATOM     24  C   UNL     1     112.036 128.718 138.426  0.00  0.00    +0.000 A 
ATOM     25  C   UNL     1     111.956 127.945 138.702  0.00  0.00    +0.000 A 
ATOM     26  C   UNL     1     111.972 129.352 138.950  0.00  0.00    +0.000 A 
ATOM     27  C   UNL     1     111.812 127.806 139.501  0.00  0.00    +0.000 A 
ATOM     28  C   UNL     1     111.828 129.212 139.750  0.00  0.00    +0.000 A 
ATOM     29  C   UNL     1     111.749 128.439 140.026  0.00  0.00    +0.000 A 
BRANCH  27  30
ATOM     30  O   UNL     1     111.733 127.032 139.777  0.00  0.00    +0.000 OA
ATOM     31  C   UNL     1     111.162 126.534 139.450  0.00  0.00    +0.000 C 
ENDBRANCH  27  30
ENDBRANCH  15  24
ENDBRANCH  10  14
ENDBRANCH   9  10
BRANCH   7  32
ATOM     32  C   UNL     1     109.288 127.346 135.973  0.00  0.00    +0.000 C 
BRANCH  32  33
ATOM     33  O   UNL     1     109.911 126.974 135.579  0.00  0.00    +0.000 OA
BRANCH  33  35
ATOM     34  O   UNL     1     109.408 125.733 135.082  0.00  0.00    +0.000 OA
ATOM     35  C   UNL     1     109.946 126.151 135.547  0.00  0.00    +0.000 C 
BRANCH  35  36
ATOM     36  C   UNL     1     110.518 125.744 135.981  0.00  0.00    +0.000 C 
ATOM     37  C   UNL     1     111.175 125.424 135.600  0.00  0.00    +0.000 C 
BRANCH  37  40
ATOM     38  O   UNL     1     111.991 123.105 137.056  0.00  0.00    +0.000 OA
ATOM     39  O   UNL     1     113.463 123.797 137.334  0.00  0.00    +0.000 OA
ATOM     40  C   UNL     1     111.748 125.018 136.033  0.00  0.00    +0.000 A 
ATOM     41  C   UNL     1     111.584 124.265 136.328  0.00  0.00    +0.000 A 
ATOM     42  C   UNL     1     112.483 125.364 136.173  0.00  0.00    +0.000 A 
ATOM     43  C   UNL     1     112.155 123.858 136.762  0.00  0.00    +0.000 A 
ATOM     44  C   UNL     1     113.055 124.957 136.606  0.00  0.00    +0.000 A 
ATOM     45  C   UNL     1     112.890 124.204 136.900  0.00  0.00    +0.000 A 
ENDBRANCH  37  40
ENDBRANCH  35  36
ENDBRANCH  33  35
ENDBRANCH  32  33
ENDBRANCH   7  32
TORSDOF 9
ENDMDL
MODEL 6
REMARK VINA RESULT:      -9.2      1.871      4.312
REMARK  Name = 44256850
REMARK  9 active torsions:
REMARK  status: ('A' for Active; 'I' for Inactive)
REMARK    1  A    between atoms: O_2  and  C_19
REMARK    2  A    between atoms: O_2  and  C_21
REMARK    3  A    between atoms: O_6  and  C_20
REMARK    4  A    between atoms: O_6  and  C_25
REMARK    5  A    between atoms: O_11  and  C_35
REMARK    6  A    between atoms: C_17  and  C_20
REMARK    7  A    between atoms: C_22  and  C_27
REMARK    8  A    between atoms: C_25  and  C_31
REMARK    9  A    between atoms: C_38  and  C_39
REMARK                            x       y       z     vdW  Elec       q    Type
REMARK                         _______ _______ _______ _____ _____    ______ ____
ROOT
ATOM      1  O   UNL     1     110.256 130.435 137.002  0.00  0.00    +0.000 OA
ATOM      2  O   UNL     1     109.178 131.825 135.710  0.00  0.00    +0.000 OA
ATOM      3  O   UNL     1     110.272 132.839 136.415  0.00  0.00    +0.000 OA
ATOM      4  O   UNL     1     111.355 132.251 137.512  0.00  0.00    +0.000 OA
ATOM      5  C   UNL     1     109.719 131.530 136.258  0.00  0.00    +0.000 C 
ATOM      6  C   UNL     1     110.267 132.038 136.611  0.00  0.00    +0.000 C 
ATOM      7  C   UNL     1     109.714 130.729 136.454  0.00  0.00    +0.000 C 
ATOM      8  C   UNL     1     110.808 131.743 137.159  0.00  0.00    +0.000 C 
ATOM      9  C   UNL     1     110.803 130.942 137.355  0.00  0.00    +0.000 C 
ENDROOT
BRANCH   9  10
ATOM     10  O   UNL     1     111.345 130.648 137.903  0.00  0.00    +0.000 OA
BRANCH  10  14
ATOM     11  O   UNL     1     112.388 128.743 138.118  0.00  0.00    +0.000 OA
ATOM     12  O   UNL     1     112.709 129.699 135.411  0.00  0.00    +0.000 OA
ATOM     13  O   UNL     1     113.927 127.168 136.212  0.00  0.00    +0.000 OA
ATOM     14  C   UNL     1     111.794 129.980 137.722  0.00  0.00    +0.000 A 
ATOM     15  C   UNL     1     111.939 129.410 138.300  0.00  0.00    +0.000 A 
ATOM     16  C   UNL     1     112.099 129.882 136.960  0.00  0.00    +0.000 A 
ATOM     17  C   UNL     1     112.548 129.214 136.779  0.00  0.00    +0.000 A 
ATOM     18  C   UNL     1     112.692 128.645 137.358  0.00  0.00    +0.000 A 
ATOM     19  C   UNL     1     112.859 129.124 135.983  0.00  0.00    +0.000 A 
ATOM     20  C   UNL     1     113.158 127.945 137.181  0.00  0.00    +0.000 A 
ATOM     21  C   UNL     1     113.328 128.430 135.788  0.00  0.00    +0.000 A 
ATOM     22  C   UNL     1     113.478 127.837 136.391  0.00  0.00    +0.000 A 
BRANCH  15  24
ATOM     23  O   UNL     1     110.722 129.804 141.342  0.00  0.00    +0.000 OA
ATOM     24  C   UNL     1     111.634 129.509 139.061  0.00  0.00    +0.000 A 
ATOM     25  C   UNL     1     110.930 129.137 139.275  0.00  0.00    +0.000 A 
ATOM     26  C   UNL     1     112.035 129.979 139.607  0.00  0.00    +0.000 A 
ATOM     27  C   UNL     1     110.626 129.235 140.035  0.00  0.00    +0.000 A 
ATOM     28  C   UNL     1     111.730 130.077 140.367  0.00  0.00    +0.000 A 
ATOM     29  C   UNL     1     111.026 129.705 140.581  0.00  0.00    +0.000 A 
BRANCH  27  30
ATOM     30  O   UNL     1     109.921 128.863 140.248  0.00  0.00    +0.000 OA
ATOM     31  C   UNL     1     109.717 128.140 139.908  0.00  0.00    +0.000 C 
ENDBRANCH  27  30
ENDBRANCH  15  24
ENDBRANCH  10  14
ENDBRANCH   9  10
BRANCH   7  32
ATOM     32  C   UNL     1     109.168 130.222 136.101  0.00  0.00    +0.000 C 
BRANCH  32  33
ATOM     33  O   UNL     1     108.996 129.493 136.449  0.00  0.00    +0.000 OA
BRANCH  33  35
ATOM     34  O   UNL     1     107.948 128.890 135.688  0.00  0.00    +0.000 OA
ATOM     35  C   UNL     1     108.717 128.871 135.986  0.00  0.00    +0.000 C 
BRANCH  35  36
ATOM     36  C   UNL     1     109.208 128.228 135.820  0.00  0.00    +0.000 C 
ATOM     37  C   UNL     1     109.052 127.492 136.157  0.00  0.00    +0.000 C 
BRANCH  37  40
ATOM     38  O   UNL     1     110.741 125.371 137.060  0.00  0.00    +0.000 OA
ATOM     39  O   UNL     1     111.013 124.921 135.495  0.00  0.00    +0.000 OA
ATOM     40  C   UNL     1     109.543 126.849 135.991  0.00  0.00    +0.000 A 
ATOM     41  C   UNL     1     109.897 126.431 136.608  0.00  0.00    +0.000 A 
ATOM     42  C   UNL     1     109.678 126.625 135.210  0.00  0.00    +0.000 A 
ATOM     43  C   UNL     1     110.387 125.789 136.443  0.00  0.00    +0.000 A 
ATOM     44  C   UNL     1     110.168 125.983 135.044  0.00  0.00    +0.000 A 
ATOM     45  C   UNL     1     110.522 125.565 135.661  0.00  0.00    +0.000 A 
ENDBRANCH  37  40
ENDBRANCH  35  36
ENDBRANCH  33  35
ENDBRANCH  32  33
ENDBRANCH   7  32
TORSDOF 9
ENDMDL
MODEL 7
REMARK VINA RESULT:      -9.2      1.524      4.074
REMARK  Name = 44256850
REMARK  9 active torsions:
REMARK  status: ('A' for Active; 'I' for Inactive)
REMARK    1  A    between atoms: O_2  and  C_19
REMARK    2  A    between atoms: O_2  and  C_21
REMARK    3  A    between atoms: O_6  and  C_20
REMARK    4  A    between atoms: O_6  and  C_25
REMARK    5  A    between atoms: O_11  and  C_35
REMARK    6  A    between atoms: C_17  and  C_20
REMARK    7  A    between atoms: C_22  and  C_27
REMARK    8  A    between atoms: C_25  and  C_31
REMARK    9  A    between atoms: C_38  and  C_39
REMARK                            x       y       z     vdW  Elec       q    Type
REMARK                         _______ _______ _______ _____ _____    ______ ____
ROOT
ATOM      1  O   UNL     1     111.103 127.226 138.081  0.00  0.00    +0.000 OA
ATOM      2  O   UNL     1     109.030 127.201 137.398  0.00  0.00    +0.000 OA
ATOM      3  O   UNL     1     108.963 126.114 138.637  0.00  0.00    +0.000 OA
ATOM      4  O   UNL     1     110.323 125.767 139.505  0.00  0.00    +0.000 OA
ATOM      5  C   UNL     1     109.710 127.029 137.832  0.00  0.00    +0.000 C 
ATOM      6  C   UNL     1     109.676 126.484 138.452  0.00  0.00    +0.000 C 
ATOM      7  C   UNL     1     110.423 127.399 137.646  0.00  0.00    +0.000 C 
ATOM      8  C   UNL     1     110.356 126.312 138.885  0.00  0.00    +0.000 C 
ATOM      9  C   UNL     1     111.070 126.682 138.700  0.00  0.00    +0.000 C 
ENDROOT
BRANCH   9  10
ATOM     10  O   UNL     1     111.749 126.509 139.134  0.00  0.00    +0.000 OA
BRANCH  10  14
ATOM     11  O   UNL     1     113.850 126.222 138.613  0.00  0.00    +0.000 OA
ATOM     12  O   UNL     1     112.207 124.659 136.823  0.00  0.00    +0.000 OA
ATOM     13  O   UNL     1     115.113 124.617 136.537  0.00  0.00    +0.000 OA
ATOM     14  C   UNL     1     112.427 126.239 138.749  0.00  0.00    +0.000 A 
ATOM     15  C   UNL     1     113.172 126.491 138.999  0.00  0.00    +0.000 A 
ATOM     16  C   UNL     1     112.361 125.718 138.113  0.00  0.00    +0.000 A 
ATOM     17  C   UNL     1     113.038 125.448 137.727  0.00  0.00    +0.000 A 
ATOM     18  C   UNL     1     113.783 125.701 137.978  0.00  0.00    +0.000 A 
ATOM     19  C   UNL     1     112.956 124.905 137.066  0.00  0.00    +0.000 A 
ATOM     20  C   UNL     1     114.496 125.428 137.584  0.00  0.00    +0.000 A 
ATOM     21  C   UNL     1     113.658 124.622 136.661  0.00  0.00    +0.000 A 
ATOM     22  C   UNL     1     114.434 124.884 136.921  0.00  0.00    +0.000 A 
BRANCH  15  24
ATOM     23  O   UNL     1     113.438 128.577 141.542  0.00  0.00    +0.000 OA
ATOM     24  C   UNL     1     113.238 127.013 139.635  0.00  0.00    +0.000 A 
ATOM     25  C   UNL     1     113.422 127.806 139.501  0.00  0.00    +0.000 A 
ATOM     26  C   UNL     1     113.121 126.741 140.405  0.00  0.00    +0.000 A 
ATOM     27  C   UNL     1     113.489 128.327 140.136  0.00  0.00    +0.000 A 
ATOM     28  C   UNL     1     113.188 127.263 141.040  0.00  0.00    +0.000 A 
ATOM     29  C   UNL     1     113.371 128.056 140.906  0.00  0.00    +0.000 A 
BRANCH  27  30
ATOM     30  O   UNL     1     113.672 129.120 140.002  0.00  0.00    +0.000 OA
ATOM     31  C   UNL     1     113.210 129.570 139.488  0.00  0.00    +0.000 C 
ENDBRANCH  27  30
ENDBRANCH  15  24
ENDBRANCH  10  14
ENDBRANCH   9  10
BRANCH   7  32
ATOM     32  C   UNL     1     110.457 127.942 137.027  0.00  0.00    +0.000 C 
BRANCH  32  33
ATOM     33  O   UNL     1     111.095 128.461 136.966  0.00  0.00    +0.000 OA
BRANCH  33  35
ATOM     34  O   UNL     1     110.655 129.319 135.913  0.00  0.00    +0.000 OA
ATOM     35  C   UNL     1     111.243 128.853 136.256  0.00  0.00    +0.000 C 
BRANCH  35  36
ATOM     36  C   UNL     1     111.978 128.780 135.888  0.00  0.00    +0.000 C 
ATOM     37  C   UNL     1     112.594 129.288 136.092  0.00  0.00    +0.000 C 
BRANCH  37  40
ATOM     38  O   UNL     1     114.747 130.448 134.613  0.00  0.00    +0.000 OA
ATOM     39  O   UNL     1     115.534 128.997 134.621  0.00  0.00    +0.000 OA
ATOM     40  C   UNL     1     113.329 129.215 135.725  0.00  0.00    +0.000 A 
ATOM     41  C   UNL     1     113.671 129.867 135.353  0.00  0.00    +0.000 A 
ATOM     42  C   UNL     1     113.723 128.490 135.729  0.00  0.00    +0.000 A 
ATOM     43  C   UNL     1     114.405 129.795 134.985  0.00  0.00    +0.000 A 
ATOM     44  C   UNL     1     114.457 128.417 135.361  0.00  0.00    +0.000 A 
ATOM     45  C   UNL     1     114.798 129.070 134.989  0.00  0.00    +0.000 A 
ENDBRANCH  37  40
ENDBRANCH  35  36
ENDBRANCH  33  35
ENDBRANCH  32  33
ENDBRANCH   7  32
TORSDOF 9
ENDMDL
MODEL 8
REMARK VINA RESULT:      -9.2      1.748      4.309
REMARK  Name = 44256850
REMARK  9 active torsions:
REMARK  status: ('A' for Active; 'I' for Inactive)
REMARK    1  A    between atoms: O_2  and  C_19
REMARK    2  A    between atoms: O_2  and  C_21
REMARK    3  A    between atoms: O_6  and  C_20
REMARK    4  A    between atoms: O_6  and  C_25
REMARK    5  A    between atoms: O_11  and  C_35
REMARK    6  A    between atoms: C_17  and  C_20
REMARK    7  A    between atoms: C_22  and  C_27
REMARK    8  A    between atoms: C_25  and  C_31
REMARK    9  A    between atoms: C_38  and  C_39
REMARK                            x       y       z     vdW  Elec       q    Type
REMARK                         _______ _______ _______ _____ _____    ______ ____
ROOT
ATOM      1  O   UNL     1     113.769 129.206 136.646  0.00  0.00    +0.000 OA
ATOM      2  O   UNL     1     114.893 131.024 136.205  0.00  0.00    +0.000 OA
ATOM      3  O   UNL     1     115.277 130.095 134.896  0.00  0.00    +0.000 OA
ATOM      4  O   UNL     1     114.655 128.574 134.754  0.00  0.00    +0.000 OA
ATOM      5  C   UNL     1     114.582 130.264 136.134  0.00  0.00    +0.000 C 
ATOM      6  C   UNL     1     114.774 129.799 135.479  0.00  0.00    +0.000 C 
ATOM      7  C   UNL     1     114.079 129.967 136.717  0.00  0.00    +0.000 C 
ATOM      8  C   UNL     1     114.463 129.038 135.409  0.00  0.00    +0.000 C 
ATOM      9  C   UNL     1     113.960 128.742 135.992  0.00  0.00    +0.000 C 
ENDROOT
BRANCH   9  10
ATOM     10  O   UNL     1     113.649 127.981 135.920  0.00  0.00    +0.000 OA
BRANCH  10  14
ATOM     11  O   UNL     1     111.712 127.094 136.398  0.00  0.00    +0.000 OA
ATOM     12  O   UNL     1     111.298 129.497 134.848  0.00  0.00    +0.000 OA
ATOM     13  O   UNL     1     109.001 127.932 135.743  0.00  0.00    +0.000 OA
ATOM     14  C   UNL     1     112.834 127.864 135.958  0.00  0.00    +0.000 A 
ATOM     15  C   UNL     1     112.528 127.212 136.360  0.00  0.00    +0.000 A 
ATOM     16  C   UNL     1     112.322 128.400 135.594  0.00  0.00    +0.000 A 
ATOM     17  C   UNL     1     111.506 128.283 135.632  0.00  0.00    +0.000 A 
ATOM     18  C   UNL     1     111.202 127.630 136.034  0.00  0.00    +0.000 A 
ATOM     19  C   UNL     1     110.985 128.848 135.248  0.00  0.00    +0.000 A 
ATOM     20  C   UNL     1     110.354 127.497 136.081  0.00  0.00    +0.000 A 
ATOM     21  C   UNL     1     110.134 128.731 135.284  0.00  0.00    +0.000 A 
ATOM     22  C   UNL     1     109.816 128.051 135.703  0.00  0.00    +0.000 A 
BRANCH  15  24
ATOM     23  O   UNL     1     114.573 125.069 137.816  0.00  0.00    +0.000 OA
ATOM     24  C   UNL     1     113.040 126.676 136.724  0.00  0.00    +0.000 A 
ATOM     25  C   UNL     1     113.172 126.719 137.538  0.00  0.00    +0.000 A 
ATOM     26  C   UNL     1     113.418 126.096 136.275  0.00  0.00    +0.000 A 
ATOM     27  C   UNL     1     113.683 126.184 137.901  0.00  0.00    +0.000 A 
ATOM     28  C   UNL     1     113.929 125.561 136.639  0.00  0.00    +0.000 A 
ATOM     29  C   UNL     1     114.061 125.605 137.453  0.00  0.00    +0.000 A 
BRANCH  27  30
ATOM     30  O   UNL     1     113.816 126.228 138.714  0.00  0.00    +0.000 OA
ATOM     31  C   UNL     1     113.248 126.567 139.208  0.00  0.00    +0.000 C 
ENDBRANCH  27  30
ENDBRANCH  15  24
ENDBRANCH  10  14
ENDBRANCH   9  10
BRANCH   7  32
ATOM     32  C   UNL     1     113.888 130.432 137.371  0.00  0.00    +0.000 C 
BRANCH  32  33
ATOM     33  O   UNL     1     113.584 130.080 138.053  0.00  0.00    +0.000 OA
BRANCH  33  35
ATOM     34  O   UNL     1     113.451 130.986 139.149  0.00  0.00    +0.000 OA
ATOM     35  C   UNL     1     113.107 130.516 138.565  0.00  0.00    +0.000 C 
BRANCH  35  36
ATOM     36  C   UNL     1     112.286 130.484 138.493  0.00  0.00    +0.000 C 
ATOM     37  C   UNL     1     111.838 130.073 139.049  0.00  0.00    +0.000 C 
BRANCH  37  40
ATOM     38  O   UNL     1     109.379 128.655 139.384  0.00  0.00    +0.000 OA
ATOM     39  O   UNL     1     108.553 129.941 138.762  0.00  0.00    +0.000 OA
ATOM     40  C   UNL     1     111.017 130.040 138.977  0.00  0.00    +0.000 A 
ATOM     41  C   UNL     1     110.608 129.364 139.216  0.00  0.00    +0.000 A 
ATOM     42  C   UNL     1     110.604 130.683 138.667  0.00  0.00    +0.000 A 
ATOM     43  C   UNL     1     109.787 129.331 139.145  0.00  0.00    +0.000 A 
ATOM     44  C   UNL     1     109.783 130.650 138.595  0.00  0.00    +0.000 A 
ATOM     45  C   UNL     1     109.375 129.974 138.834  0.00  0.00    +0.000 A 
ENDBRANCH  37  40
ENDBRANCH  35  36
ENDBRANCH  33  35
ENDBRANCH  32  33
ENDBRANCH   7  32
TORSDOF 9
ENDMDL
MODEL 9
REMARK VINA RESULT:      -9.2      0.983      3.047
REMARK  Name = 44256850
REMARK  9 active torsions:
REMARK  status: ('A' for Active; 'I' for Inactive)
REMARK    1  A    between atoms: O_2  and  C_19
REMARK    2  A    between atoms: O_2  and  C_21
REMARK    3  A    between atoms: O_6  and  C_20
REMARK    4  A    between atoms: O_6  and  C_25
REMARK    5  A    between atoms: O_11  and  C_35
REMARK    6  A    between atoms: C_17  and  C_20
REMARK    7  A    between atoms: C_22  and  C_27
REMARK    8  A    between atoms: C_25  and  C_31
REMARK    9  A    between atoms: C_38  and  C_39
REMARK                            x       y       z     vdW  Elec       q    Type
REMARK                         _______ _______ _______ _____ _____    ______ ____
ROOT
ATOM      1  O   UNL     1     111.945 126.570 139.291  0.00  0.00    +0.000 OA
ATOM      2  O   UNL     1     111.100 126.871 141.281  0.00  0.00    +0.000 OA
ATOM      3  O   UNL     1     112.713 126.984 141.607  0.00  0.00    +0.000 OA
ATOM      4  O   UNL     1     113.815 126.820 140.389  0.00  0.00    +0.000 OA
ATOM      5  C   UNL     1     111.650 126.789 140.672  0.00  0.00    +0.000 C 
ATOM      6  C   UNL     1     112.457 126.846 140.835  0.00  0.00    +0.000 C 
ATOM      7  C   UNL     1     111.394 126.651 139.900  0.00  0.00    +0.000 C 
ATOM      8  C   UNL     1     113.007 126.764 140.226  0.00  0.00    +0.000 C 
ATOM      9  C   UNL     1     112.751 126.626 139.454  0.00  0.00    +0.000 C 
ENDROOT
BRANCH   9  10
ATOM     10  O   UNL     1     113.302 126.544 138.845  0.00  0.00    +0.000 OA
BRANCH  10  14
ATOM     11  O   UNL     1     113.316 127.152 136.748  0.00  0.00    +0.000 OA
ATOM     12  O   UNL     1     112.648 129.432 138.392  0.00  0.00    +0.000 OA
ATOM     13  O   UNL     1     112.797 129.726 135.490  0.00  0.00    +0.000 OA
ATOM     14  C   UNL     1     113.242 127.013 138.169  0.00  0.00    +0.000 A 
ATOM     15  C   UNL     1     113.376 126.683 137.425  0.00  0.00    +0.000 A 
ATOM     16  C   UNL     1     113.046 127.812 138.236  0.00  0.00    +0.000 A 
ATOM     17  C   UNL     1     112.985 128.280 137.560  0.00  0.00    +0.000 A 
ATOM     18  C   UNL     1     113.120 127.950 136.816  0.00  0.00    +0.000 A 
ATOM     19  C   UNL     1     112.781 129.111 137.644  0.00  0.00    +0.000 A 
ATOM     20  C   UNL     1     113.060 128.427 136.105  0.00  0.00    +0.000 A 
ATOM     21  C   UNL     1     112.717 129.604 136.943  0.00  0.00    +0.000 A 
ATOM     22  C   UNL     1     112.857 129.260 136.168  0.00  0.00    +0.000 A 
BRANCH  15  24
ATOM     23  O   UNL     1     114.159 123.489 137.155  0.00  0.00    +0.000 OA
ATOM     24  C   UNL     1     113.572 125.884 137.357  0.00  0.00    +0.000 A 
ATOM     25  C   UNL     1     112.985 125.328 137.191  0.00  0.00    +0.000 A 
ATOM     26  C   UNL     1     114.354 125.642 137.456  0.00  0.00    +0.000 A 
ATOM     27  C   UNL     1     113.181 124.530 137.124  0.00  0.00    +0.000 A 
ATOM     28  C   UNL     1     114.549 124.843 137.388  0.00  0.00    +0.000 A 
ATOM     29  C   UNL     1     113.963 124.287 137.222  0.00  0.00    +0.000 A 
BRANCH  27  30
ATOM     30  O   UNL     1     112.594 123.974 136.958  0.00  0.00    +0.000 OA
ATOM     31  C   UNL     1     112.022 124.136 136.387  0.00  0.00    +0.000 C 
ENDBRANCH  27  30
ENDBRANCH  15  24
ENDBRANCH  10  14
ENDBRANCH   9  10
BRANCH   7  32
ATOM     32  C   UNL     1     110.587 126.595 139.737  0.00  0.00    +0.000 C 
BRANCH  32  33
ATOM     33  O   UNL     1     110.329 126.196 139.062  0.00  0.00    +0.000 OA
BRANCH  33  35
ATOM     34  O   UNL     1     108.903 126.178 138.976  0.00  0.00    +0.000 OA
ATOM     35  C   UNL     1     109.633 126.430 138.686  0.00  0.00    +0.000 C 
BRANCH  35  36
ATOM     36  C   UNL     1     109.667 126.914 138.019  0.00  0.00    +0.000 C 
ATOM     37  C   UNL     1     109.417 126.628 137.287  0.00  0.00    +0.000 C 
BRANCH  37  40
ATOM     38  O   UNL     1     109.015 129.177 136.058  0.00  0.00    +0.000 OA
ATOM     39  O   UNL     1     109.551 128.568 134.621  0.00  0.00    +0.000 OA
ATOM     40  C   UNL     1     109.451 127.113 136.620  0.00  0.00    +0.000 A 
ATOM     41  C   UNL     1     109.216 127.902 136.672  0.00  0.00    +0.000 A 
ATOM     42  C   UNL     1     109.718 126.809 135.902  0.00  0.00    +0.000 A 
ATOM     43  C   UNL     1     109.249 128.387 136.006  0.00  0.00    +0.000 A 
ATOM     44  C   UNL     1     109.752 127.293 135.236  0.00  0.00    +0.000 A 
ATOM     45  C   UNL     1     109.517 128.083 135.288  0.00  0.00    +0.000 A 
ENDBRANCH  37  40
ENDBRANCH  35  36
ENDBRANCH  33  35
ENDBRANCH  32  33
ENDBRANCH   7  32
TORSDOF 9
ENDMDL
MODEL 10
REMARK VINA RESULT:      -9.2      1.577      5.408
REMARK  Name = 44256850
REMARK  9 active torsions:
REMARK  status: ('A' for Active; 'I' for Inactive)
REMARK    1  A    between atoms: O_2  and  C_19
REMARK    2  A    between atoms: O_2  and  C_21
REMARK    3  A    between atoms: O_6  and  C_20
REMARK    4  A    between atoms: O_6  and  C_25
REMARK    5  A    between atoms: O_11  and  C_35
REMARK    6  A    between atoms: C_17  and  C_20
REMARK    7  A    between atoms: C_22  and  C_27
REMARK    8  A    between atoms: C_25  and  C_31
REMARK    9  A    between atoms: C_38  and  C_39
REMARK                            x       y       z     vdW  Elec       q    Type
REMARK                         _______ _______ _______ _____ _____    ______ ____
ROOT
ATOM      1  O   UNL     1     111.242 128.462 136.811  0.00  0.00    +0.000 OA
ATOM      2  O   UNL     1     109.061 128.561 136.815  0.00  0.00    +0.000 OA
ATOM      3  O   UNL     1     109.365 128.434 135.198  0.00  0.00    +0.000 OA
ATOM      4  O   UNL     1     110.919 128.325 134.656  0.00  0.00    +0.000 OA
ATOM      5  C   UNL     1     109.839 128.507 136.544  0.00  0.00    +0.000 C 
ATOM      6  C   UNL     1     109.990 128.443 135.735  0.00  0.00    +0.000 C 
ATOM      7  C   UNL     1     110.464 128.516 137.082  0.00  0.00    +0.000 C 
ATOM      8  C   UNL     1     110.768 128.389 135.465  0.00  0.00    +0.000 C 
ATOM      9  C   UNL     1     111.393 128.398 136.003  0.00  0.00    +0.000 C 
ENDROOT
BRANCH   9  10
ATOM     10  O   UNL     1     112.171 128.344 135.731  0.00  0.00    +0.000 OA
BRANCH  10  14
ATOM     11  O   UNL     1     113.990 127.417 136.505  0.00  0.00    +0.000 OA
ATOM     12  O   UNL     1     111.813 125.527 136.686  0.00  0.00    +0.000 OA
ATOM     13  O   UNL     1     114.480 124.764 137.600  0.00  0.00    +0.000 OA
ATOM     14  C   UNL     1     112.683 127.786 136.059  0.00  0.00    +0.000 A 
ATOM     15  C   UNL     1     113.477 127.975 136.177  0.00  0.00    +0.000 A 
ATOM     16  C   UNL     1     112.402 127.039 136.268  0.00  0.00    +0.000 A 
ATOM     17  C   UNL     1     112.914 126.481 136.595  0.00  0.00    +0.000 A 
ATOM     18  C   UNL     1     113.709 126.671 136.713  0.00  0.00    +0.000 A 
ATOM     19  C   UNL     1     112.609 125.707 136.808  0.00  0.00    +0.000 A 
ATOM     20  C   UNL     1     114.252 126.099 137.053  0.00  0.00    +0.000 A 
ATOM     21  C   UNL     1     113.138 125.122 137.150  0.00  0.00    +0.000 A 
ATOM     22  C   UNL     1     113.965 125.319 137.273  0.00  0.00    +0.000 A 
BRANCH  15  24
ATOM     23  O   UNL     1     114.603 130.962 135.341  0.00  0.00    +0.000 OA
ATOM     24  C   UNL     1     113.759 128.722 135.968  0.00  0.00    +0.000 A 
ATOM     25  C   UNL     1     113.794 129.323 136.533  0.00  0.00    +0.000 A 
ATOM     26  C   UNL     1     114.005 128.868 135.195  0.00  0.00    +0.000 A 
ATOM     27  C   UNL     1     114.076 130.069 136.324  0.00  0.00    +0.000 A 
ATOM     28  C   UNL     1     114.286 129.615 134.986  0.00  0.00    +0.000 A 
ATOM     29  C   UNL     1     114.322 130.215 135.551  0.00  0.00    +0.000 A 
BRANCH  27  30
ATOM     30  O   UNL     1     114.111 130.669 136.888  0.00  0.00    +0.000 OA
ATOM     31  C   UNL     1     114.136 130.481 137.691  0.00  0.00    +0.000 C 
ENDBRANCH  27  30
ENDBRANCH  15  24
ENDBRANCH  10  14
ENDBRANCH   9  10
BRANCH   7  32
ATOM     32  C   UNL     1     110.312 128.580 137.890  0.00  0.00    +0.000 C 
BRANCH  32  33
ATOM     33  O   UNL     1     110.892 128.875 138.397  0.00  0.00    +0.000 OA
BRANCH  33  35
ATOM     34  O   UNL     1     110.300 128.814 139.696  0.00  0.00    +0.000 OA
ATOM     35  C   UNL     1     110.919 128.627 139.183  0.00  0.00    +0.000 C 
BRANCH  35  36
ATOM     36  C   UNL     1     111.564 128.191 139.457  0.00  0.00    +0.000 C 
ATOM     37  C   UNL     1     112.129 128.548 139.939  0.00  0.00    +0.000 C 
BRANCH  37  40
ATOM     38  O   UNL     1     114.845 128.437 140.821  0.00  0.00    +0.000 OA
ATOM     39  O   UNL     1     114.709 126.807 141.035  0.00  0.00    +0.000 OA
ATOM     40  C   UNL     1     112.774 128.112 140.213  0.00  0.00    +0.000 A 
ATOM     41  C   UNL     1     113.487 128.492 140.380  0.00  0.00    +0.000 A 
ATOM     42  C   UNL     1     112.706 127.298 140.320  0.00  0.00    +0.000 A 
ATOM     43  C   UNL     1     114.132 128.057 140.654  0.00  0.00    +0.000 A 
ATOM     44  C   UNL     1     113.350 126.862 140.594  0.00  0.00    +0.000 A 
ATOM     45  C   UNL     1     114.063 127.242 140.761  0.00  0.00    +0.000 A 
ENDBRANCH  37  40
ENDBRANCH  35  36
ENDBRANCH  33  35
ENDBRANCH  32  33
ENDBRANCH   7  32
TORSDOF 9
ENDMDL
