MODEL 1
REMARK VINA RESULT:      -9.3      0.000      0.000
REMARK  Name = 
REMARK  9 active torsions:
REMARK  status: ('A' for Active; 'I' for Inactive)
REMARK    1  A    between atoms: C_5  and  C_7
REMARK    2  A    between atoms: C_8  and  C_34
REMARK    3  A    between atoms: C_9  and  O_32
REMARK    4  A    between atoms: C_14  and  O_19
REMARK    5  A    between atoms: C_23  and  O_32
REMARK    6  A    between atoms: C_25  and  C_26
REMARK    7  A    between atoms: C_34  and  C_35
REMARK    8  A    between atoms: C_35  and  C_36
REMARK    9  A    between atoms: C_36  and  O_39
REMARK                            x       y       z     vdW  Elec       q    Type
REMARK                         _______ _______ _______ _____ _____    ______ ____
ROOT
ATOM      1  C   UNL     1     105.364 127.618 143.873  0.00  0.00    +0.000 A 
ATOM      2  C   UNL     1     105.687 126.994 143.162  0.00  0.00    +0.000 A 
ATOM      3  C   UNL     1     105.555 127.222 142.197  0.00  0.00    +0.000 A 
ATOM      4  C   UNL     1     105.098 128.075 141.943  0.00  0.00    +0.000 A 
ATOM      5  C   UNL     1     104.774 128.700 142.653  0.00  0.00    +0.000 A 
ATOM      6  O   UNL     1     104.907 128.472 143.619  0.00  0.00    +0.000 OA
ATOM      7  C   UNL     1     105.496 127.391 144.838  0.00  0.00    +0.000 A 
ATOM      8  C   UNL     1     105.953 126.537 145.092  0.00  0.00    +0.000 A 
ATOM      9  C   UNL     1     106.277 125.912 144.381  0.00  0.00    +0.000 A 
ATOM     10  C   UNL     1     106.144 126.141 143.416  0.00  0.00    +0.000 A 
ATOM     11  O   UNL     1     105.878 126.597 141.487  0.00  0.00    +0.000 OA
ATOM     12  O   UNL     1     106.467 125.516 142.705  0.00  0.00    +0.000 OA
ATOM     13  O   UNL     1     104.965 128.303 140.978  0.00  0.00    +0.000 OA
ENDROOT
BRANCH   5  14
ATOM     14  C   UNL     1     104.318 129.553 142.400  0.00  0.00    +0.000 A 
ATOM     15  C   UNL     1     103.338 129.554 142.199  0.00  0.00    +0.000 A 
ATOM     16  C   UNL     1     102.881 130.408 141.946  0.00  0.00    +0.000 A 
ATOM     17  C   UNL     1     103.404 131.259 141.894  0.00  0.00    +0.000 A 
ATOM     18  C   UNL     1     104.383 131.257 142.096  0.00  0.00    +0.000 A 
ATOM     19  C   UNL     1     104.840 130.405 142.349  0.00  0.00    +0.000 A 
BRANCH  17  20
ATOM     20  O   UNL     1     102.946 132.112 141.641  0.00  0.00    +0.000 OA
ATOM     21  C   UNL     1     101.971 132.232 141.830  0.00  0.00    +0.000 C 
ENDBRANCH  17  20
ENDBRANCH   5  14
BRANCH   8  22
ATOM     22  O   UNL     1     106.085 126.309 146.057  0.00  0.00    +0.000 OA
BRANCH  22  26
ATOM     23  C   UNL     1     107.426 124.723 148.810  0.00  0.00    +0.000 C 
ATOM     24  C   UNL     1     107.857 124.995 147.950  0.00  0.00    +0.000 C 
ATOM     25  C   UNL     1     107.130 125.426 147.415  0.00  0.00    +0.000 C 
ATOM     26  C   UNL     1     106.816 125.879 146.587  0.00  0.00    +0.000 C 
ATOM     27  O   UNL     1     106.385 125.607 147.448  0.00  0.00    +0.000 OA
ATOM     28  C   UNL     1     107.113 125.176 147.983  0.00  0.00    +0.000 C 
ATOM     29  O   UNL     1     108.157 124.293 149.342  0.00  0.00    +0.000 OA
ATOM     30  O   UNL     1     108.169 124.539 148.785  0.00  0.00    +0.000 OA
ATOM     31  O   UNL     1     107.561 125.698 146.554  0.00  0.00    +0.000 OA
BRANCH  28  32
ATOM     32  C   UNL     1     106.681 124.904 148.844  0.00  0.00    +0.000 C 
ATOM     33  O   UNL     1     105.738 124.800 149.160  0.00  0.00    +0.000 OA
ENDBRANCH  28  32
ENDBRANCH  22  26
ENDBRANCH   8  22
BRANCH   7  34
ATOM     34  C   UNL     1     105.173 128.015 145.548  0.00  0.00    +0.000 C 
BRANCH  34  35
ATOM     35  C   UNL     1     105.742 128.788 145.833  0.00  0.00    +0.000 C 
BRANCH  35  36
ATOM     36  C   UNL     1     105.434 129.393 146.566  0.00  0.00    +0.000 C 
ATOM     37  C   UNL     1     104.546 129.240 147.001  0.00  0.00    +0.000 C 
ATOM     38  C   UNL     1     106.013 130.152 146.866  0.00  0.00    +0.000 C 
BRANCH  36  39
ATOM     39  O   UNL     1     105.125 129.998 147.300  0.00  0.00    +0.000 OA
ATOM     40  C   UNL     1     105.404 130.960 147.307  0.00  0.00    +0.000 C 
ENDBRANCH  36  39
ENDBRANCH  35  36
ENDBRANCH  34  35
ENDBRANCH   7  34
TORSDOF 9
ENDMDL
MODEL 2
REMARK VINA RESULT:      -9.3      1.613      2.909
REMARK  Name = 
REMARK  9 active torsions:
REMARK  status: ('A' for Active; 'I' for Inactive)
REMARK    1  A    between atoms: C_5  and  C_7
REMARK    2  A    between atoms: C_8  and  C_34
REMARK    3  A    between atoms: C_9  and  O_32
REMARK    4  A    between atoms: C_14  and  O_19
REMARK    5  A    between atoms: C_23  and  O_32
REMARK    6  A    between atoms: C_25  and  C_26
REMARK    7  A    between atoms: C_34  and  C_35
REMARK    8  A    between atoms: C_35  and  C_36
REMARK    9  A    between atoms: C_36  and  O_39
REMARK                            x       y       z     vdW  Elec       q    Type
REMARK                         _______ _______ _______ _____ _____    ______ ____
ROOT
ATOM      1  C   UNL     1     103.879 129.367 142.406  0.00  0.00    +0.000 A 
ATOM      2  C   UNL     1     103.882 128.850 141.551  0.00  0.00    +0.000 A 
ATOM      3  C   UNL     1     103.357 129.177 140.766  0.00  0.00    +0.000 A 
ATOM      4  C   UNL     1     102.827 130.024 140.836  0.00  0.00    +0.000 A 
ATOM      5  C   UNL     1     102.824 130.541 141.691  0.00  0.00    +0.000 A 
ATOM      6  O   UNL     1     103.350 130.214 142.477  0.00  0.00    +0.000 OA
ATOM      7  C   UNL     1     104.405 129.040 143.192  0.00  0.00    +0.000 A 
ATOM      8  C   UNL     1     104.935 128.193 143.121  0.00  0.00    +0.000 A 
ATOM      9  C   UNL     1     104.938 127.676 142.265  0.00  0.00    +0.000 A 
ATOM     10  C   UNL     1     104.412 128.004 141.480  0.00  0.00    +0.000 A 
ATOM     11  O   UNL     1     103.360 128.659 139.910  0.00  0.00    +0.000 OA
ATOM     12  O   UNL     1     104.415 127.486 140.625  0.00  0.00    +0.000 OA
ATOM     13  O   UNL     1     102.301 130.351 140.051  0.00  0.00    +0.000 OA
ENDROOT
BRANCH   5  14
ATOM     14  C   UNL     1     102.295 131.388 141.763  0.00  0.00    +0.000 A 
ATOM     15  C   UNL     1     102.721 132.263 141.533  0.00  0.00    +0.000 A 
ATOM     16  C   UNL     1     102.191 133.109 141.604  0.00  0.00    +0.000 A 
ATOM     17  C   UNL     1     101.238 133.080 141.905  0.00  0.00    +0.000 A 
ATOM     18  C   UNL     1     100.813 132.204 142.135  0.00  0.00    +0.000 A 
ATOM     19  C   UNL     1     101.341 131.358 142.064  0.00  0.00    +0.000 A 
BRANCH  17  20
ATOM     20  O   UNL     1     100.710 133.927 141.976  0.00  0.00    +0.000 OA
ATOM     21  C   UNL     1     100.718 134.452 142.827  0.00  0.00    +0.000 C 
ENDBRANCH  17  20
ENDBRANCH   5  14
BRANCH   8  22
ATOM     22  O   UNL     1     105.460 127.866 143.907  0.00  0.00    +0.000 OA
BRANCH  22  26
ATOM     23  C   UNL     1     106.758 125.698 146.254  0.00  0.00    +0.000 C 
ATOM     24  C   UNL     1     106.300 125.509 145.385  0.00  0.00    +0.000 C 
ATOM     25  C   UNL     1     106.077 126.405 145.003  0.00  0.00    +0.000 C 
ATOM     26  C   UNL     1     105.682 126.967 144.284  0.00  0.00    +0.000 C 
ATOM     27  O   UNL     1     106.139 127.155 145.153  0.00  0.00    +0.000 OA
ATOM     28  C   UNL     1     106.362 126.258 145.534  0.00  0.00    +0.000 C 
ATOM     29  O   UNL     1     106.979 124.797 146.631  0.00  0.00    +0.000 OA
ATOM     30  O   UNL     1     106.700 124.947 146.111  0.00  0.00    +0.000 OA
ATOM     31  O   UNL     1     105.619 126.217 144.134  0.00  0.00    +0.000 OA
BRANCH  28  32
ATOM     32  C   UNL     1     106.820 126.447 146.404  0.00  0.00    +0.000 C 
ATOM     33  O   UNL     1     107.573 127.039 146.692  0.00  0.00    +0.000 OA
ENDBRANCH  28  32
ENDBRANCH  22  26
ENDBRANCH   8  22
BRANCH   7  34
ATOM     34  C   UNL     1     104.402 129.558 144.047  0.00  0.00    +0.000 C 
BRANCH  34  35
ATOM     35  C   UNL     1     105.042 130.316 144.176  0.00  0.00    +0.000 C 
BRANCH  35  36
ATOM     36  C   UNL     1     104.982 130.888 144.993  0.00  0.00    +0.000 C 
ATOM     37  C   UNL     1     104.481 130.563 145.795  0.00  0.00    +0.000 C 
ATOM     38  C   UNL     1     105.424 131.786 145.009  0.00  0.00    +0.000 C 
BRANCH  36  39
ATOM     39  O   UNL     1     104.922 131.460 145.811  0.00  0.00    +0.000 OA
ATOM     40  C   UNL     1     105.657 132.105 146.027  0.00  0.00    +0.000 C 
ENDBRANCH  36  39
ENDBRANCH  35  36
ENDBRANCH  34  35
ENDBRANCH   7  34
TORSDOF 9
ENDMDL
MODEL 3
REMARK VINA RESULT:      -9.2      7.931      9.896
REMARK  Name = 
REMARK  9 active torsions:
REMARK  status: ('A' for Active; 'I' for Inactive)
REMARK    1  A    between atoms: C_5  and  C_7
REMARK    2  A    between atoms: C_8  and  C_34
REMARK    3  A    between atoms: C_9  and  O_32
REMARK    4  A    between atoms: C_14  and  O_19
REMARK    5  A    between atoms: C_23  and  O_32
REMARK    6  A    between atoms: C_25  and  C_26
REMARK    7  A    between atoms: C_34  and  C_35
REMARK    8  A    between atoms: C_35  and  C_36
REMARK    9  A    between atoms: C_36  and  O_39
REMARK                            x       y       z     vdW  Elec       q    Type
REMARK                         _______ _______ _______ _____ _____    ______ ____
ROOT
ATOM      1  C   UNL     1     112.273 128.544 141.129  0.00  0.00    +0.000 A 
ATOM      2  C   UNL     1     111.573 128.084 141.677  0.00  0.00    +0.000 A 
ATOM      3  C   UNL     1     111.240 127.181 141.406  0.00  0.00    +0.000 A 
ATOM      4  C   UNL     1     111.606 126.737 140.587  0.00  0.00    +0.000 A 
ATOM      5  C   UNL     1     112.305 127.197 140.039  0.00  0.00    +0.000 A 
ATOM      6  O   UNL     1     112.639 128.101 140.310  0.00  0.00    +0.000 OA
ATOM      7  C   UNL     1     112.606 129.447 141.400  0.00  0.00    +0.000 A 
ATOM      8  C   UNL     1     112.240 129.891 142.219  0.00  0.00    +0.000 A 
ATOM      9  C   UNL     1     111.540 129.431 142.766  0.00  0.00    +0.000 A 
ATOM     10  C   UNL     1     111.207 128.527 142.495  0.00  0.00    +0.000 A 
ATOM     11  O   UNL     1     110.541 126.721 141.953  0.00  0.00    +0.000 OA
ATOM     12  O   UNL     1     110.508 128.067 143.042  0.00  0.00    +0.000 OA
ATOM     13  O   UNL     1     111.273 125.834 140.316  0.00  0.00    +0.000 OA
ENDROOT
BRANCH   5  14
ATOM     14  C   UNL     1     112.672 126.754 139.221  0.00  0.00    +0.000 A 
ATOM     15  C   UNL     1     112.135 126.743 138.377  0.00  0.00    +0.000 A 
ATOM     16  C   UNL     1     112.502 126.300 137.558  0.00  0.00    +0.000 A 
ATOM     17  C   UNL     1     113.404 125.869 137.583  0.00  0.00    +0.000 A 
ATOM     18  C   UNL     1     113.940 125.881 138.427  0.00  0.00    +0.000 A 
ATOM     19  C   UNL     1     113.574 126.323 139.246  0.00  0.00    +0.000 A 
BRANCH  17  20
ATOM     20  O   UNL     1     113.770 125.427 136.763  0.00  0.00    +0.000 OA
ATOM     21  C   UNL     1     113.566 124.465 136.580  0.00  0.00    +0.000 C 
ENDBRANCH  17  20
ENDBRANCH   5  14
BRANCH   8  22
ATOM     22  O   UNL     1     112.573 130.794 142.489  0.00  0.00    +0.000 OA
BRANCH  22  26
ATOM     23  C   UNL     1     112.288 133.638 144.420  0.00  0.00    +0.000 C 
ATOM     24  C   UNL     1     111.702 133.296 143.686  0.00  0.00    +0.000 C 
ATOM     25  C   UNL     1     112.127 132.444 143.383  0.00  0.00    +0.000 C 
ATOM     26  C   UNL     1     112.143 131.646 142.788  0.00  0.00    +0.000 C 
ATOM     27  O   UNL     1     112.729 131.988 143.523  0.00  0.00    +0.000 OA
ATOM     28  C   UNL     1     112.302 132.841 143.826  0.00  0.00    +0.000 C 
ATOM     29  O   UNL     1     111.857 134.490 144.720  0.00  0.00    +0.000 OA
ATOM     30  O   UNL     1     111.690 134.097 144.286  0.00  0.00    +0.000 OA
ATOM     31  O   UNL     1     111.542 132.101 142.648  0.00  0.00    +0.000 OA
BRANCH  28  32
ATOM     32  C   UNL     1     112.889 133.183 144.561  0.00  0.00    +0.000 C 
ATOM     33  O   UNL     1     113.836 133.024 144.842  0.00  0.00    +0.000 OA
ENDBRANCH  28  32
ENDBRANCH  22  26
ENDBRANCH   8  22
BRANCH   7  34
ATOM     34  C   UNL     1     113.305 129.907 140.852  0.00  0.00    +0.000 C 
BRANCH  34  35
ATOM     35  C   UNL     1     113.056 130.342 139.986  0.00  0.00    +0.000 C 
BRANCH  35  36
ATOM     36  C   UNL     1     113.763 130.550 139.310  0.00  0.00    +0.000 C 
ATOM     37  C   UNL     1     114.710 130.684 139.602  0.00  0.00    +0.000 C 
ATOM     38  C   UNL     1     113.523 130.624 138.341  0.00  0.00    +0.000 C 
BRANCH  36  39
ATOM     39  O   UNL     1     114.470 130.758 138.634  0.00  0.00    +0.000 OA
ATOM     40  C   UNL     1     114.278 130.647 137.657  0.00  0.00    +0.000 C 
ENDBRANCH  36  39
ENDBRANCH  35  36
ENDBRANCH  34  35
ENDBRANCH   7  34
TORSDOF 9
ENDMDL
MODEL 4
REMARK VINA RESULT:      -9.0     10.062     11.065
REMARK  Name = 
REMARK  9 active torsions:
REMARK  status: ('A' for Active; 'I' for Inactive)
REMARK    1  A    between atoms: C_5  and  C_7
REMARK    2  A    between atoms: C_8  and  C_34
REMARK    3  A    between atoms: C_9  and  O_32
REMARK    4  A    between atoms: C_14  and  O_19
REMARK    5  A    between atoms: C_23  and  O_32
REMARK    6  A    between atoms: C_25  and  C_26
REMARK    7  A    between atoms: C_34  and  C_35
REMARK    8  A    between atoms: C_35  and  C_36
REMARK    9  A    between atoms: C_36  and  O_39
REMARK                            x       y       z     vdW  Elec       q    Type
REMARK                         _______ _______ _______ _____ _____    ______ ____
ROOT
ATOM      1  C   UNL     1     111.396 129.926 136.269  0.00  0.00    +0.000 A 
ATOM      2  C   UNL     1     111.957 130.578 136.779  0.00  0.00    +0.000 A 
ATOM      3  C   UNL     1     111.604 131.491 136.980  0.00  0.00    +0.000 A 
ATOM      4  C   UNL     1     110.689 131.754 136.670  0.00  0.00    +0.000 A 
ATOM      5  C   UNL     1     110.128 131.102 136.160  0.00  0.00    +0.000 A 
ATOM      6  O   UNL     1     110.481 130.187 135.959  0.00  0.00    +0.000 OA
ATOM      7  C   UNL     1     111.749 129.011 136.067  0.00  0.00    +0.000 A 
ATOM      8  C   UNL     1     112.664 128.750 136.377  0.00  0.00    +0.000 A 
ATOM      9  C   UNL     1     113.225 129.402 136.887  0.00  0.00    +0.000 A 
ATOM     10  C   UNL     1     112.871 130.316 137.088  0.00  0.00    +0.000 A 
ATOM     11  O   UNL     1     112.165 132.143 137.490  0.00  0.00    +0.000 OA
ATOM     12  O   UNL     1     113.432 130.968 137.598  0.00  0.00    +0.000 OA
ATOM     13  O   UNL     1     110.336 132.667 136.871  0.00  0.00    +0.000 OA
ENDROOT
BRANCH   5  14
ATOM     14  C   UNL     1     109.213 131.363 135.851  0.00  0.00    +0.000 A 
ATOM     15  C   UNL     1     108.413 131.128 136.405  0.00  0.00    +0.000 A 
ATOM     16  C   UNL     1     107.498 131.390 136.095  0.00  0.00    +0.000 A 
ATOM     17  C   UNL     1     107.383 131.884 135.233  0.00  0.00    +0.000 A 
ATOM     18  C   UNL     1     108.183 132.117 134.681  0.00  0.00    +0.000 A 
ATOM     19  C   UNL     1     109.098 131.857 134.989  0.00  0.00    +0.000 A 
BRANCH  17  20
ATOM     20  O   UNL     1     106.468 132.144 134.925  0.00  0.00    +0.000 OA
ATOM     21  C   UNL     1     105.701 132.133 135.567  0.00  0.00    +0.000 C 
ENDBRANCH  17  20
ENDBRANCH   5  14
BRANCH   8  22
ATOM     22  O   UNL     1     113.017 127.835 136.175  0.00  0.00    +0.000 OA
BRANCH  22  26
ATOM     23  C   UNL     1     114.114 124.660 136.954  0.00  0.00    +0.000 C 
ATOM     24  C   UNL     1     114.376 125.545 137.339  0.00  0.00    +0.000 C 
ATOM     25  C   UNL     1     113.831 126.220 136.843  0.00  0.00    +0.000 C 
ATOM     26  C   UNL     1     113.565 127.164 136.674  0.00  0.00    +0.000 C 
ATOM     27  O   UNL     1     113.302 126.279 136.290  0.00  0.00    +0.000 OA
ATOM     28  C   UNL     1     113.848 125.603 136.787  0.00  0.00    +0.000 C 
ATOM     29  O   UNL     1     114.662 123.987 137.454  0.00  0.00    +0.000 OA
ATOM     30  O   UNL     1     114.642 124.594 137.505  0.00  0.00    +0.000 OA
ATOM     31  O   UNL     1     114.094 127.106 137.227  0.00  0.00    +0.000 OA
BRANCH  28  32
ATOM     32  C   UNL     1     113.585 124.717 136.402  0.00  0.00    +0.000 C 
ATOM     33  O   UNL     1     112.724 124.218 136.302  0.00  0.00    +0.000 OA
ENDBRANCH  28  32
ENDBRANCH  22  26
ENDBRANCH   8  22
BRANCH   7  34
ATOM     34  C   UNL     1     111.188 128.359 135.557  0.00  0.00    +0.000 C 
BRANCH  34  35
ATOM     35  C   UNL     1     110.449 127.867 136.019  0.00  0.00    +0.000 C 
BRANCH  35  36
ATOM     36  C   UNL     1     109.927 127.171 135.526  0.00  0.00    +0.000 C 
ATOM     37  C   UNL     1     110.223 126.875 134.618  0.00  0.00    +0.000 C 
ATOM     38  C   UNL     1     109.109 126.771 135.941  0.00  0.00    +0.000 C 
BRANCH  36  39
ATOM     39  O   UNL     1     109.405 126.475 135.032  0.00  0.00    +0.000 OA
ATOM     40  C   UNL     1     109.850 125.625 134.746  0.00  0.00    +0.000 C 
ENDBRANCH  36  39
ENDBRANCH  35  36
ENDBRANCH  34  35
ENDBRANCH   7  34
TORSDOF 9
ENDMDL
MODEL 5
REMARK VINA RESULT:      -8.9      4.479      6.934
REMARK  Name = 
REMARK  9 active torsions:
REMARK  status: ('A' for Active; 'I' for Inactive)
REMARK    1  A    between atoms: C_5  and  C_7
REMARK    2  A    between atoms: C_8  and  C_34
REMARK    3  A    between atoms: C_9  and  O_32
REMARK    4  A    between atoms: C_14  and  O_19
REMARK    5  A    between atoms: C_23  and  O_32
REMARK    6  A    between atoms: C_25  and  C_26
REMARK    7  A    between atoms: C_34  and  C_35
REMARK    8  A    between atoms: C_35  and  C_36
REMARK    9  A    between atoms: C_36  and  O_39
REMARK                            x       y       z     vdW  Elec       q    Type
REMARK                         _______ _______ _______ _____ _____    ______ ____
ROOT
ATOM      1  C   UNL     1     109.764 127.330 141.677  0.00  0.00    +0.000 A 
ATOM      2  C   UNL     1     110.487 126.865 141.166  0.00  0.00    +0.000 A 
ATOM      3  C   UNL     1     111.440 127.147 141.279  0.00  0.00    +0.000 A 
ATOM      4  C   UNL     1     111.670 127.895 141.903  0.00  0.00    +0.000 A 
ATOM      5  C   UNL     1     110.947 128.360 142.414  0.00  0.00    +0.000 A 
ATOM      6  O   UNL     1     109.993 128.077 142.301  0.00  0.00    +0.000 OA
ATOM      7  C   UNL     1     108.811 127.048 141.564  0.00  0.00    +0.000 A 
ATOM      8  C   UNL     1     108.581 126.300 140.939  0.00  0.00    +0.000 A 
ATOM      9  C   UNL     1     109.304 125.835 140.428  0.00  0.00    +0.000 A 
ATOM     10  C   UNL     1     110.258 126.118 140.542  0.00  0.00    +0.000 A 
ATOM     11  O   UNL     1     112.163 126.682 140.768  0.00  0.00    +0.000 OA
ATOM     12  O   UNL     1     110.981 125.653 140.031  0.00  0.00    +0.000 OA
ATOM     13  O   UNL     1     112.623 128.177 142.016  0.00  0.00    +0.000 OA
ENDROOT
BRANCH   5  14
ATOM     14  C   UNL     1     111.176 129.107 143.038  0.00  0.00    +0.000 A 
ATOM     15  C   UNL     1     111.417 128.907 143.988  0.00  0.00    +0.000 A 
ATOM     16  C   UNL     1     111.646 129.654 144.613  0.00  0.00    +0.000 A 
ATOM     17  C   UNL     1     111.633 130.600 144.288  0.00  0.00    +0.000 A 
ATOM     18  C   UNL     1     111.392 130.799 143.338  0.00  0.00    +0.000 A 
ATOM     19  C   UNL     1     111.163 130.053 142.713  0.00  0.00    +0.000 A 
BRANCH  17  20
ATOM     20  O   UNL     1     111.862 131.347 144.913  0.00  0.00    +0.000 OA
ATOM     21  C   UNL     1     111.161 131.728 145.516  0.00  0.00    +0.000 C 
ENDBRANCH  17  20
ENDBRANCH   5  14
BRANCH   8  22
ATOM     22  O   UNL     1     107.628 126.018 140.827  0.00  0.00    +0.000 OA
BRANCH  22  26
ATOM     23  C   UNL     1     105.063 123.918 139.877  0.00  0.00    +0.000 C 
ATOM     24  C   UNL     1     105.900 123.722 140.387  0.00  0.00    +0.000 C 
ATOM     25  C   UNL     1     106.379 124.597 140.454  0.00  0.00    +0.000 C 
ATOM     26  C   UNL     1     107.154 125.140 140.762  0.00  0.00    +0.000 C 
ATOM     27  O   UNL     1     106.316 125.335 140.252  0.00  0.00    +0.000 OA
ATOM     28  C   UNL     1     105.837 124.459 140.185  0.00  0.00    +0.000 C 
ATOM     29  O   UNL     1     104.588 123.039 139.812  0.00  0.00    +0.000 OA
ATOM     30  O   UNL     1     105.119 123.180 140.075  0.00  0.00    +0.000 OA
ATOM     31  O   UNL     1     107.217 124.403 140.964  0.00  0.00    +0.000 OA
BRANCH  28  32
ATOM     32  C   UNL     1     104.999 124.655 139.675  0.00  0.00    +0.000 C 
ATOM     33  O   UNL     1     104.660 125.432 139.144  0.00  0.00    +0.000 OA
ENDBRANCH  28  32
ENDBRANCH  22  26
ENDBRANCH   8  22
BRANCH   7  34
ATOM     34  C   UNL     1     108.088 127.513 142.075  0.00  0.00    +0.000 C 
BRANCH  34  35
ATOM     35  C   UNL     1     107.655 128.332 141.697  0.00  0.00    +0.000 C 
BRANCH  35  36
ATOM     36  C   UNL     1     106.960 128.819 142.224  0.00  0.00    +0.000 C 
ATOM     37  C   UNL     1     106.594 128.415 143.063  0.00  0.00    +0.000 C 
ATOM     38  C   UNL     1     106.629 129.711 141.913  0.00  0.00    +0.000 C 
BRANCH  36  39
ATOM     39  O   UNL     1     106.264 129.306 142.752  0.00  0.00    +0.000 OA
ATOM     40  C   UNL     1     105.719 130.026 142.319  0.00  0.00    +0.000 C 
ENDBRANCH  36  39
ENDBRANCH  35  36
ENDBRANCH  34  35
ENDBRANCH   7  34
TORSDOF 9
ENDMDL
MODEL 6
REMARK VINA RESULT:      -8.9      2.129      5.931
REMARK  Name = 
REMARK  9 active torsions:
REMARK  status: ('A' for Active; 'I' for Inactive)
REMARK    1  A    between atoms: C_5  and  C_7
REMARK    2  A    between atoms: C_8  and  C_34
REMARK    3  A    between atoms: C_9  and  O_32
REMARK    4  A    between atoms: C_14  and  O_19
REMARK    5  A    between atoms: C_23  and  O_32
REMARK    6  A    between atoms: C_25  and  C_26
REMARK    7  A    between atoms: C_34  and  C_35
REMARK    8  A    between atoms: C_35  and  C_36
REMARK    9  A    between atoms: C_36  and  O_39
REMARK                            x       y       z     vdW  Elec       q    Type
REMARK                         _______ _______ _______ _____ _____    ______ ____
ROOT
ATOM      1  C   UNL     1     105.981 126.870 144.331  0.00  0.00    +0.000 A 
ATOM      2  C   UNL     1     106.100 126.100 144.958  0.00  0.00    +0.000 A 
ATOM      3  C   UNL     1     106.195 126.264 145.940  0.00  0.00    +0.000 A 
ATOM      4  C   UNL     1     106.171 127.199 146.296  0.00  0.00    +0.000 A 
ATOM      5  C   UNL     1     106.052 127.969 145.669  0.00  0.00    +0.000 A 
ATOM      6  O   UNL     1     105.957 127.805 144.686  0.00  0.00    +0.000 OA
ATOM      7  C   UNL     1     105.885 126.706 143.349  0.00  0.00    +0.000 A 
ATOM      8  C   UNL     1     105.909 125.771 142.994  0.00  0.00    +0.000 A 
ATOM      9  C   UNL     1     106.029 125.000 143.620  0.00  0.00    +0.000 A 
ATOM     10  C   UNL     1     106.124 125.165 144.603  0.00  0.00    +0.000 A 
ATOM     11  O   UNL     1     106.315 125.494 146.566  0.00  0.00    +0.000 OA
ATOM     12  O   UNL     1     106.243 124.395 145.229  0.00  0.00    +0.000 OA
ATOM     13  O   UNL     1     106.267 127.363 147.277  0.00  0.00    +0.000 OA
ENDROOT
BRANCH   5  14
ATOM     14  C   UNL     1     106.028 128.905 146.024  0.00  0.00    +0.000 A 
ATOM     15  C   UNL     1     105.161 129.300 146.329  0.00  0.00    +0.000 A 
ATOM     16  C   UNL     1     105.137 130.235 146.684  0.00  0.00    +0.000 A 
ATOM     17  C   UNL     1     105.978 130.774 146.733  0.00  0.00    +0.000 A 
ATOM     18  C   UNL     1     106.844 130.378 146.427  0.00  0.00    +0.000 A 
ATOM     19  C   UNL     1     106.869 129.443 146.073  0.00  0.00    +0.000 A 
BRANCH  17  20
ATOM     20  O   UNL     1     105.953 131.709 147.088  0.00  0.00    +0.000 OA
ATOM     21  C   UNL     1     105.961 131.871 148.074  0.00  0.00    +0.000 C 
ENDBRANCH  17  20
ENDBRANCH   5  14
BRANCH   8  22
ATOM     22  O   UNL     1     105.814 125.607 142.011  0.00  0.00    +0.000 OA
BRANCH  22  26
ATOM     23  C   UNL     1     104.971 123.814 139.188  0.00  0.00    +0.000 C 
ATOM     24  C   UNL     1     105.478 123.533 140.003  0.00  0.00    +0.000 C 
ATOM     25  C   UNL     1     105.508 124.343 140.588  0.00  0.00    +0.000 C 
ATOM     26  C   UNL     1     105.787 124.794 141.430  0.00  0.00    +0.000 C 
ATOM     27  O   UNL     1     105.280 125.075 140.615  0.00  0.00    +0.000 OA
ATOM     28  C   UNL     1     105.250 124.264 140.029  0.00  0.00    +0.000 C 
ATOM     29  O   UNL     1     104.944 123.000 138.606  0.00  0.00    +0.000 OA
ATOM     30  O   UNL     1     105.196 123.083 139.154  0.00  0.00    +0.000 OA
ATOM     31  O   UNL     1     106.015 124.062 141.404  0.00  0.00    +0.000 OA
BRANCH  28  32
ATOM     32  C   UNL     1     104.743 124.546 139.214  0.00  0.00    +0.000 C 
ATOM     33  O   UNL     1     103.916 125.082 139.046  0.00  0.00    +0.000 OA
ENDBRANCH  28  32
ENDBRANCH  22  26
ENDBRANCH   8  22
BRANCH   7  34
ATOM     34  C   UNL     1     105.766 127.477 142.722  0.00  0.00    +0.000 C 
BRANCH  34  35
ATOM     35  C   UNL     1     104.854 127.859 142.568  0.00  0.00    +0.000 C 
BRANCH  35  36
ATOM     36  C   UNL     1     104.734 128.624 141.935  0.00  0.00    +0.000 C 
ATOM     37  C   UNL     1     105.452 129.313 141.841  0.00  0.00    +0.000 C 
ATOM     38  C   UNL     1     103.894 128.699 141.396  0.00  0.00    +0.000 C 
BRANCH  36  39
ATOM     39  O   UNL     1     104.613 129.388 141.302  0.00  0.00    +0.000 OA
ATOM     40  C   UNL     1     103.834 130.008 141.407  0.00  0.00    +0.000 C 
ENDBRANCH  36  39
ENDBRANCH  35  36
ENDBRANCH  34  35
ENDBRANCH   7  34
TORSDOF 9
ENDMDL
MODEL 7
REMARK VINA RESULT:      -8.8      6.975      8.670
REMARK  Name = 
REMARK  9 active torsions:
REMARK  status: ('A' for Active; 'I' for Inactive)
REMARK    1  A    between atoms: C_5  and  C_7
REMARK    2  A    between atoms: C_8  and  C_34
REMARK    3  A    between atoms: C_9  and  O_32
REMARK    4  A    between atoms: C_14  and  O_19
REMARK    5  A    between atoms: C_23  and  O_32
REMARK    6  A    between atoms: C_25  and  C_26
REMARK    7  A    between atoms: C_34  and  C_35
REMARK    8  A    between atoms: C_35  and  C_36
REMARK    9  A    between atoms: C_36  and  O_39
REMARK                            x       y       z     vdW  Elec       q    Type
REMARK                         _______ _______ _______ _____ _____    ______ ____
ROOT
ATOM      1  C   UNL     1     112.450 126.910 139.974  0.00  0.00    +0.000 A 
ATOM      2  C   UNL     1     113.445 126.818 140.018  0.00  0.00    +0.000 A 
ATOM      3  C   UNL     1     113.946 126.436 139.242  0.00  0.00    +0.000 A 
ATOM      4  C   UNL     1     113.453 126.146 138.421  0.00  0.00    +0.000 A 
ATOM      5  C   UNL     1     112.458 126.238 138.377  0.00  0.00    +0.000 A 
ATOM      6  O   UNL     1     111.956 126.620 139.154  0.00  0.00    +0.000 OA
ATOM      7  C   UNL     1     111.948 127.293 140.751  0.00  0.00    +0.000 A 
ATOM      8  C   UNL     1     112.443 127.583 141.572  0.00  0.00    +0.000 A 
ATOM      9  C   UNL     1     113.437 127.491 141.615  0.00  0.00    +0.000 A 
ATOM     10  C   UNL     1     113.939 127.109 140.838  0.00  0.00    +0.000 A 
ATOM     11  O   UNL     1     114.941 126.344 139.285  0.00  0.00    +0.000 OA
ATOM     12  O   UNL     1     114.933 127.017 140.881  0.00  0.00    +0.000 OA
ATOM     13  O   UNL     1     113.954 125.764 137.644  0.00  0.00    +0.000 OA
ENDROOT
BRANCH   5  14
ATOM     14  C   UNL     1     111.963 125.948 137.557  0.00  0.00    +0.000 A 
ATOM     15  C   UNL     1     111.688 124.992 137.453  0.00  0.00    +0.000 A 
ATOM     16  C   UNL     1     111.193 124.702 136.633  0.00  0.00    +0.000 A 
ATOM     17  C   UNL     1     110.975 125.367 135.919  0.00  0.00    +0.000 A 
ATOM     18  C   UNL     1     111.251 126.322 136.024  0.00  0.00    +0.000 A 
ATOM     19  C   UNL     1     111.745 126.613 136.843  0.00  0.00    +0.000 A 
BRANCH  17  20
ATOM     20  O   UNL     1     110.480 125.075 135.099  0.00  0.00    +0.000 OA
ATOM     21  C   UNL     1     109.893 125.723 134.612  0.00  0.00    +0.000 C 
ENDBRANCH  17  20
ENDBRANCH   5  14
BRANCH   8  22
ATOM     22  O   UNL     1     111.940 127.965 142.348  0.00  0.00    +0.000 OA
BRANCH  22  26
ATOM     23  C   UNL     1     111.372 130.020 145.059  0.00  0.00    +0.000 C 
ATOM     24  C   UNL     1     111.794 130.221 144.175  0.00  0.00    +0.000 C 
ATOM     25  C   UNL     1     111.771 129.359 143.669  0.00  0.00    +0.000 C 
ATOM     26  C   UNL     1     111.967 128.830 142.850  0.00  0.00    +0.000 C 
ATOM     27  O   UNL     1     111.544 128.629 143.734  0.00  0.00    +0.000 OA
ATOM     28  C   UNL     1     111.569 129.491 144.240  0.00  0.00    +0.000 C 
ATOM     29  O   UNL     1     111.398 130.885 145.562  0.00  0.00    +0.000 OA
ATOM     30  O   UNL     1     111.595 130.750 145.001  0.00  0.00    +0.000 OA
ATOM     31  O   UNL     1     112.193 129.560 142.784  0.00  0.00    +0.000 OA
BRANCH  28  32
ATOM     32  C   UNL     1     111.145 129.290 145.125  0.00  0.00    +0.000 C 
ATOM     33  O   UNL     1     110.313 128.820 145.419  0.00  0.00    +0.000 OA
ENDBRANCH  28  32
ENDBRANCH  22  26
ENDBRANCH   8  22
BRANCH   7  34
ATOM     34  C   UNL     1     110.953 127.385 140.707  0.00  0.00    +0.000 C 
BRANCH  34  35
ATOM     35  C   UNL     1     110.368 126.635 141.019  0.00  0.00    +0.000 C 
BRANCH  35  36
ATOM     36  C   UNL     1     109.374 126.714 140.945  0.00  0.00    +0.000 C 
ATOM     37  C   UNL     1     108.950 127.613 140.831  0.00  0.00    +0.000 C 
ATOM     38  C   UNL     1     108.803 125.893 140.984  0.00  0.00    +0.000 C 
BRANCH  36  39
ATOM     39  O   UNL     1     108.379 126.792 140.870  0.00  0.00    +0.000 OA
ATOM     40  C   UNL     1     107.804 125.978 140.962  0.00  0.00    +0.000 C 
ENDBRANCH  36  39
ENDBRANCH  35  36
ENDBRANCH  34  35
ENDBRANCH   7  34
TORSDOF 9
ENDMDL
MODEL 8
REMARK VINA RESULT:      -8.8      5.504      7.616
REMARK  Name = 
REMARK  9 active torsions:
REMARK  status: ('A' for Active; 'I' for Inactive)
REMARK    1  A    between atoms: C_5  and  C_7
REMARK    2  A    between atoms: C_8  and  C_34
REMARK    3  A    between atoms: C_9  and  O_32
REMARK    4  A    between atoms: C_14  and  O_19
REMARK    5  A    between atoms: C_23  and  O_32
REMARK    6  A    between atoms: C_25  and  C_26
REMARK    7  A    between atoms: C_34  and  C_35
REMARK    8  A    between atoms: C_35  and  C_36
REMARK    9  A    between atoms: C_36  and  O_39
REMARK                            x       y       z     vdW  Elec       q    Type
REMARK                         _______ _______ _______ _____ _____    ______ ____
ROOT
ATOM      1  C   UNL     1     110.859 131.472 144.836  0.00  0.00    +0.000 A 
ATOM      2  C   UNL     1     111.517 132.039 144.341  0.00  0.00    +0.000 A 
ATOM      3  C   UNL     1     111.726 132.961 144.665  0.00  0.00    +0.000 A 
ATOM      4  C   UNL     1     111.276 133.318 145.484  0.00  0.00    +0.000 A 
ATOM      5  C   UNL     1     110.618 132.751 145.980  0.00  0.00    +0.000 A 
ATOM      6  O   UNL     1     110.408 131.827 145.656  0.00  0.00    +0.000 OA
ATOM      7  C   UNL     1     110.649 130.548 144.513  0.00  0.00    +0.000 A 
ATOM      8  C   UNL     1     111.100 130.192 143.692  0.00  0.00    +0.000 A 
ATOM      9  C   UNL     1     111.758 130.759 143.197  0.00  0.00    +0.000 A 
ATOM     10  C   UNL     1     111.967 131.683 143.522  0.00  0.00    +0.000 A 
ATOM     11  O   UNL     1     112.384 133.528 144.169  0.00  0.00    +0.000 OA
ATOM     12  O   UNL     1     112.625 132.249 143.026  0.00  0.00    +0.000 OA
ATOM     13  O   UNL     1     111.485 134.241 145.808  0.00  0.00    +0.000 OA
ENDROOT
BRANCH   5  14
ATOM     14  C   UNL     1     110.167 133.107 146.799  0.00  0.00    +0.000 A 
ATOM     15  C   UNL     1     109.198 133.354 146.768  0.00  0.00    +0.000 A 
ATOM     16  C   UNL     1     108.748 133.710 147.588  0.00  0.00    +0.000 A 
ATOM     17  C   UNL     1     109.265 133.817 148.437  0.00  0.00    +0.000 A 
ATOM     18  C   UNL     1     110.234 133.570 148.467  0.00  0.00    +0.000 A 
ATOM     19  C   UNL     1     110.685 133.215 147.648  0.00  0.00    +0.000 A 
BRANCH  17  20
ATOM     20  O   UNL     1     108.814 134.173 149.256  0.00  0.00    +0.000 OA
ATOM     21  C   UNL     1     108.275 135.014 149.205  0.00  0.00    +0.000 C 
ENDBRANCH  17  20
ENDBRANCH   5  14
BRANCH   8  22
ATOM     22  O   UNL     1     110.891 129.269 143.369  0.00  0.00    +0.000 OA
BRANCH  22  26
ATOM     23  C   UNL     1     110.992 126.632 141.148  0.00  0.00    +0.000 C 
ATOM     24  C   UNL     1     111.733 127.194 141.516  0.00  0.00    +0.000 C 
ATOM     25  C   UNL     1     111.289 127.850 142.126  0.00  0.00    +0.000 C 
ATOM     26  C   UNL     1     111.340 128.615 142.760  0.00  0.00    +0.000 C 
ATOM     27  O   UNL     1     110.599 128.053 142.392  0.00  0.00    +0.000 OA
ATOM     28  C   UNL     1     111.043 127.397 141.781  0.00  0.00    +0.000 C 
ATOM     29  O   UNL     1     111.441 125.977 140.539  0.00  0.00    +0.000 OA
ATOM     30  O   UNL     1     111.678 126.423 140.879  0.00  0.00    +0.000 OA
ATOM     31  O   UNL     1     112.030 128.412 142.495  0.00  0.00    +0.000 OA
BRANCH  28  32
ATOM     32  C   UNL     1     110.301 126.835 141.414  0.00  0.00    +0.000 C 
ATOM     33  O   UNL     1     109.435 126.486 141.771  0.00  0.00    +0.000 OA
ENDBRANCH  28  32
ENDBRANCH  22  26
ENDBRANCH   8  22
BRANCH   7  34
ATOM     34  C   UNL     1     109.991 129.982 145.008  0.00  0.00    +0.000 C 
BRANCH  34  35
ATOM     35  C   UNL     1     109.014 130.054 144.802  0.00  0.00    +0.000 C 
BRANCH  35  36
ATOM     36  C   UNL     1     108.346 129.587 145.380  0.00  0.00    +0.000 C 
ATOM     37  C   UNL     1     108.593 128.737 145.844  0.00  0.00    +0.000 C 
ATOM     38  C   UNL     1     107.429 129.971 145.495  0.00  0.00    +0.000 C 
BRANCH  36  39
ATOM     39  O   UNL     1     107.677 129.120 145.959  0.00  0.00    +0.000 OA
ATOM     40  C   UNL     1     106.835 128.756 145.558  0.00  0.00    +0.000 C 
ENDBRANCH  36  39
ENDBRANCH  35  36
ENDBRANCH  34  35
ENDBRANCH   7  34
TORSDOF 9
ENDMDL
MODEL 9
REMARK VINA RESULT:      -8.8      7.729      9.570
REMARK  Name = 
REMARK  9 active torsions:
REMARK  status: ('A' for Active; 'I' for Inactive)
REMARK    1  A    between atoms: C_5  and  C_7
REMARK    2  A    between atoms: C_8  and  C_34
REMARK    3  A    between atoms: C_9  and  O_32
REMARK    4  A    between atoms: C_14  and  O_19
REMARK    5  A    between atoms: C_23  and  O_32
REMARK    6  A    between atoms: C_25  and  C_26
REMARK    7  A    between atoms: C_34  and  C_35
REMARK    8  A    between atoms: C_35  and  C_36
REMARK    9  A    between atoms: C_36  and  O_39
REMARK                            x       y       z     vdW  Elec       q    Type
REMARK                         _______ _______ _______ _____ _____    ______ ____
ROOT
ATOM      1  C   UNL     1     112.638 128.017 139.501  0.00  0.00    +0.000 A 
ATOM      2  C   UNL     1     113.464 127.553 139.820  0.00  0.00    +0.000 A 
ATOM      3  C   UNL     1     113.798 126.741 139.342  0.00  0.00    +0.000 A 
ATOM      4  C   UNL     1     113.306 126.392 138.543  0.00  0.00    +0.000 A 
ATOM      5  C   UNL     1     112.479 126.856 138.224  0.00  0.00    +0.000 A 
ATOM      6  O   UNL     1     112.145 127.669 138.703  0.00  0.00    +0.000 OA
ATOM      7  C   UNL     1     112.303 128.829 139.979  0.00  0.00    +0.000 A 
ATOM      8  C   UNL     1     112.796 129.178 140.778  0.00  0.00    +0.000 A 
ATOM      9  C   UNL     1     113.622 128.714 141.097  0.00  0.00    +0.000 A 
ATOM     10  C   UNL     1     113.956 127.901 140.618  0.00  0.00    +0.000 A 
ATOM     11  O   UNL     1     114.624 126.277 139.661  0.00  0.00    +0.000 OA
ATOM     12  O   UNL     1     114.783 127.437 140.937  0.00  0.00    +0.000 OA
ATOM     13  O   UNL     1     113.640 125.580 138.065  0.00  0.00    +0.000 OA
ENDROOT
BRANCH   5  14
ATOM     14  C   UNL     1     111.986 126.508 137.426  0.00  0.00    +0.000 A 
ATOM     15  C   UNL     1     112.157 126.904 136.523  0.00  0.00    +0.000 A 
ATOM     16  C   UNL     1     111.664 126.556 135.724  0.00  0.00    +0.000 A 
ATOM     17  C   UNL     1     111.002 125.815 135.829  0.00  0.00    +0.000 A 
ATOM     18  C   UNL     1     110.831 125.420 136.732  0.00  0.00    +0.000 A 
ATOM     19  C   UNL     1     111.324 125.767 137.530  0.00  0.00    +0.000 A 
BRANCH  17  20
ATOM     20  O   UNL     1     110.509 125.468 135.030  0.00  0.00    +0.000 OA
ATOM     21  C   UNL     1     109.659 125.905 134.738  0.00  0.00    +0.000 C 
ENDBRANCH  17  20
ENDBRANCH   5  14
BRANCH   8  22
ATOM     22  O   UNL     1     112.461 129.990 141.256  0.00  0.00    +0.000 OA
BRANCH  22  26
ATOM     23  C   UNL     1     111.924 132.134 143.903  0.00  0.00    +0.000 C 
ATOM     24  C   UNL     1     111.936 131.135 143.875  0.00  0.00    +0.000 C 
ATOM     25  C   UNL     1     112.126 130.899 142.923  0.00  0.00    +0.000 C 
ATOM     26  C   UNL     1     112.271 130.220 142.210  0.00  0.00    +0.000 C 
ATOM     27  O   UNL     1     112.259 131.220 142.238  0.00  0.00    +0.000 OA
ATOM     28  C   UNL     1     112.069 131.455 143.192  0.00  0.00    +0.000 C 
ATOM     29  O   UNL     1     111.734 132.364 144.859  0.00  0.00    +0.000 OA
ATOM     30  O   UNL     1     111.791 131.821 144.589  0.00  0.00    +0.000 OA
ATOM     31  O   UNL     1     112.139 129.899 142.894  0.00  0.00    +0.000 OA
BRANCH  28  32
ATOM     32  C   UNL     1     112.056 132.455 143.220  0.00  0.00    +0.000 C 
ATOM     33  O   UNL     1     111.692 133.174 142.628  0.00  0.00    +0.000 OA
ENDBRANCH  28  32
ENDBRANCH  22  26
ENDBRANCH   8  22
BRANCH   7  34
ATOM     34  C   UNL     1     111.477 129.293 139.659  0.00  0.00    +0.000 C 
BRANCH  34  35
ATOM     35  C   UNL     1     111.542 130.004 138.957  0.00  0.00    +0.000 C 
BRANCH  35  36
ATOM     36  C   UNL     1     110.730 130.529 138.701  0.00  0.00    +0.000 C 
ATOM     37  C   UNL     1     109.831 130.261 139.047  0.00  0.00    +0.000 C 
ATOM     38  C   UNL     1     110.818 131.324 138.099  0.00  0.00    +0.000 C 
BRANCH  36  39
ATOM     39  O   UNL     1     109.919 131.055 138.446  0.00  0.00    +0.000 OA
ATOM     40  C   UNL     1     109.939 132.055 138.478  0.00  0.00    +0.000 C 
ENDBRANCH  36  39
ENDBRANCH  35  36
ENDBRANCH  34  35
ENDBRANCH   7  34
TORSDOF 9
ENDMDL
MODEL 10
REMARK VINA RESULT:      -8.7      7.645      9.698
REMARK  Name = 
REMARK  9 active torsions:
REMARK  status: ('A' for Active; 'I' for Inactive)
REMARK    1  A    between atoms: C_5  and  C_7
REMARK    2  A    between atoms: C_8  and  C_34
REMARK    3  A    between atoms: C_9  and  O_32
REMARK    4  A    between atoms: C_14  and  O_19
REMARK    5  A    between atoms: C_23  and  O_32
REMARK    6  A    between atoms: C_25  and  C_26
REMARK    7  A    between atoms: C_34  and  C_35
REMARK    8  A    between atoms: C_35  and  C_36
REMARK    9  A    between atoms: C_36  and  O_39
REMARK                            x       y       z     vdW  Elec       q    Type
REMARK                         _______ _______ _______ _____ _____    ______ ____
ROOT
ATOM      1  C   UNL     1     111.897 127.076 137.557  0.00  0.00    +0.000 A 
ATOM      2  C   UNL     1     112.341 126.197 137.384  0.00  0.00    +0.000 A 
ATOM      3  C   UNL     1     113.196 126.161 136.866  0.00  0.00    +0.000 A 
ATOM      4  C   UNL     1     113.607 127.006 136.520  0.00  0.00    +0.000 A 
ATOM      5  C   UNL     1     113.163 127.885 136.693  0.00  0.00    +0.000 A 
ATOM      6  O   UNL     1     112.307 127.921 137.211  0.00  0.00    +0.000 OA
ATOM      7  C   UNL     1     111.042 127.112 138.075  0.00  0.00    +0.000 A 
ATOM      8  C   UNL     1     110.631 126.267 138.420  0.00  0.00    +0.000 A 
ATOM      9  C   UNL     1     111.075 125.388 138.248  0.00  0.00    +0.000 A 
ATOM     10  C   UNL     1     111.931 125.353 137.729  0.00  0.00    +0.000 A 
ATOM     11  O   UNL     1     113.640 125.282 136.694  0.00  0.00    +0.000 OA
ATOM     12  O   UNL     1     112.375 124.474 137.557  0.00  0.00    +0.000 OA
ATOM     13  O   UNL     1     114.462 126.970 136.002  0.00  0.00    +0.000 OA
ENDROOT
BRANCH   5  14
ATOM     14  C   UNL     1     113.574 128.730 136.348  0.00  0.00    +0.000 A 
ATOM     15  C   UNL     1     114.005 129.371 136.983  0.00  0.00    +0.000 A 
ATOM     16  C   UNL     1     114.415 130.215 136.638  0.00  0.00    +0.000 A 
ATOM     17  C   UNL     1     114.394 130.419 135.659  0.00  0.00    +0.000 A 
ATOM     18  C   UNL     1     113.963 129.778 135.025  0.00  0.00    +0.000 A 
ATOM     19  C   UNL     1     113.552 128.933 135.369  0.00  0.00    +0.000 A 
BRANCH  17  20
ATOM     20  O   UNL     1     114.805 131.264 135.315  0.00  0.00    +0.000 OA
ATOM     21  C   UNL     1     115.644 131.228 134.773  0.00  0.00    +0.000 C 
ENDBRANCH  17  20
ENDBRANCH   5  14
BRANCH   8  22
ATOM     22  O   UNL     1     109.776 126.304 138.938  0.00  0.00    +0.000 OA
BRANCH  22  26
ATOM     23  C   UNL     1     107.356 125.141 141.103  0.00  0.00    +0.000 C 
ATOM     24  C   UNL     1     108.352 125.150 141.194  0.00  0.00    +0.000 C 
ATOM     25  C   UNL     1     108.690 125.570 140.353  0.00  0.00    +0.000 C 
ATOM     26  C   UNL     1     109.443 125.883 139.782  0.00  0.00    +0.000 C 
ATOM     27  O   UNL     1     108.447 125.874 139.691  0.00  0.00    +0.000 OA
ATOM     28  C   UNL     1     108.109 125.453 140.534  0.00  0.00    +0.000 C 
ATOM     29  O   UNL     1     107.022 124.720 141.948  0.00  0.00    +0.000 OA
ATOM     30  O   UNL     1     107.592 124.837 141.766  0.00  0.00    +0.000 OA
ATOM     31  O   UNL     1     109.687 125.580 140.443  0.00  0.00    +0.000 OA
BRANCH  28  32
ATOM     32  C   UNL     1     107.112 125.445 140.442  0.00  0.00    +0.000 C 
ATOM     33  O   UNL     1     106.472 125.233 139.704  0.00  0.00    +0.000 OA
ENDBRANCH  28  32
ENDBRANCH  22  26
ENDBRANCH   8  22
BRANCH   7  34
ATOM     34  C   UNL     1     110.598 127.992 138.247  0.00  0.00    +0.000 C 
BRANCH  34  35
ATOM     35  C   UNL     1     109.958 128.369 137.577  0.00  0.00    +0.000 C 
BRANCH  35  36
ATOM     36  C   UNL     1     109.573 129.282 137.712  0.00  0.00    +0.000 C 
ATOM     37  C   UNL     1     109.593 129.704 138.618  0.00  0.00    +0.000 C 
ATOM     38  C   UNL     1     109.170 129.773 136.939  0.00  0.00    +0.000 C 
BRANCH  36  39
ATOM     39  O   UNL     1     109.189 130.195 137.846  0.00  0.00    +0.000 OA
ATOM     40  C   UNL     1     108.827 130.707 137.065  0.00  0.00    +0.000 C 
ENDBRANCH  36  39
ENDBRANCH  35  36
ENDBRANCH  34  35
ENDBRANCH   7  34
TORSDOF 9
ENDMDL
