MODEL 1
REMARK VINA RESULT:     -10.7      0.000      0.000
REMARK  Name = 44259203
REMARK  13 active torsions:
REMARK  status: ('A' for Active; 'I' for Inactive)
REMARK    1  A    between atoms: O_1  and  C_24
REMARK    2  A    between atoms: O_1  and  C_29
REMARK    3  A    between atoms: O_4  and  C_28
REMARK    4  A    between atoms: O_4  and  C_40
REMARK    5  A    between atoms: O_7  and  C_30
REMARK    6  A    between atoms: O_7  and  C_44
REMARK    7  A    between atoms: O_12  and  C_39
REMARK    8  A    between atoms: O_12  and  C_46
REMARK    9  A    between atoms: C_27  and  C_33
REMARK   10  A    between atoms: C_38  and  C_41
REMARK   11  A    between atoms: C_42  and  C_50
REMARK   12  A    between atoms: C_44  and  C_52
REMARK   13  A    between atoms: C_55  and  C_59
REMARK                            x       y       z     vdW  Elec       q    Type
REMARK                         _______ _______ _______ _____ _____    ______ ____
ROOT
ATOM      1  O   UNL     1     112.061 129.355 138.723  0.00  0.00    +0.000 OA
ENDROOT
BRANCH   1   5
ATOM      2  O   UNL     1     111.641 128.244 140.554  0.00  0.00    +0.000 OA
ATOM      3  O   UNL     1     110.624 128.644 138.333  0.00  0.00    +0.000 OA
ATOM      4  O   UNL     1     109.504 127.795 138.660  0.00  0.00    +0.000 OA
ATOM      5  C   UNL     1     111.681 128.866 139.268  0.00  0.00    +0.000 A 
ATOM      6  C   UNL     1     112.021 128.733 140.009  0.00  0.00    +0.000 A 
ATOM      7  C   UNL     1     110.964 128.510 139.073  0.00  0.00    +0.000 A 
ATOM      8  C   UNL     1     110.584 128.021 139.618  0.00  0.00    +0.000 A 
ATOM      9  C   UNL     1     109.789 127.007 140.737  0.00  0.00    +0.000 A 
ATOM     10  C   UNL     1     110.922 127.887 140.359  0.00  0.00    +0.000 A 
ATOM     11  C   UNL     1     110.537 127.380 140.935  0.00  0.00    +0.000 A 
ATOM     12  C   UNL     1     109.836 127.656 139.403  0.00  0.00    +0.000 A 
ATOM     13  C   UNL     1     109.435 127.145 139.966  0.00  0.00    +0.000 A 
BRANCH   6  16
ATOM     14  O   UNL     1     113.475 130.834 141.289  0.00  0.00    +0.000 OA
ATOM     15  O   UNL     1     114.894 130.156 140.790  0.00  0.00    +0.000 OA
ATOM     16  C   UNL     1     112.738 129.088 140.204  0.00  0.00    +0.000 A 
ATOM     17  C   UNL     1     112.748 129.784 140.649  0.00  0.00    +0.000 A 
ATOM     18  C   UNL     1     113.448 128.749 139.955  0.00  0.00    +0.000 A 
ATOM     19  C   UNL     1     113.465 130.139 140.844  0.00  0.00    +0.000 A 
ATOM     20  C   UNL     1     114.167 129.105 140.150  0.00  0.00    +0.000 A 
ATOM     21  C   UNL     1     114.175 129.800 140.595  0.00  0.00    +0.000 A 
ENDBRANCH   6  16
BRANCH   9  22
ATOM     22  O   UNL     1     109.412 126.518 141.285  0.00  0.00    +0.000 OA
BRANCH  22  31
ATOM     23  O   UNL     1     108.786 127.520 142.090  0.00  0.00    +0.000 OA
ATOM     24  O   UNL     1     106.716 126.164 142.167  0.00  0.00    +0.000 OA
ATOM     25  O   UNL     1     106.780 127.617 142.946  0.00  0.00    +0.000 OA
ATOM     26  O   UNL     1     108.032 125.615 141.336  0.00  0.00    +0.000 OA
ATOM     27  C   UNL     1     107.406 126.616 142.141  0.00  0.00    +0.000 C 
ATOM     28  C   UNL     1     107.438 127.342 142.531  0.00  0.00    +0.000 C 
ATOM     29  C   UNL     1     108.064 126.341 141.726  0.00  0.00    +0.000 C 
ATOM     30  C   UNL     1     108.128 127.794 142.505  0.00  0.00    +0.000 C 
ATOM     31  C   UNL     1     108.754 126.793 141.700  0.00  0.00    +0.000 C 
BRANCH  30  33
ATOM     32  O   UNL     1     108.750 128.663 143.455  0.00  0.00    +0.000 OA
ATOM     33  C   UNL     1     108.160 128.521 142.895  0.00  0.00    +0.000 C 
ENDBRANCH  30  33
ENDBRANCH  22  31
ENDBRANCH   9  22
ENDBRANCH   1   5
BRANCH   1  41
ATOM     34  O   UNL     1     111.165 130.461 138.856  0.00  0.00    +0.000 OA
ATOM     35  O   UNL     1     111.425 130.961 136.446  0.00  0.00    +0.000 OA
ATOM     36  O   UNL     1     110.442 131.899 137.382  0.00  0.00    +0.000 OA
ATOM     37  C   UNL     1     111.743 130.158 137.584  0.00  0.00    +0.000 C 
ATOM     38  C   UNL     1     111.339 130.794 137.249  0.00  0.00    +0.000 C 
ATOM     39  C   UNL     1     110.847 131.263 137.717  0.00  0.00    +0.000 C 
ATOM     40  C   UNL     1     110.761 131.096 138.520  0.00  0.00    +0.000 C 
ATOM     41  C   UNL     1     111.657 129.991 138.387  0.00  0.00    +0.000 C 
BRANCH  40  43
ATOM     42  O   UNL     1     110.577 131.956 139.646  0.00  0.00    +0.000 OA
ATOM     43  C   UNL     1     110.269 131.566 138.988  0.00  0.00    +0.000 C 
ENDBRANCH  40  43
BRANCH  37  44
ATOM     44  O   UNL     1     112.235 129.689 137.117  0.00  0.00    +0.000 OA
BRANCH  44  48
ATOM     45  O   UNL     1     113.289 130.646 137.235  0.00  0.00    +0.000 OA
ATOM     46  O   UNL     1     114.556 129.472 135.464  0.00  0.00    +0.000 OA
ATOM     47  O   UNL     1     115.187 130.821 136.174  0.00  0.00    +0.000 OA
ATOM     48  C   UNL     1     112.973 129.972 136.881  0.00  0.00    +0.000 C 
ATOM     49  C   UNL     1     113.396 129.580 136.290  0.00  0.00    +0.000 C 
ATOM     50  C   UNL     1     114.134 129.863 136.054  0.00  0.00    +0.000 C 
ATOM     51  C   UNL     1     114.449 130.538 136.409  0.00  0.00    +0.000 C 
ATOM     52  C   UNL     1     114.027 130.929 136.999  0.00  0.00    +0.000 C 
BRANCH  49  53
ATOM     53  O   UNL     1     113.080 128.905 135.936  0.00  0.00    +0.000 OA
BRANCH  53  55
ATOM     54  O   UNL     1     114.182 127.997 135.864  0.00  0.00    +0.000 OA
ATOM     55  C   UNL     1     113.408 128.164 136.095  0.00  0.00    +0.000 C 
BRANCH  55  56
ATOM     56  C   UNL     1     112.960 127.592 136.485  0.00  0.00    +0.000 C 
ATOM     57  C   UNL     1     113.209 126.804 136.486  0.00  0.00    +0.000 C 
BRANCH  57  59
ATOM     58  O   UNL     1     111.422 124.512 138.048  0.00  0.00    +0.000 OA
ATOM     59  C   UNL     1     112.762 126.231 136.876  0.00  0.00    +0.000 A 
ATOM     60  C   UNL     1     112.051 125.970 136.550  0.00  0.00    +0.000 A 
ATOM     61  C   UNL     1     113.027 125.919 137.593  0.00  0.00    +0.000 A 
ATOM     62  C   UNL     1     111.604 125.397 136.941  0.00  0.00    +0.000 A 
ATOM     63  C   UNL     1     112.580 125.346 137.983  0.00  0.00    +0.000 A 
ATOM     64  C   UNL     1     111.868 125.085 137.657  0.00  0.00    +0.000 A 
ENDBRANCH  57  59
ENDBRANCH  55  56
ENDBRANCH  53  55
ENDBRANCH  49  53
ENDBRANCH  44  48
ENDBRANCH  37  44
ENDBRANCH   1  41
TORSDOF 13
ENDMDL
MODEL 2
REMARK VINA RESULT:     -10.7      2.377      4.815
REMARK  Name = 44259203
REMARK  13 active torsions:
REMARK  status: ('A' for Active; 'I' for Inactive)
REMARK    1  A    between atoms: O_1  and  C_24
REMARK    2  A    between atoms: O_1  and  C_29
REMARK    3  A    between atoms: O_4  and  C_28
REMARK    4  A    between atoms: O_4  and  C_40
REMARK    5  A    between atoms: O_7  and  C_30
REMARK    6  A    between atoms: O_7  and  C_44
REMARK    7  A    between atoms: O_12  and  C_39
REMARK    8  A    between atoms: O_12  and  C_46
REMARK    9  A    between atoms: C_27  and  C_33
REMARK   10  A    between atoms: C_38  and  C_41
REMARK   11  A    between atoms: C_42  and  C_50
REMARK   12  A    between atoms: C_44  and  C_52
REMARK   13  A    between atoms: C_55  and  C_59
REMARK                            x       y       z     vdW  Elec       q    Type
REMARK                         _______ _______ _______ _____ _____    ______ ____
ROOT
ATOM      1  O   UNL     1     111.110 129.854 138.190  0.00  0.00    +0.000 OA
ENDROOT
BRANCH   1   5
ATOM      2  O   UNL     1     112.778 128.461 137.980  0.00  0.00    +0.000 OA
ATOM      3  O   UNL     1     110.479 128.503 138.897  0.00  0.00    +0.000 OA
ATOM      4  O   UNL     1     110.589 127.126 139.313  0.00  0.00    +0.000 OA
ATOM      5  C   UNL     1     111.561 129.164 138.238  0.00  0.00    +0.000 A 
ATOM      6  C   UNL     1     112.327 129.151 137.932  0.00  0.00    +0.000 A 
ATOM      7  C   UNL     1     111.246 128.490 138.591  0.00  0.00    +0.000 A 
ATOM      8  C   UNL     1     111.696 127.800 138.639  0.00  0.00    +0.000 A 
ATOM      9  C   UNL     1     112.619 126.368 138.745  0.00  0.00    +0.000 A 
ATOM     10  C   UNL     1     112.462 127.786 138.334  0.00  0.00    +0.000 A 
ATOM     11  C   UNL     1     112.942 127.074 138.378  0.00  0.00    +0.000 A 
ATOM     12  C   UNL     1     111.356 127.104 139.010  0.00  0.00    +0.000 A 
ATOM     13  C   UNL     1     111.821 126.382 139.064  0.00  0.00    +0.000 A 
BRANCH   6  16
ATOM     14  O   UNL     1     113.974 131.482 138.078  0.00  0.00    +0.000 OA
ATOM     15  O   UNL     1     113.590 131.851 136.517  0.00  0.00    +0.000 OA
ATOM     16  C   UNL     1     112.643 129.825 137.579  0.00  0.00    +0.000 A 
ATOM     17  C   UNL     1     113.151 130.316 138.005  0.00  0.00    +0.000 A 
ATOM     18  C   UNL     1     112.451 130.010 136.798  0.00  0.00    +0.000 A 
ATOM     19  C   UNL     1     113.466 130.991 137.652  0.00  0.00    +0.000 A 
ATOM     20  C   UNL     1     112.767 130.686 136.444  0.00  0.00    +0.000 A 
ATOM     21  C   UNL     1     113.274 131.176 136.871  0.00  0.00    +0.000 A 
ENDBRANCH   6  16
BRANCH   9  22
ATOM     22  O   UNL     1     113.072 125.680 138.792  0.00  0.00    +0.000 OA
BRANCH  22  31
ATOM     23  O   UNL     1     112.622 124.908 137.676  0.00  0.00    +0.000 OA
ATOM     24  O   UNL     1     114.965 124.626 136.929  0.00  0.00    +0.000 OA
ATOM     25  O   UNL     1     113.736 123.948 136.062  0.00  0.00    +0.000 OA
ATOM     26  O   UNL     1     114.633 125.492 138.293  0.00  0.00    +0.000 OA
ATOM     27  C   UNL     1     114.184 124.720 137.178  0.00  0.00    +0.000 C 
ATOM     28  C   UNL     1     113.570 124.381 136.744  0.00  0.00    +0.000 C 
ATOM     29  C   UNL     1     114.018 125.153 137.860  0.00  0.00    +0.000 C 
ATOM     30  C   UNL     1     112.789 124.475 136.993  0.00  0.00    +0.000 C 
ATOM     31  C   UNL     1     113.237 125.247 138.109  0.00  0.00    +0.000 C 
BRANCH  30  33
ATOM     32  O   UNL     1     111.571 123.726 136.950  0.00  0.00    +0.000 OA
ATOM     33  C   UNL     1     112.174 124.136 136.560  0.00  0.00    +0.000 C 
ENDBRANCH  30  33
ENDBRANCH  22  31
ENDBRANCH   9  22
ENDBRANCH   1   5
BRANCH   1  41
ATOM     34  O   UNL     1     111.245 130.216 139.565  0.00  0.00    +0.000 OA
ATOM     35  O   UNL     1     108.950 131.142 139.545  0.00  0.00    +0.000 OA
ATOM     36  O   UNL     1     109.849 131.196 140.928  0.00  0.00    +0.000 OA
ATOM     37  C   UNL     1     110.029 130.498 138.867  0.00  0.00    +0.000 C 
ATOM     38  C   UNL     1     109.715 130.833 139.552  0.00  0.00    +0.000 C 
ATOM     39  C   UNL     1     110.164 130.860 140.243  0.00  0.00    +0.000 C 
ATOM     40  C   UNL     1     110.929 130.551 140.250  0.00  0.00    +0.000 C 
ATOM     41  C   UNL     1     110.795 130.189 138.874  0.00  0.00    +0.000 C 
BRANCH  40  43
ATOM     42  O   UNL     1     112.102 130.974 140.947  0.00  0.00    +0.000 OA
ATOM     43  C   UNL     1     111.379 130.578 140.941  0.00  0.00    +0.000 C 
ENDBRANCH  40  43
BRANCH  37  44
ATOM     44  O   UNL     1     109.580 130.471 138.176  0.00  0.00    +0.000 OA
BRANCH  44  48
ATOM     45  O   UNL     1     109.985 131.802 137.849  0.00  0.00    +0.000 OA
ATOM     46  O   UNL     1     108.343 131.847 135.999  0.00  0.00    +0.000 OA
ATOM     47  O   UNL     1     109.295 133.163 136.289  0.00  0.00    +0.000 OA
ATOM     48  C   UNL     1     109.509 131.144 137.704  0.00  0.00    +0.000 C 
ATOM     49  C   UNL     1     108.961 131.159 137.087  0.00  0.00    +0.000 C 
ATOM     50  C   UNL     1     108.890 131.832 136.615  0.00  0.00    +0.000 C 
ATOM     51  C   UNL     1     109.367 132.490 136.761  0.00  0.00    +0.000 C 
ATOM     52  C   UNL     1     109.914 132.475 137.377  0.00  0.00    +0.000 C 
BRANCH  49  53
ATOM     53  O   UNL     1     108.485 130.501 136.943  0.00  0.00    +0.000 OA
BRANCH  53  55
ATOM     54  O   UNL     1     107.926 130.422 135.629  0.00  0.00    +0.000 OA
ATOM     55  C   UNL     1     108.471 130.160 136.191  0.00  0.00    +0.000 C 
BRANCH  55  56
ATOM     56  C   UNL     1     109.001 129.557 136.002  0.00  0.00    +0.000 C 
ATOM     57  C   UNL     1     108.725 128.857 135.662  0.00  0.00    +0.000 C 
BRANCH  57  59
ATOM     58  O   UNL     1     110.848 126.447 134.904  0.00  0.00    +0.000 OA
ATOM     59  C   UNL     1     109.255 128.254 135.473  0.00  0.00    +0.000 A 
ATOM     60  C   UNL     1     109.174 127.509 135.819  0.00  0.00    +0.000 A 
ATOM     61  C   UNL     1     109.867 128.397 134.938  0.00  0.00    +0.000 A 
ATOM     62  C   UNL     1     109.705 126.907 135.629  0.00  0.00    +0.000 A 
ATOM     63  C   UNL     1     110.398 127.794 134.749  0.00  0.00    +0.000 A 
ATOM     64  C   UNL     1     110.317 127.049 135.094  0.00  0.00    +0.000 A 
ENDBRANCH  57  59
ENDBRANCH  55  56
ENDBRANCH  53  55
ENDBRANCH  49  53
ENDBRANCH  44  48
ENDBRANCH  37  44
ENDBRANCH   1  41
TORSDOF 13
ENDMDL
MODEL 3
REMARK VINA RESULT:     -10.5      2.180      4.202
REMARK  Name = 44259203
REMARK  13 active torsions:
REMARK  status: ('A' for Active; 'I' for Inactive)
REMARK    1  A    between atoms: O_1  and  C_24
REMARK    2  A    between atoms: O_1  and  C_29
REMARK    3  A    between atoms: O_4  and  C_28
REMARK    4  A    between atoms: O_4  and  C_40
REMARK    5  A    between atoms: O_7  and  C_30
REMARK    6  A    between atoms: O_7  and  C_44
REMARK    7  A    between atoms: O_12  and  C_39
REMARK    8  A    between atoms: O_12  and  C_46
REMARK    9  A    between atoms: C_27  and  C_33
REMARK   10  A    between atoms: C_38  and  C_41
REMARK   11  A    between atoms: C_42  and  C_50
REMARK   12  A    between atoms: C_44  and  C_52
REMARK   13  A    between atoms: C_55  and  C_59
REMARK                            x       y       z     vdW  Elec       q    Type
REMARK                         _______ _______ _______ _____ _____    ______ ____
ROOT
ATOM      1  O   UNL     1     110.220 129.235 137.613  0.00  0.00    +0.000 OA
ENDROOT
BRANCH   1   5
ATOM      2  O   UNL     1     111.224 130.296 139.234  0.00  0.00    +0.000 OA
ATOM      3  O   UNL     1     108.949 129.541 138.619  0.00  0.00    +0.000 OA
ATOM      4  O   UNL     1     108.405 130.095 139.836  0.00  0.00    +0.000 OA
ATOM      5  C   UNL     1     110.343 129.640 138.321  0.00  0.00    +0.000 A 
ATOM      6  C   UNL     1     111.101 129.891 138.525  0.00  0.00    +0.000 A 
ATOM      7  C   UNL     1     109.707 129.793 138.824  0.00  0.00    +0.000 A 
ATOM      8  C   UNL     1     109.830 130.197 139.532  0.00  0.00    +0.000 A 
ATOM      9  C   UNL     1     110.072 131.033 141.001  0.00  0.00    +0.000 A 
ATOM     10  C   UNL     1     110.589 130.449 139.738  0.00  0.00    +0.000 A 
ATOM     11  C   UNL     1     110.730 130.871 140.472  0.00  0.00    +0.000 A 
ATOM     12  C   UNL     1     109.160 130.350 140.048  0.00  0.00    +0.000 A 
ATOM     13  C   UNL     1     109.282 130.772 140.788  0.00  0.00    +0.000 A 
BRANCH   6  16
ATOM     14  O   UNL     1     113.122 128.117 137.559  0.00  0.00    +0.000 OA
ATOM     15  O   UNL     1     113.644 129.281 136.512  0.00  0.00    +0.000 OA
ATOM     16  C   UNL     1     111.737 129.739 138.023  0.00  0.00    +0.000 A 
ATOM     17  C   UNL     1     112.112 129.004 138.042  0.00  0.00    +0.000 A 
ATOM     18  C   UNL     1     111.997 130.321 137.499  0.00  0.00    +0.000 A 
ATOM     19  C   UNL     1     112.747 128.851 137.539  0.00  0.00    +0.000 A 
ATOM     20  C   UNL     1     112.633 130.168 136.995  0.00  0.00    +0.000 A 
ATOM     21  C   UNL     1     113.008 129.433 137.016  0.00  0.00    +0.000 A 
ENDBRANCH   6  16
BRANCH   9  22
ATOM     22  O   UNL     1     110.198 131.438 141.709  0.00  0.00    +0.000 OA
BRANCH  22  31
ATOM     23  O   UNL     1     110.415 130.314 142.565  0.00  0.00    +0.000 OA
ATOM     24  O   UNL     1     112.266 131.522 143.680  0.00  0.00    +0.000 OA
ATOM     25  O   UNL     1     111.865 129.996 144.165  0.00  0.00    +0.000 OA
ATOM     26  O   UNL     1     111.432 132.242 142.452  0.00  0.00    +0.000 OA
ATOM     27  C   UNL     1     111.649 131.119 143.308  0.00  0.00    +0.000 C 
ATOM     28  C   UNL     1     111.449 130.356 143.551  0.00  0.00    +0.000 C 
ATOM     29  C   UNL     1     111.232 131.479 142.694  0.00  0.00    +0.000 C 
ATOM     30  C   UNL     1     110.831 129.954 143.179  0.00  0.00    +0.000 C 
ATOM     31  C   UNL     1     110.615 131.077 142.323  0.00  0.00    +0.000 C 
BRANCH  30  33
ATOM     32  O   UNL     1     109.884 129.043 143.741  0.00  0.00    +0.000 OA
ATOM     33  C   UNL     1     110.631 129.191 143.422  0.00  0.00    +0.000 C 
ENDBRANCH  30  33
ENDBRANCH  22  31
ENDBRANCH   9  22
ENDBRANCH   1   5
BRANCH   1  41
ATOM     34  O   UNL     1     109.566 130.314 136.940  0.00  0.00    +0.000 OA
ATOM     35  O   UNL     1     108.128 128.695 135.742  0.00  0.00    +0.000 OA
ATOM     36  O   UNL     1     107.954 130.313 135.468  0.00  0.00    +0.000 OA
ATOM     37  C   UNL     1     109.174 128.965 136.677  0.00  0.00    +0.000 C 
ATOM     38  C   UNL     1     108.607 129.235 136.141  0.00  0.00    +0.000 C 
ATOM     39  C   UNL     1     108.520 130.043 136.004  0.00  0.00    +0.000 C 
ATOM     40  C   UNL     1     109.000 130.582 136.404  0.00  0.00    +0.000 C 
ATOM     41  C   UNL     1     109.653 129.504 137.077  0.00  0.00    +0.000 C 
BRANCH  40  43
ATOM     42  O   UNL     1     109.546 131.830 135.970  0.00  0.00    +0.000 OA
ATOM     43  C   UNL     1     108.913 131.392 136.267  0.00  0.00    +0.000 C 
ENDBRANCH  40  43
BRANCH  37  44
ATOM     44  O   UNL     1     109.261 128.156 136.814  0.00  0.00    +0.000 OA
BRANCH  44  48
ATOM     45  O   UNL     1     110.046 128.034 135.626  0.00  0.00    +0.000 OA
ATOM     46  O   UNL     1     110.063 125.574 135.889  0.00  0.00    +0.000 OA
ATOM     47  O   UNL     1     110.842 126.272 134.614  0.00  0.00    +0.000 OA
ATOM     48  C   UNL     1     109.656 127.685 136.264  0.00  0.00    +0.000 C 
ATOM     49  C   UNL     1     109.662 126.864 136.351  0.00  0.00    +0.000 C 
ATOM     50  C   UNL     1     110.057 126.393 135.801  0.00  0.00    +0.000 C 
ATOM     51  C   UNL     1     110.447 126.743 135.164  0.00  0.00    +0.000 C 
ATOM     52  C   UNL     1     110.441 127.563 135.076  0.00  0.00    +0.000 C 
BRANCH  49  53
ATOM     53  O   UNL     1     109.272 126.516 136.989  0.00  0.00    +0.000 OA
BRANCH  53  55
ATOM     54  O   UNL     1     110.440 125.890 137.527  0.00  0.00    +0.000 OA
ATOM     55  C   UNL     1     109.705 126.247 137.640  0.00  0.00    +0.000 C 
BRANCH  55  56
ATOM     56  C   UNL     1     109.401 126.336 138.401  0.00  0.00    +0.000 C 
ATOM     57  C   UNL     1     109.837 126.076 139.052  0.00  0.00    +0.000 C 
BRANCH  57  59
ATOM     58  O   UNL     1     108.623 126.434 142.100  0.00  0.00    +0.000 OA
ATOM     59  C   UNL     1     109.533 126.165 139.814  0.00  0.00    +0.000 A 
ATOM     60  C   UNL     1     108.832 125.786 140.025  0.00  0.00    +0.000 A 
ATOM     61  C   UNL     1     109.932 126.634 140.364  0.00  0.00    +0.000 A 
ATOM     62  C   UNL     1     108.529 125.875 140.788  0.00  0.00    +0.000 A 
ATOM     63  C   UNL     1     109.628 126.723 141.126  0.00  0.00    +0.000 A 
ATOM     64  C   UNL     1     108.926 126.344 141.338  0.00  0.00    +0.000 A 
ENDBRANCH  57  59
ENDBRANCH  55  56
ENDBRANCH  53  55
ENDBRANCH  49  53
ENDBRANCH  44  48
ENDBRANCH  37  44
ENDBRANCH   1  41
TORSDOF 13
ENDMDL
MODEL 4
REMARK VINA RESULT:     -10.3      1.482      3.562
REMARK  Name = 44259203
REMARK  13 active torsions:
REMARK  status: ('A' for Active; 'I' for Inactive)
REMARK    1  A    between atoms: O_1  and  C_24
REMARK    2  A    between atoms: O_1  and  C_29
REMARK    3  A    between atoms: O_4  and  C_28
REMARK    4  A    between atoms: O_4  and  C_40
REMARK    5  A    between atoms: O_7  and  C_30
REMARK    6  A    between atoms: O_7  and  C_44
REMARK    7  A    between atoms: O_12  and  C_39
REMARK    8  A    between atoms: O_12  and  C_46
REMARK    9  A    between atoms: C_27  and  C_33
REMARK   10  A    between atoms: C_38  and  C_41
REMARK   11  A    between atoms: C_42  and  C_50
REMARK   12  A    between atoms: C_44  and  C_52
REMARK   13  A    between atoms: C_55  and  C_59
REMARK                            x       y       z     vdW  Elec       q    Type
REMARK                         _______ _______ _______ _____ _____    ______ ____
ROOT
ATOM      1  O   UNL     1     111.151 127.549 137.945  0.00  0.00    +0.000 OA
ENDROOT
BRANCH   1   5
ATOM      2  O   UNL     1     110.598 126.144 139.522  0.00  0.00    +0.000 OA
ATOM      3  O   UNL     1     110.071 128.454 138.804  0.00  0.00    +0.000 OA
ATOM      4  O   UNL     1     109.152 128.617 139.905  0.00  0.00    +0.000 OA
ATOM      5  C   UNL     1     110.786 127.232 138.614  0.00  0.00    +0.000 A 
ATOM      6  C   UNL     1     110.962 126.462 138.853  0.00  0.00    +0.000 A 
ATOM      7  C   UNL     1     110.247 127.684 139.043  0.00  0.00    +0.000 A 
ATOM      8  C   UNL     1     109.883 127.367 139.712  0.00  0.00    +0.000 A 
ATOM      9  C   UNL     1     109.122 126.721 141.097  0.00  0.00    +0.000 A 
ATOM     10  C   UNL     1     110.058 126.597 139.951  0.00  0.00    +0.000 A 
ATOM     11  C   UNL     1     109.685 126.255 140.646  0.00  0.00    +0.000 A 
ATOM     12  C   UNL     1     109.322 127.848 140.151  0.00  0.00    +0.000 A 
ATOM     13  C   UNL     1     108.939 127.523 140.849  0.00  0.00    +0.000 A 
BRANCH   6  16
ATOM     14  O   UNL     1     111.502 124.438 136.908  0.00  0.00    +0.000 OA
ATOM     15  O   UNL     1     113.122 124.651 137.136  0.00  0.00    +0.000 OA
ATOM     16  C   UNL     1     111.502 126.009 138.424  0.00  0.00    +0.000 A 
ATOM     17  C   UNL     1     111.232 125.450 137.880  0.00  0.00    +0.000 A 
ATOM     18  C   UNL     1     112.312 126.116 138.538  0.00  0.00    +0.000 A 
ATOM     19  C   UNL     1     111.772 124.998 137.451  0.00  0.00    +0.000 A 
ATOM     20  C   UNL     1     112.853 125.663 138.108  0.00  0.00    +0.000 A 
ATOM     21  C   UNL     1     112.582 125.104 137.565  0.00  0.00    +0.000 A 
ENDBRANCH   6  16
BRANCH   9  22
ATOM     22  O   UNL     1     108.760 126.401 141.765  0.00  0.00    +0.000 OA
BRANCH  22  31
ATOM     23  O   UNL     1     107.714 125.673 141.117  0.00  0.00    +0.000 OA
ATOM     24  O   UNL     1     106.121 126.409 142.863  0.00  0.00    +0.000 OA
ATOM     25  O   UNL     1     105.606 125.436 141.634  0.00  0.00    +0.000 OA
ATOM     26  O   UNL     1     107.697 126.892 142.928  0.00  0.00    +0.000 OA
ATOM     27  C   UNL     1     106.652 126.164 142.281  0.00  0.00    +0.000 C 
ATOM     28  C   UNL     1     106.394 125.677 141.667  0.00  0.00    +0.000 C 
ATOM     29  C   UNL     1     107.440 126.405 142.314  0.00  0.00    +0.000 C 
ATOM     30  C   UNL     1     106.925 125.432 141.085  0.00  0.00    +0.000 C 
ATOM     31  C   UNL     1     107.971 126.160 141.732  0.00  0.00    +0.000 C 
BRANCH  30  33
ATOM     32  O   UNL     1     106.660 125.229 139.695  0.00  0.00    +0.000 OA
ATOM     33  C   UNL     1     106.668 124.945 140.470  0.00  0.00    +0.000 C 
ENDBRANCH  30  33
ENDBRANCH  22  31
ENDBRANCH   9  22
ENDBRANCH   1   5
BRANCH   1  41
ATOM     34  O   UNL     1     110.013 127.479 137.084  0.00  0.00    +0.000 OA
ATOM     35  O   UNL     1     110.678 129.618 136.031  0.00  0.00    +0.000 OA
ATOM     36  O   UNL     1     109.318 128.835 135.521  0.00  0.00    +0.000 OA
ATOM     37  C   UNL     1     110.915 128.584 136.988  0.00  0.00    +0.000 C 
ATOM     38  C   UNL     1     110.456 128.905 136.382  0.00  0.00    +0.000 C 
ATOM     39  C   UNL     1     109.777 128.514 136.127  0.00  0.00    +0.000 C 
ATOM     40  C   UNL     1     109.555 127.801 136.478  0.00  0.00    +0.000 C 
ATOM     41  C   UNL     1     110.693 127.871 137.339  0.00  0.00    +0.000 C 
BRANCH  40  43
ATOM     42  O   UNL     1     108.933 126.657 135.889  0.00  0.00    +0.000 OA
ATOM     43  C   UNL     1     108.875 127.409 136.223  0.00  0.00    +0.000 C 
ENDBRANCH  40  43
BRANCH  37  44
ATOM     44  O   UNL     1     111.594 128.975 137.243  0.00  0.00    +0.000 OA
BRANCH  44  48
ATOM     45  O   UNL     1     112.352 128.393 136.180  0.00  0.00    +0.000 OA
ATOM     46  O   UNL     1     114.206 129.965 136.640  0.00  0.00    +0.000 OA
ATOM     47  O   UNL     1     114.345 128.859 135.424  0.00  0.00    +0.000 OA
ATOM     48  C   UNL     1     112.282 128.946 136.788  0.00  0.00    +0.000 C 
ATOM     49  C   UNL     1     112.901 129.470 136.942  0.00  0.00    +0.000 C 
ATOM     50  C   UNL     1     113.589 129.441 136.487  0.00  0.00    +0.000 C 
ATOM     51  C   UNL     1     113.657 128.888 135.879  0.00  0.00    +0.000 C 
ATOM     52  C   UNL     1     113.040 128.364 135.725  0.00  0.00    +0.000 C 
BRANCH  49  53
ATOM     53  O   UNL     1     112.831 130.023 137.550  0.00  0.00    +0.000 OA
BRANCH  53  55
ATOM     54  O   UNL     1     114.101 130.293 138.148  0.00  0.00    +0.000 OA
ATOM     55  C   UNL     1     113.338 129.986 138.201  0.00  0.00    +0.000 C 
BRANCH  55  56
ATOM     56  C   UNL     1     113.079 129.641 138.904  0.00  0.00    +0.000 C 
ATOM     57  C   UNL     1     113.342 129.937 139.629  0.00  0.00    +0.000 C 
BRANCH  57  59
ATOM     58  O   UNL     1     112.307 128.560 142.444  0.00  0.00    +0.000 OA
ATOM     59  C   UNL     1     113.084 129.592 140.332  0.00  0.00    +0.000 A 
ATOM     60  C   UNL     1     113.398 128.870 140.579  0.00  0.00    +0.000 A 
ATOM     61  C   UNL     1     112.510 129.970 140.790  0.00  0.00    +0.000 A 
ATOM     62  C   UNL     1     113.139 128.527 141.283  0.00  0.00    +0.000 A 
ATOM     63  C   UNL     1     112.251 129.625 141.494  0.00  0.00    +0.000 A 
ATOM     64  C   UNL     1     112.566 128.904 141.740  0.00  0.00    +0.000 A 
ENDBRANCH  57  59
ENDBRANCH  55  56
ENDBRANCH  53  55
ENDBRANCH  49  53
ENDBRANCH  44  48
ENDBRANCH  37  44
ENDBRANCH   1  41
TORSDOF 13
ENDMDL
MODEL 5
REMARK VINA RESULT:     -10.2      2.569      5.253
REMARK  Name = 44259203
REMARK  13 active torsions:
REMARK  status: ('A' for Active; 'I' for Inactive)
REMARK    1  A    between atoms: O_1  and  C_24
REMARK    2  A    between atoms: O_1  and  C_29
REMARK    3  A    between atoms: O_4  and  C_28
REMARK    4  A    between atoms: O_4  and  C_40
REMARK    5  A    between atoms: O_7  and  C_30
REMARK    6  A    between atoms: O_7  and  C_44
REMARK    7  A    between atoms: O_12  and  C_39
REMARK    8  A    between atoms: O_12  and  C_46
REMARK    9  A    between atoms: C_27  and  C_33
REMARK   10  A    between atoms: C_38  and  C_41
REMARK   11  A    between atoms: C_42  and  C_50
REMARK   12  A    between atoms: C_44  and  C_52
REMARK   13  A    between atoms: C_55  and  C_59
REMARK                            x       y       z     vdW  Elec       q    Type
REMARK                         _______ _______ _______ _____ _____    ______ ____
ROOT
ATOM      1  O   UNL     1     112.560 128.093 137.628  0.00  0.00    +0.000 OA
ENDROOT
BRANCH   1   5
ATOM      2  O   UNL     1     111.924 130.004 136.787  0.00  0.00    +0.000 OA
ATOM      3  O   UNL     1     111.237 128.418 138.559  0.00  0.00    +0.000 OA
ATOM      4  O   UNL     1     110.125 129.261 138.923  0.00  0.00    +0.000 OA
ATOM      5  C   UNL     1     112.127 128.784 137.503  0.00  0.00    +0.000 A 
ATOM      6  C   UNL     1     112.357 129.312 136.912  0.00  0.00    +0.000 A 
ATOM      7  C   UNL     1     111.467 128.946 137.968  0.00  0.00    +0.000 A 
ATOM      8  C   UNL     1     111.034 129.637 137.843  0.00  0.00    +0.000 A 
ATOM      9  C   UNL     1     110.130 131.064 137.593  0.00  0.00    +0.000 A 
ATOM     10  C   UNL     1     111.262 130.166 137.253  0.00  0.00    +0.000 A 
ATOM     11  C   UNL     1     110.820 130.889 137.112  0.00  0.00    +0.000 A 
ATOM     12  C   UNL     1     110.347 129.795 138.335  0.00  0.00    +0.000 A 
ATOM     13  C   UNL     1     109.891 130.514 138.209  0.00  0.00    +0.000 A 
BRANCH   6  16
ATOM     14  O   UNL     1     115.093 129.797 136.244  0.00  0.00    +0.000 OA
ATOM     15  O   UNL     1     115.002 128.663 135.049  0.00  0.00    +0.000 OA
ATOM     16  C   UNL     1     113.018 129.150 136.447  0.00  0.00    +0.000 A 
ATOM     17  C   UNL     1     113.725 129.555 136.578  0.00  0.00    +0.000 A 
ATOM     18  C   UNL     1     112.972 128.583 135.849  0.00  0.00    +0.000 A 
ATOM     19  C   UNL     1     114.386 129.392 136.113  0.00  0.00    +0.000 A 
ATOM     20  C   UNL     1     113.634 128.420 135.383  0.00  0.00    +0.000 A 
ATOM     21  C   UNL     1     114.340 128.825 135.515  0.00  0.00    +0.000 A 
ENDBRANCH   6  16
BRANCH   9  22
ATOM     22  O   UNL     1     109.699 131.756 137.466  0.00  0.00    +0.000 OA
BRANCH  22  31
ATOM     23  O   UNL     1     108.670 131.376 136.549  0.00  0.00    +0.000 OA
ATOM     24  O   UNL     1     109.363 133.194 135.019  0.00  0.00    +0.000 OA
ATOM     25  O   UNL     1     108.103 132.208 134.613  0.00  0.00    +0.000 OA
ATOM     26  O   UNL     1     110.161 132.967 136.446  0.00  0.00    +0.000 OA
ATOM     27  C   UNL     1     109.132 132.588 135.529  0.00  0.00    +0.000 C 
ATOM     28  C   UNL     1     108.502 132.095 135.326  0.00  0.00    +0.000 C 
ATOM     29  C   UNL     1     109.531 132.474 136.242  0.00  0.00    +0.000 C 
ATOM     30  C   UNL     1     108.271 131.489 135.836  0.00  0.00    +0.000 C 
ATOM     31  C   UNL     1     109.300 131.869 136.753  0.00  0.00    +0.000 C 
BRANCH  30  33
ATOM     32  O   UNL     1     107.003 130.909 136.150  0.00  0.00    +0.000 OA
ATOM     33  C   UNL     1     107.641 130.997 135.633  0.00  0.00    +0.000 C 
ENDBRANCH  30  33
ENDBRANCH  22  31
ENDBRANCH   9  22
ENDBRANCH   1   5
BRANCH   1  41
ATOM     34  O   UNL     1     113.186 128.540 138.833  0.00  0.00    +0.000 OA
ATOM     35  O   UNL     1     113.171 126.222 139.700  0.00  0.00    +0.000 OA
ATOM     36  O   UNL     1     113.802 127.441 140.616  0.00  0.00    +0.000 OA
ATOM     37  C   UNL     1     112.865 127.157 138.664  0.00  0.00    +0.000 C 
ATOM     38  C   UNL     1     113.176 126.995 139.411  0.00  0.00    +0.000 C 
ATOM     39  C   UNL     1     113.491 127.604 139.869  0.00  0.00    +0.000 C 
ATOM     40  C   UNL     1     113.496 128.376 139.579  0.00  0.00    +0.000 C 
ATOM     41  C   UNL     1     112.870 127.930 138.375  0.00  0.00    +0.000 C 
BRANCH  40  43
ATOM     42  O   UNL     1     113.317 129.575 140.336  0.00  0.00    +0.000 OA
ATOM     43  C   UNL     1     113.811 128.987 140.037  0.00  0.00    +0.000 C 
ENDBRANCH  40  43
BRANCH  37  44
ATOM     44  O   UNL     1     112.550 126.548 138.207  0.00  0.00    +0.000 OA
BRANCH  44  48
ATOM     45  O   UNL     1     113.863 126.129 137.827  0.00  0.00    +0.000 OA
ATOM     46  O   UNL     1     112.928 124.039 136.891  0.00  0.00    +0.000 OA
ATOM     47  O   UNL     1     114.552 124.318 136.824  0.00  0.00    +0.000 OA
ATOM     48  C   UNL     1     113.051 125.990 137.861  0.00  0.00    +0.000 C 
ATOM     49  C   UNL     1     112.739 125.293 137.549  0.00  0.00    +0.000 C 
ATOM     50  C   UNL     1     113.239 124.735 137.203  0.00  0.00    +0.000 C 
ATOM     51  C   UNL     1     114.052 124.875 137.170  0.00  0.00    +0.000 C 
ATOM     52  C   UNL     1     114.364 125.572 137.482  0.00  0.00    +0.000 C 
BRANCH  49  53
ATOM     53  O   UNL     1     111.926 125.154 137.582  0.00  0.00    +0.000 OA
BRANCH  53  55
ATOM     54  O   UNL     1     111.636 124.619 136.289  0.00  0.00    +0.000 OA
ATOM     55  C   UNL     1     111.478 125.162 136.889  0.00  0.00    +0.000 C 
BRANCH  55  56
ATOM     56  C   UNL     1     110.871 125.713 136.798  0.00  0.00    +0.000 C 
ATOM     57  C   UNL     1     110.504 125.805 136.064  0.00  0.00    +0.000 C 
BRANCH  57  59
ATOM     58  O   UNL     1     108.079 128.012 135.695  0.00  0.00    +0.000 OA
ATOM     59  C   UNL     1     109.898 126.356 135.972  0.00  0.00    +0.000 A 
ATOM     60  C   UNL     1     109.305 126.417 136.543  0.00  0.00    +0.000 A 
ATOM     61  C   UNL     1     109.885 126.848 135.309  0.00  0.00    +0.000 A 
ATOM     62  C   UNL     1     108.699 126.969 136.450  0.00  0.00    +0.000 A 
ATOM     63  C   UNL     1     109.279 127.400 135.218  0.00  0.00    +0.000 A 
ATOM     64  C   UNL     1     108.686 127.460 135.788  0.00  0.00    +0.000 A 
ENDBRANCH  57  59
ENDBRANCH  55  56
ENDBRANCH  53  55
ENDBRANCH  49  53
ENDBRANCH  44  48
ENDBRANCH  37  44
ENDBRANCH   1  41
TORSDOF 13
ENDMDL
MODEL 6
REMARK VINA RESULT:     -10.1      1.110      2.651
REMARK  Name = 44259203
REMARK  13 active torsions:
REMARK  status: ('A' for Active; 'I' for Inactive)
REMARK    1  A    between atoms: O_1  and  C_24
REMARK    2  A    between atoms: O_1  and  C_29
REMARK    3  A    between atoms: O_4  and  C_28
REMARK    4  A    between atoms: O_4  and  C_40
REMARK    5  A    between atoms: O_7  and  C_30
REMARK    6  A    between atoms: O_7  and  C_44
REMARK    7  A    between atoms: O_12  and  C_39
REMARK    8  A    between atoms: O_12  and  C_46
REMARK    9  A    between atoms: C_27  and  C_33
REMARK   10  A    between atoms: C_38  and  C_41
REMARK   11  A    between atoms: C_42  and  C_50
REMARK   12  A    between atoms: C_44  and  C_52
REMARK   13  A    between atoms: C_55  and  C_59
REMARK                            x       y       z     vdW  Elec       q    Type
REMARK                         _______ _______ _______ _____ _____    ______ ____
ROOT
ATOM      1  O   UNL     1     111.752 129.545 139.539  0.00  0.00    +0.000 OA
ENDROOT
BRANCH   1   5
ATOM      2  O   UNL     1     109.746 129.212 140.331  0.00  0.00    +0.000 OA
ATOM      3  O   UNL     1     112.005 128.212 140.477  0.00  0.00    +0.000 OA
ATOM      4  O   UNL     1     111.527 127.190 141.377  0.00  0.00    +0.000 OA
ATOM      5  C   UNL     1     111.125 129.212 139.960  0.00  0.00    +0.000 A 
ATOM      6  C   UNL     1     110.372 129.545 139.911  0.00  0.00    +0.000 A 
ATOM      7  C   UNL     1     111.252 128.545 140.428  0.00  0.00    +0.000 A 
ATOM      8  C   UNL     1     110.626 128.212 140.849  0.00  0.00    +0.000 A 
ATOM      9  C   UNL     1     109.337 127.512 141.723  0.00  0.00    +0.000 A 
ATOM     10  C   UNL     1     109.872 128.544 140.801  0.00  0.00    +0.000 A 
ATOM     11  C   UNL     1     109.211 128.207 141.233  0.00  0.00    +0.000 A 
ATOM     12  C   UNL     1     110.771 127.517 141.334  0.00  0.00    +0.000 A 
ATOM     13  C   UNL     1     110.122 127.164 141.774  0.00  0.00    +0.000 A 
BRANCH   6  16
ATOM     14  O   UNL     1     110.106 132.380 139.658  0.00  0.00    +0.000 OA
ATOM     15  O   UNL     1     109.865 132.212 138.035  0.00  0.00    +0.000 OA
ATOM     16  C   UNL     1     110.246 130.212 139.442  0.00  0.00    +0.000 A 
ATOM     17  C   UNL     1     110.239 130.963 139.785  0.00  0.00    +0.000 A 
ATOM     18  C   UNL     1     110.125 130.128 138.631  0.00  0.00    +0.000 A 
ATOM     19  C   UNL     1     110.113 131.629 139.316  0.00  0.00    +0.000 A 
ATOM     20  C   UNL     1     109.998 130.795 138.161  0.00  0.00    +0.000 A 
ATOM     21  C   UNL     1     109.992 131.545 138.504  0.00  0.00    +0.000 A 
ENDBRANCH   6  16
BRANCH   9  22
ATOM     22  O   UNL     1     108.709 127.180 142.143  0.00  0.00    +0.000 OA
BRANCH  22  31
ATOM     23  O   UNL     1     108.535 125.950 141.436  0.00  0.00    +0.000 OA
ATOM     24  O   UNL     1     106.090 126.331 141.375  0.00  0.00    +0.000 OA
ATOM     25  O   UNL     1     106.731 124.974 140.689  0.00  0.00    +0.000 OA
ATOM     26  O   UNL     1     107.079 127.434 142.101  0.00  0.00    +0.000 OA
ATOM     27  C   UNL     1     106.905 126.204 141.395  0.00  0.00    +0.000 C 
ATOM     28  C   UNL     1     107.226 125.526 141.052  0.00  0.00    +0.000 C 
ATOM     29  C   UNL     1     107.400 126.755 141.758  0.00  0.00    +0.000 C 
ATOM     30  C   UNL     1     108.041 125.399 141.072  0.00  0.00    +0.000 C 
ATOM     31  C   UNL     1     108.215 126.628 141.779  0.00  0.00    +0.000 C 
BRANCH  30  33
ATOM     32  O   UNL     1     108.933 124.284 141.135  0.00  0.00    +0.000 OA
ATOM     33  C   UNL     1     108.361 124.720 140.729  0.00  0.00    +0.000 C 
ENDBRANCH  30  33
ENDBRANCH  22  31
ENDBRANCH   9  22
ENDBRANCH   1   5
BRANCH   1  41
ATOM     34  O   UNL     1     112.396 130.109 140.684  0.00  0.00    +0.000 OA
ATOM     35  O   UNL     1     114.601 129.753 139.618  0.00  0.00    +0.000 OA
ATOM     36  O   UNL     1     114.510 130.436 141.118  0.00  0.00    +0.000 OA
ATOM     37  C   UNL     1     113.177 129.649 139.578  0.00  0.00    +0.000 C 
ATOM     38  C   UNL     1     113.866 129.872 139.973  0.00  0.00    +0.000 C 
ATOM     39  C   UNL     1     113.821 130.213 140.722  0.00  0.00    +0.000 C 
ATOM     40  C   UNL     1     113.086 130.332 141.078  0.00  0.00    +0.000 C 
ATOM     41  C   UNL     1     112.442 129.768 139.933  0.00  0.00    +0.000 C 
BRANCH  40  43
ATOM     42  O   UNL     1     112.635 131.385 141.932  0.00  0.00    +0.000 OA
ATOM     43  C   UNL     1     113.040 130.674 141.828  0.00  0.00    +0.000 C 
ENDBRANCH  40  43
BRANCH  37  44
ATOM     44  O   UNL     1     113.222 129.308 138.829  0.00  0.00    +0.000 OA
BRANCH  44  48
ATOM     45  O   UNL     1     113.416 130.597 138.243  0.00  0.00    +0.000 OA
ATOM     46  O   UNL     1     113.921 129.532 136.067  0.00  0.00    +0.000 OA
ATOM     47  O   UNL     1     113.946 131.176 136.207  0.00  0.00    +0.000 OA
ATOM     48  C   UNL     1     113.403 129.775 138.174  0.00  0.00    +0.000 C 
ATOM     49  C   UNL     1     113.572 129.420 137.447  0.00  0.00    +0.000 C 
ATOM     50  C   UNL     1     113.753 129.887 136.792  0.00  0.00    +0.000 C 
ATOM     51  C   UNL     1     113.765 130.709 136.863  0.00  0.00    +0.000 C 
ATOM     52  C   UNL     1     113.597 131.064 137.587  0.00  0.00    +0.000 C 
BRANCH  49  53
ATOM     53  O   UNL     1     113.559 128.598 137.378  0.00  0.00    +0.000 OA
BRANCH  53  55
ATOM     54  O   UNL     1     112.388 128.657 136.561  0.00  0.00    +0.000 OA
ATOM     55  C   UNL     1     112.911 128.224 137.029  0.00  0.00    +0.000 C 
BRANCH  55  56
ATOM     56  C   UNL     1     112.787 127.417 137.149  0.00  0.00    +0.000 C 
ATOM     57  C   UNL     1     112.056 127.081 136.965  0.00  0.00    +0.000 C 
BRANCH  57  59
ATOM     58  O   UNL     1     111.563 123.853 137.443  0.00  0.00    +0.000 OA
ATOM     59  C   UNL     1     111.933 126.274 137.085  0.00  0.00    +0.000 A 
ATOM     60  C   UNL     1     111.653 126.003 137.813  0.00  0.00    +0.000 A 
ATOM     61  C   UNL     1     112.089 125.738 136.477  0.00  0.00    +0.000 A 
ATOM     62  C   UNL     1     111.530 125.195 137.931  0.00  0.00    +0.000 A 
ATOM     63  C   UNL     1     111.965 124.931 136.597  0.00  0.00    +0.000 A 
ATOM     64  C   UNL     1     111.686 124.660 137.324  0.00  0.00    +0.000 A 
ENDBRANCH  57  59
ENDBRANCH  55  56
ENDBRANCH  53  55
ENDBRANCH  49  53
ENDBRANCH  44  48
ENDBRANCH  37  44
ENDBRANCH   1  41
TORSDOF 13
ENDMDL
MODEL 7
REMARK VINA RESULT:     -10.1      2.073      4.728
REMARK  Name = 44259203
REMARK  13 active torsions:
REMARK  status: ('A' for Active; 'I' for Inactive)
REMARK    1  A    between atoms: O_1  and  C_24
REMARK    2  A    between atoms: O_1  and  C_29
REMARK    3  A    between atoms: O_4  and  C_28
REMARK    4  A    between atoms: O_4  and  C_40
REMARK    5  A    between atoms: O_7  and  C_30
REMARK    6  A    between atoms: O_7  and  C_44
REMARK    7  A    between atoms: O_12  and  C_39
REMARK    8  A    between atoms: O_12  and  C_46
REMARK    9  A    between atoms: C_27  and  C_33
REMARK   10  A    between atoms: C_38  and  C_41
REMARK   11  A    between atoms: C_42  and  C_50
REMARK   12  A    between atoms: C_44  and  C_52
REMARK   13  A    between atoms: C_55  and  C_59
REMARK                            x       y       z     vdW  Elec       q    Type
REMARK                         _______ _______ _______ _____ _____    ______ ____
ROOT
ATOM      1  O   UNL     1     111.065 127.530 138.870  0.00  0.00    +0.000 OA
ENDROOT
BRANCH   1   5
ATOM      2  O   UNL     1     112.462 128.686 140.084  0.00  0.00    +0.000 OA
ATOM      3  O   UNL     1     110.064 128.694 139.474  0.00  0.00    +0.000 OA
ATOM      4  O   UNL     1     109.832 129.867 140.283  0.00  0.00    +0.000 OA
ATOM      5  C   UNL     1     111.364 128.110 139.376  0.00  0.00    +0.000 A 
ATOM      6  C   UNL     1     112.164 128.107 139.579  0.00  0.00    +0.000 A 
ATOM      7  C   UNL     1     110.863 128.691 139.678  0.00  0.00    +0.000 A 
ATOM      8  C   UNL     1     111.162 129.270 140.183  0.00  0.00    +0.000 A 
ATOM      9  C   UNL     1     111.769 130.475 141.230  0.00  0.00    +0.000 A 
ATOM     10  C   UNL     1     111.962 129.268 140.387  0.00  0.00    +0.000 A 
ATOM     11  C   UNL     1     112.285 129.866 140.912  0.00  0.00    +0.000 A 
ATOM     12  C   UNL     1     110.630 129.871 140.491  0.00  0.00    +0.000 A 
ATOM     13  C   UNL     1     110.935 130.478 141.019  0.00  0.00    +0.000 A 
BRANCH   6  16
ATOM     14  O   UNL     1     113.735 127.064 137.431  0.00  0.00    +0.000 OA
ATOM     15  O   UNL     1     114.167 125.779 138.371  0.00  0.00    +0.000 OA
ATOM     16  C   UNL     1     112.664 127.525 139.277  0.00  0.00    +0.000 A 
ATOM     17  C   UNL     1     112.949 127.585 138.505  0.00  0.00    +0.000 A 
ATOM     18  C   UNL     1     112.880 126.882 139.747  0.00  0.00    +0.000 A 
ATOM     19  C   UNL     1     113.450 127.004 138.203  0.00  0.00    +0.000 A 
ATOM     20  C   UNL     1     113.381 126.300 139.445  0.00  0.00    +0.000 A 
ATOM     21  C   UNL     1     113.666 126.361 138.673  0.00  0.00    +0.000 A 
ENDBRANCH   6  16
BRANCH   9  22
ATOM     22  O   UNL     1     112.070 131.053 141.736  0.00  0.00    +0.000 OA
BRANCH  22  31
ATOM     23  O   UNL     1     111.916 130.341 142.966  0.00  0.00    +0.000 OA
ATOM     24  O   UNL     1     111.197 132.430 144.083  0.00  0.00    +0.000 OA
ATOM     25  O   UNL     1     111.283 131.023 144.941  0.00  0.00    +0.000 OA
ATOM     26  O   UNL     1     111.591 132.444 142.481  0.00  0.00    +0.000 OA
ATOM     27  C   UNL     1     111.437 131.733 143.711  0.00  0.00    +0.000 C 
ATOM     28  C   UNL     1     111.480 131.030 144.139  0.00  0.00    +0.000 C 
ATOM     29  C   UNL     1     111.634 131.741 142.910  0.00  0.00    +0.000 C 
ATOM     30  C   UNL     1     111.720 130.334 143.767  0.00  0.00    +0.000 C 
ATOM     31  C   UNL     1     111.874 131.045 142.537  0.00  0.00    +0.000 C 
BRANCH  30  33
ATOM     32  O   UNL     1     111.353 128.962 143.934  0.00  0.00    +0.000 OA
ATOM     33  C   UNL     1     111.762 129.630 144.196  0.00  0.00    +0.000 C 
ENDBRANCH  30  33
ENDBRANCH  22  31
ENDBRANCH   9  22
ENDBRANCH   1   5
BRANCH   1  41
ATOM     34  O   UNL     1     110.361 126.806 139.881  0.00  0.00    +0.000 OA
ATOM     35  O   UNL     1     108.595 126.236 138.243  0.00  0.00    +0.000 OA
ATOM     36  O   UNL     1     108.480 125.702 139.800  0.00  0.00    +0.000 OA
ATOM     37  C   UNL     1     109.830 126.883 138.556  0.00  0.00    +0.000 C 
ATOM     38  C   UNL     1     109.184 126.426 138.789  0.00  0.00    +0.000 C 
ATOM     39  C   UNL     1     109.126 126.159 139.567  0.00  0.00    +0.000 C 
ATOM     40  C   UNL     1     109.715 126.349 140.113  0.00  0.00    +0.000 C 
ATOM     41  C   UNL     1     110.419 127.073 139.102  0.00  0.00    +0.000 C 
BRANCH  40  43
ATOM     42  O   UNL     1     110.262 125.624 141.216  0.00  0.00    +0.000 OA
ATOM     43  C   UNL     1     109.657 126.082 140.892  0.00  0.00    +0.000 C 
ENDBRANCH  40  43
BRANCH  37  44
ATOM     44  O   UNL     1     109.888 127.150 137.778  0.00  0.00    +0.000 OA
BRANCH  44  48
ATOM     45  O   UNL     1     110.408 125.884 137.367  0.00  0.00    +0.000 OA
ATOM     46  O   UNL     1     110.143 126.545 134.997  0.00  0.00    +0.000 OA
ATOM     47  O   UNL     1     110.751 125.058 135.376  0.00  0.00    +0.000 OA
ATOM     48  C   UNL     1     110.104 126.627 137.178  0.00  0.00    +0.000 C 
ATOM     49  C   UNL     1     110.015 126.847 136.387  0.00  0.00    +0.000 C 
ATOM     50  C   UNL     1     110.231 126.324 135.786  0.00  0.00    +0.000 C 
ATOM     51  C   UNL     1     110.535 125.581 135.977  0.00  0.00    +0.000 C 
ATOM     52  C   UNL     1     110.624 125.361 136.766  0.00  0.00    +0.000 C 
BRANCH  49  53
ATOM     53  O   UNL     1     109.711 127.590 136.198  0.00  0.00    +0.000 OA
BRANCH  53  55
ATOM     54  O   UNL     1     110.357 128.070 135.016  0.00  0.00    +0.000 OA
ATOM     55  C   UNL     1     110.189 128.148 135.820  0.00  0.00    +0.000 C 
BRANCH  55  56
ATOM     56  C   UNL     1     110.499 128.782 136.247  0.00  0.00    +0.000 C 
ATOM     57  C   UNL     1     110.597 129.516 135.882  0.00  0.00    +0.000 C 
BRANCH  57  59
ATOM     58  O   UNL     1     111.837 132.052 137.591  0.00  0.00    +0.000 OA
ATOM     59  C   UNL     1     110.906 130.150 136.309  0.00  0.00    +0.000 A 
ATOM     60  C   UNL     1     110.400 130.715 136.635  0.00  0.00    +0.000 A 
ATOM     61  C   UNL     1     111.723 130.220 136.411  0.00  0.00    +0.000 A 
ATOM     62  C   UNL     1     110.711 131.349 137.062  0.00  0.00    +0.000 A 
ATOM     63  C   UNL     1     112.032 130.854 136.838  0.00  0.00    +0.000 A 
ATOM     64  C   UNL     1     111.526 131.418 137.164  0.00  0.00    +0.000 A 
ENDBRANCH  57  59
ENDBRANCH  55  56
ENDBRANCH  53  55
ENDBRANCH  49  53
ENDBRANCH  44  48
ENDBRANCH  37  44
ENDBRANCH   1  41
TORSDOF 13
ENDMDL
MODEL 8
REMARK VINA RESULT:     -10.1      1.192      2.504
REMARK  Name = 44259203
REMARK  13 active torsions:
REMARK  status: ('A' for Active; 'I' for Inactive)
REMARK    1  A    between atoms: O_1  and  C_24
REMARK    2  A    between atoms: O_1  and  C_29
REMARK    3  A    between atoms: O_4  and  C_28
REMARK    4  A    between atoms: O_4  and  C_40
REMARK    5  A    between atoms: O_7  and  C_30
REMARK    6  A    between atoms: O_7  and  C_44
REMARK    7  A    between atoms: O_12  and  C_39
REMARK    8  A    between atoms: O_12  and  C_46
REMARK    9  A    between atoms: C_27  and  C_33
REMARK   10  A    between atoms: C_38  and  C_41
REMARK   11  A    between atoms: C_42  and  C_50
REMARK   12  A    between atoms: C_44  and  C_52
REMARK   13  A    between atoms: C_55  and  C_59
REMARK                            x       y       z     vdW  Elec       q    Type
REMARK                         _______ _______ _______ _____ _____    ______ ____
ROOT
ATOM      1  O   UNL     1     111.347 128.530 138.594  0.00  0.00    +0.000 OA
ENDROOT
BRANCH   1   5
ATOM      2  O   UNL     1     109.390 127.727 139.130  0.00  0.00    +0.000 OA
ATOM      3  O   UNL     1     111.762 127.475 139.793  0.00  0.00    +0.000 OA
ATOM      4  O   UNL     1     111.410 126.492 140.788  0.00  0.00    +0.000 OA
ATOM      5  C   UNL     1     110.764 128.086 138.973  0.00  0.00    +0.000 A 
ATOM      6  C   UNL     1     109.973 128.171 138.751  0.00  0.00    +0.000 A 
ATOM      7  C   UNL     1     110.971 127.559 139.572  0.00  0.00    +0.000 A 
ATOM      8  C   UNL     1     110.388 127.115 139.950  0.00  0.00    +0.000 A 
ATOM      9  C   UNL     1     109.190 126.191 140.742  0.00  0.00    +0.000 A 
ATOM     10  C   UNL     1     109.597 127.199 139.730  0.00  0.00    +0.000 A 
ATOM     11  C   UNL     1     108.980 126.742 140.117  0.00  0.00    +0.000 A 
ATOM     12  C   UNL     1     110.617 126.569 140.573  0.00  0.00    +0.000 A 
ATOM     13  C   UNL     1     110.014 126.104 140.972  0.00  0.00    +0.000 A 
BRANCH   6  16
ATOM     14  O   UNL     1     109.009 130.734 137.934  0.00  0.00    +0.000 OA
ATOM     15  O   UNL     1     109.143 130.280 136.353  0.00  0.00    +0.000 OA
ATOM     16  C   UNL     1     109.766 128.698 138.152  0.00  0.00    +0.000 A 
ATOM     17  C   UNL     1     109.491 129.452 138.343  0.00  0.00    +0.000 A 
ATOM     18  C   UNL     1     109.833 128.471 137.362  0.00  0.00    +0.000 A 
ATOM     19  C   UNL     1     109.284 129.979 137.744  0.00  0.00    +0.000 A 
ATOM     20  C   UNL     1     109.626 128.999 136.762  0.00  0.00    +0.000 A 
ATOM     21  C   UNL     1     109.351 129.752 136.953  0.00  0.00    +0.000 A 
ENDBRANCH   6  16
BRANCH   9  22
ATOM     22  O   UNL     1     108.605 125.749 141.119  0.00  0.00    +0.000 OA
BRANCH  22  31
ATOM     23  O   UNL     1     108.148 126.785 141.992  0.00  0.00    +0.000 OA
ATOM     24  O   UNL     1     105.826 125.962 141.751  0.00  0.00    +0.000 OA
ATOM     25  O   UNL     1     106.143 127.271 142.703  0.00  0.00    +0.000 OA
ATOM     26  O   UNL     1     107.057 125.201 140.959  0.00  0.00    +0.000 OA
ATOM     27  C   UNL     1     106.600 126.236 141.831  0.00  0.00    +0.000 C 
ATOM     28  C   UNL     1     106.758 126.891 142.307  0.00  0.00    +0.000 C 
ATOM     29  C   UNL     1     107.215 125.856 141.435  0.00  0.00    +0.000 C 
ATOM     30  C   UNL     1     107.532 127.165 142.388  0.00  0.00    +0.000 C 
ATOM     31  C   UNL     1     107.989 126.130 141.515  0.00  0.00    +0.000 C 
BRANCH  30  33
ATOM     32  O   UNL     1     108.297 127.786 143.424  0.00  0.00    +0.000 OA
ATOM     33  C   UNL     1     107.691 127.820 142.864  0.00  0.00    +0.000 C 
ENDBRANCH  30  33
ENDBRANCH  22  31
ENDBRANCH   9  22
ENDBRANCH   1   5
BRANCH   1  41
ATOM     34  O   UNL     1     111.577 129.415 139.692  0.00  0.00    +0.000 OA
ATOM     35  O   UNL     1     113.962 129.588 139.053  0.00  0.00    +0.000 OA
ATOM     36  O   UNL     1     113.397 130.415 140.364  0.00  0.00    +0.000 OA
ATOM     37  C   UNL     1     112.655 129.059 138.823  0.00  0.00    +0.000 C 
ATOM     38  C   UNL     1     113.167 129.530 139.266  0.00  0.00    +0.000 C 
ATOM     39  C   UNL     1     112.885 129.943 139.921  0.00  0.00    +0.000 C 
ATOM     40  C   UNL     1     112.090 129.886 140.134  0.00  0.00    +0.000 C 
ATOM     41  C   UNL     1     111.860 129.001 139.036  0.00  0.00    +0.000 C 
BRANCH  40  43
ATOM     42  O   UNL     1     111.269 130.916 140.688  0.00  0.00    +0.000 OA
ATOM     43  C   UNL     1     111.807 130.300 140.790  0.00  0.00    +0.000 C 
ENDBRANCH  40  43
BRANCH  37  44
ATOM     44  O   UNL     1     112.937 128.645 138.168  0.00  0.00    +0.000 OA
BRANCH  44  48
ATOM     45  O   UNL     1     112.993 129.863 137.422  0.00  0.00    +0.000 OA
ATOM     46  O   UNL     1     113.968 128.643 135.502  0.00  0.00    +0.000 OA
ATOM     47  O   UNL     1     113.698 130.267 135.397  0.00  0.00    +0.000 OA
ATOM     48  C   UNL     1     113.127 129.051 137.475  0.00  0.00    +0.000 C 
ATOM     49  C   UNL     1     113.453 128.644 136.834  0.00  0.00    +0.000 C 
ATOM     50  C   UNL     1     113.643 129.050 136.142  0.00  0.00    +0.000 C 
ATOM     51  C   UNL     1     113.508 129.862 136.089  0.00  0.00    +0.000 C 
ATOM     52  C   UNL     1     113.183 130.268 136.729  0.00  0.00    +0.000 C 
BRANCH  49  53
ATOM     53  O   UNL     1     113.587 127.832 136.888  0.00  0.00    +0.000 OA
BRANCH  53  55
ATOM     54  O   UNL     1     112.725 127.559 135.781  0.00  0.00    +0.000 OA
ATOM     55  C   UNL     1     113.111 127.307 136.465  0.00  0.00    +0.000 C 
BRANCH  55  56
ATOM     56  C   UNL     1     113.023 126.529 136.726  0.00  0.00    +0.000 C 
ATOM     57  C   UNL     1     112.477 126.030 136.358  0.00  0.00    +0.000 C 
BRANCH  57  59
ATOM     58  O   UNL     1     112.126 122.919 137.402  0.00  0.00    +0.000 OA
ATOM     59  C   UNL     1     112.389 125.253 136.620  0.00  0.00    +0.000 A 
ATOM     60  C   UNL     1     111.751 125.049 137.102  0.00  0.00    +0.000 A 
ATOM     61  C   UNL     1     112.939 124.679 136.398  0.00  0.00    +0.000 A 
ATOM     62  C   UNL     1     111.664 124.271 137.363  0.00  0.00    +0.000 A 
ATOM     63  C   UNL     1     112.851 123.901 136.659  0.00  0.00    +0.000 A 
ATOM     64  C   UNL     1     112.214 123.698 137.142  0.00  0.00    +0.000 A 
ENDBRANCH  57  59
ENDBRANCH  55  56
ENDBRANCH  53  55
ENDBRANCH  49  53
ENDBRANCH  44  48
ENDBRANCH  37  44
ENDBRANCH   1  41
TORSDOF 13
ENDMDL
MODEL 9
REMARK VINA RESULT:     -10.0      1.513      4.138
REMARK  Name = 44259203
REMARK  13 active torsions:
REMARK  status: ('A' for Active; 'I' for Inactive)
REMARK    1  A    between atoms: O_1  and  C_24
REMARK    2  A    between atoms: O_1  and  C_29
REMARK    3  A    between atoms: O_4  and  C_28
REMARK    4  A    between atoms: O_4  and  C_40
REMARK    5  A    between atoms: O_7  and  C_30
REMARK    6  A    between atoms: O_7  and  C_44
REMARK    7  A    between atoms: O_12  and  C_39
REMARK    8  A    between atoms: O_12  and  C_46
REMARK    9  A    between atoms: C_27  and  C_33
REMARK   10  A    between atoms: C_38  and  C_41
REMARK   11  A    between atoms: C_42  and  C_50
REMARK   12  A    between atoms: C_44  and  C_52
REMARK   13  A    between atoms: C_55  and  C_59
REMARK                            x       y       z     vdW  Elec       q    Type
REMARK                         _______ _______ _______ _____ _____    ______ ____
ROOT
ATOM      1  O   UNL     1     111.322 127.321 137.579  0.00  0.00    +0.000 OA
ENDROOT
BRANCH   1   5
ATOM      2  O   UNL     1     109.453 127.113 138.686  0.00  0.00    +0.000 OA
ATOM      3  O   UNL     1     111.868 126.666 138.992  0.00  0.00    +0.000 OA
ATOM      4  O   UNL     1     111.634 126.150 140.319  0.00  0.00    +0.000 OA
ATOM      5  C   UNL     1     110.790 127.142 138.184  0.00  0.00    +0.000 A 
ATOM      6  C   UNL     1     109.985 127.291 138.081  0.00  0.00    +0.000 A 
ATOM      7  C   UNL     1     111.063 126.815 138.889  0.00  0.00    +0.000 A 
ATOM      8  C   UNL     1     110.531 126.637 139.494  0.00  0.00    +0.000 A 
ATOM      9  C   UNL     1     109.440 126.263 140.753  0.00  0.00    +0.000 A 
ATOM     10  C   UNL     1     109.726 126.785 139.393  0.00  0.00    +0.000 A 
ATOM     11  C   UNL     1     109.161 126.604 140.015  0.00  0.00    +0.000 A 
ATOM     12  C   UNL     1     110.828 126.296 140.225  0.00  0.00    +0.000 A 
ATOM     13  C   UNL     1     110.279 126.107 140.859  0.00  0.00    +0.000 A 
BRANCH   6  16
ATOM     14  O   UNL     1     108.788 126.973 135.505  0.00  0.00    +0.000 OA
ATOM     15  O   UNL     1     108.892 128.601 135.256  0.00  0.00    +0.000 OA
ATOM     16  C   UNL     1     109.712 127.618 137.376  0.00  0.00    +0.000 A 
ATOM     17  C   UNL     1     109.387 127.132 136.793  0.00  0.00    +0.000 A 
ATOM     18  C   UNL     1     109.763 128.432 137.251  0.00  0.00    +0.000 A 
ATOM     19  C   UNL     1     109.114 127.459 136.088  0.00  0.00    +0.000 A 
ATOM     20  C   UNL     1     109.490 128.760 136.544  0.00  0.00    +0.000 A 
ATOM     21  C   UNL     1     109.165 128.273 135.963  0.00  0.00    +0.000 A 
ENDBRANCH   6  16
BRANCH   9  22
ATOM     22  O   UNL     1     108.905 126.085 141.356  0.00  0.00    +0.000 OA
BRANCH  22  31
ATOM     23  O   UNL     1     108.943 127.338 142.043  0.00  0.00    +0.000 OA
ATOM     24  O   UNL     1     106.494 127.226 142.381  0.00  0.00    +0.000 OA
ATOM     25  O   UNL     1     107.348 128.516 142.955  0.00  0.00    +0.000 OA
ATOM     26  O   UNL     1     107.273 126.011 141.582  0.00  0.00    +0.000 OA
ATOM     27  C   UNL     1     107.311 127.264 142.268  0.00  0.00    +0.000 C 
ATOM     28  C   UNL     1     107.738 127.909 142.555  0.00  0.00    +0.000 C 
ATOM     29  C   UNL     1     107.700 126.656 141.868  0.00  0.00    +0.000 C 
ATOM     30  C   UNL     1     108.554 127.946 142.442  0.00  0.00    +0.000 C 
ATOM     31  C   UNL     1     108.516 126.693 141.756  0.00  0.00    +0.000 C 
BRANCH  30  33
ATOM     32  O   UNL     1     109.657 128.467 143.188  0.00  0.00    +0.000 OA
ATOM     33  C   UNL     1     108.981 128.591 142.729  0.00  0.00    +0.000 C 
ENDBRANCH  30  33
ENDBRANCH  22  31
ENDBRANCH   9  22
ENDBRANCH   1   5
BRANCH   1  41
ATOM     34  O   UNL     1     111.551 125.968 137.179  0.00  0.00    +0.000 OA
ATOM     35  O   UNL     1     113.902 126.526 136.641  0.00  0.00    +0.000 OA
ATOM     36  O   UNL     1     113.348 124.987 136.420  0.00  0.00    +0.000 OA
ATOM     37  C   UNL     1     112.612 126.924 137.110  0.00  0.00    +0.000 C 
ATOM     38  C   UNL     1     113.118 126.340 136.820  0.00  0.00    +0.000 C 
ATOM     39  C   UNL     1     112.842 125.571 136.710  0.00  0.00    +0.000 C 
ATOM     40  C   UNL     1     112.058 125.385 136.890  0.00  0.00    +0.000 C 
ATOM     41  C   UNL     1     111.829 126.738 137.289  0.00  0.00    +0.000 C 
BRANCH  40  43
ATOM     42  O   UNL     1     111.232 124.457 136.185  0.00  0.00    +0.000 OA
ATOM     43  C   UNL     1     111.781 124.615 136.779  0.00  0.00    +0.000 C 
ENDBRANCH  40  43
BRANCH  37  44
ATOM     44  O   UNL     1     112.889 127.693 137.220  0.00  0.00    +0.000 OA
BRANCH  44  48
ATOM     45  O   UNL     1     112.740 127.957 135.823  0.00  0.00    +0.000 OA
ATOM     46  O   UNL     1     113.925 130.111 136.105  0.00  0.00    +0.000 OA
ATOM     47  O   UNL     1     113.381 129.657 134.614  0.00  0.00    +0.000 OA
ATOM     48  C   UNL     1     113.012 128.184 136.568  0.00  0.00    +0.000 C 
ATOM     49  C   UNL     1     113.407 128.903 136.662  0.00  0.00    +0.000 C 
ATOM     50  C   UNL     1     113.530 129.394 136.011  0.00  0.00    +0.000 C 
ATOM     51  C   UNL     1     113.258 129.166 135.266  0.00  0.00    +0.000 C 
ATOM     52  C   UNL     1     112.863 128.448 135.172  0.00  0.00    +0.000 C 
BRANCH  49  53
ATOM     53  O   UNL     1     113.679 129.129 137.407  0.00  0.00    +0.000 OA
BRANCH  53  55
ATOM     54  O   UNL     1     112.868 130.305 137.461  0.00  0.00    +0.000 OA
ATOM     55  C   UNL     1     113.260 129.690 137.846  0.00  0.00    +0.000 C 
BRANCH  55  56
ATOM     56  C   UNL     1     113.234 129.634 138.668  0.00  0.00    +0.000 C 
ATOM     57  C   UNL     1     112.750 130.144 139.101  0.00  0.00    +0.000 C 
BRANCH  57  59
ATOM     58  O   UNL     1     112.651 129.921 142.392  0.00  0.00    +0.000 OA
ATOM     59  C   UNL     1     112.725 130.088 139.924  0.00  0.00    +0.000 A 
ATOM     60  C   UNL     1     112.012 129.921 140.304  0.00  0.00    +0.000 A 
ATOM     61  C   UNL     1     113.413 130.199 140.366  0.00  0.00    +0.000 A 
ATOM     62  C   UNL     1     111.988 129.866 141.127  0.00  0.00    +0.000 A 
ATOM     63  C   UNL     1     113.387 130.143 141.188  0.00  0.00    +0.000 A 
ATOM     64  C   UNL     1     112.675 129.976 141.569  0.00  0.00    +0.000 A 
ENDBRANCH  57  59
ENDBRANCH  55  56
ENDBRANCH  53  55
ENDBRANCH  49  53
ENDBRANCH  44  48
ENDBRANCH  37  44
ENDBRANCH   1  41
TORSDOF 13
ENDMDL
MODEL 10
REMARK VINA RESULT:     -10.0      1.753      5.002
REMARK  Name = 44259203
REMARK  13 active torsions:
REMARK  status: ('A' for Active; 'I' for Inactive)
REMARK    1  A    between atoms: O_1  and  C_24
REMARK    2  A    between atoms: O_1  and  C_29
REMARK    3  A    between atoms: O_4  and  C_28
REMARK    4  A    between atoms: O_4  and  C_40
REMARK    5  A    between atoms: O_7  and  C_30
REMARK    6  A    between atoms: O_7  and  C_44
REMARK    7  A    between atoms: O_12  and  C_39
REMARK    8  A    between atoms: O_12  and  C_46
REMARK    9  A    between atoms: C_27  and  C_33
REMARK   10  A    between atoms: C_38  and  C_41
REMARK   11  A    between atoms: C_42  and  C_50
REMARK   12  A    between atoms: C_44  and  C_52
REMARK   13  A    between atoms: C_55  and  C_59
REMARK                            x       y       z     vdW  Elec       q    Type
REMARK                         _______ _______ _______ _____ _____    ______ ____
ROOT
ATOM      1  O   UNL     1     111.464 129.829 139.535  0.00  0.00    +0.000 OA
ENDROOT
BRANCH   1   5
ATOM      2  O   UNL     1     112.734 128.528 138.329  0.00  0.00    +0.000 OA
ATOM      3  O   UNL     1     110.344 129.133 138.543  0.00  0.00    +0.000 OA
ATOM      4  O   UNL     1     109.990 128.234 137.472  0.00  0.00    +0.000 OA
ATOM      5  C   UNL     1     111.701 129.279 138.968  0.00  0.00    +0.000 A 
ATOM      6  C   UNL     1     112.498 129.077 138.896  0.00  0.00    +0.000 A 
ATOM      7  C   UNL     1     111.141 128.932 138.472  0.00  0.00    +0.000 A 
ATOM      8  C   UNL     1     111.378 128.382 137.904  0.00  0.00    +0.000 A 
ATOM      9  C   UNL     1     111.855 127.243 136.726  0.00  0.00    +0.000 A 
ATOM     10  C   UNL     1     112.174 128.179 137.832  0.00  0.00    +0.000 A 
ATOM     11  C   UNL     1     112.434 127.608 137.245  0.00  0.00    +0.000 A 
ATOM     12  C   UNL     1     110.785 128.027 137.393  0.00  0.00    +0.000 A 
ATOM     13  C   UNL     1     111.025 127.453 136.800  0.00  0.00    +0.000 A 
BRANCH   6  16
ATOM     14  O   UNL     1     114.490 131.072 139.366  0.00  0.00    +0.000 OA
ATOM     15  O   UNL     1     114.738 130.467 140.881  0.00  0.00    +0.000 OA
ATOM     16  C   UNL     1     113.058 129.425 139.392  0.00  0.00    +0.000 A 
ATOM     17  C   UNL     1     113.494 130.075 139.131  0.00  0.00    +0.000 A 
ATOM     18  C   UNL     1     113.182 129.122 140.149  0.00  0.00    +0.000 A 
ATOM     19  C   UNL     1     114.054 130.422 139.627  0.00  0.00    +0.000 A 
ATOM     20  C   UNL     1     113.742 129.470 140.646  0.00  0.00    +0.000 A 
ATOM     21  C   UNL     1     114.178 130.120 140.384  0.00  0.00    +0.000 A 
ENDBRANCH   6  16
BRANCH   9  22
ATOM     22  O   UNL     1     112.094 126.694 136.159  0.00  0.00    +0.000 OA
BRANCH  22  31
ATOM     23  O   UNL     1     112.775 125.694 136.921  0.00  0.00    +0.000 OA
ATOM     24  O   UNL     1     111.358 123.945 135.891  0.00  0.00    +0.000 OA
ATOM     25  O   UNL     1     112.510 123.528 136.996  0.00  0.00    +0.000 OA
ATOM     26  O   UNL     1     111.150 125.528 135.473  0.00  0.00    +0.000 OA
ATOM     27  C   UNL     1     111.830 124.528 136.234  0.00  0.00    +0.000 C 
ATOM     28  C   UNL     1     112.407 124.320 136.787  0.00  0.00    +0.000 C 
ATOM     29  C   UNL     1     111.727 125.319 136.025  0.00  0.00    +0.000 C 
ATOM     30  C   UNL     1     112.879 124.902 137.130  0.00  0.00    +0.000 C 
ATOM     31  C   UNL     1     112.199 125.902 136.368  0.00  0.00    +0.000 C 
BRANCH  30  33
ATOM     32  O   UNL     1     114.245 124.900 137.553  0.00  0.00    +0.000 OA
ATOM     33  C   UNL     1     113.455 124.694 137.682  0.00  0.00    +0.000 C 
ENDBRANCH  30  33
ENDBRANCH  22  31
ENDBRANCH   9  22
ENDBRANCH   1   5
BRANCH   1  41
ATOM     34  O   UNL     1     111.172 130.882 138.614  0.00  0.00    +0.000 OA
ATOM     35  O   UNL     1     109.300 131.621 140.054  0.00  0.00    +0.000 OA
ATOM     36  O   UNL     1     109.631 132.427 138.654  0.00  0.00    +0.000 OA
ATOM     37  C   UNL     1     110.382 130.725 139.796  0.00  0.00    +0.000 C 
ATOM     38  C   UNL     1     109.924 131.375 139.574  0.00  0.00    +0.000 C 
ATOM     39  C   UNL     1     110.089 131.778 138.875  0.00  0.00    +0.000 C 
ATOM     40  C   UNL     1     110.713 131.531 138.395  0.00  0.00    +0.000 C 
ATOM     41  C   UNL     1     111.006 130.478 139.316  0.00  0.00    +0.000 C 
BRANCH  40  43
ATOM     42  O   UNL     1     111.649 132.184 137.534  0.00  0.00    +0.000 OA
ATOM     43  C   UNL     1     110.879 131.934 137.693  0.00  0.00    +0.000 C 
ENDBRANCH  40  43
BRANCH  37  44
ATOM     44  O   UNL     1     110.216 130.322 140.495  0.00  0.00    +0.000 OA
BRANCH  44  48
ATOM     45  O   UNL     1     110.956 131.285 141.249  0.00  0.00    +0.000 OA
ATOM     46  O   UNL     1     109.997 130.382 143.344  0.00  0.00    +0.000 OA
ATOM     47  O   UNL     1     111.056 131.646 143.399  0.00  0.00    +0.000 OA
ATOM     48  C   UNL     1     110.426 130.653 141.221  0.00  0.00    +0.000 C 
ATOM     49  C   UNL     1     110.106 130.352 141.921  0.00  0.00    +0.000 C 
ATOM     50  C   UNL     1     110.316 130.683 142.646  0.00  0.00    +0.000 C 
ATOM     51  C   UNL     1     110.846 131.315 142.673  0.00  0.00    +0.000 C 
ATOM     52  C   UNL     1     111.166 131.616 141.975  0.00  0.00    +0.000 C 
BRANCH  49  53
ATOM     53  O   UNL     1     109.576 129.720 141.892  0.00  0.00    +0.000 OA
BRANCH  53  55
ATOM     54  O   UNL     1     109.862 128.847 142.988  0.00  0.00    +0.000 OA
ATOM     55  C   UNL     1     109.804 128.979 142.175  0.00  0.00    +0.000 C 
BRANCH  55  56
ATOM     56  C   UNL     1     109.973 128.370 141.645  0.00  0.00    +0.000 C 
ATOM     57  C   UNL     1     109.739 127.597 141.816  0.00  0.00    +0.000 C 
BRANCH  57  59
ATOM     58  O   UNL     1     110.419 125.162 139.695  0.00  0.00    +0.000 OA
ATOM     59  C   UNL     1     109.908 126.989 141.286  0.00  0.00    +0.000 A 
ATOM     60  C   UNL     1     109.314 126.688 140.798  0.00  0.00    +0.000 A 
ATOM     61  C   UNL     1     110.673 126.680 141.243  0.00  0.00    +0.000 A 
ATOM     62  C   UNL     1     109.485 126.079 140.268  0.00  0.00    +0.000 A 
ATOM     63  C   UNL     1     110.842 126.071 140.713  0.00  0.00    +0.000 A 
ATOM     64  C   UNL     1     110.249 125.771 140.226  0.00  0.00    +0.000 A 
ENDBRANCH  57  59
ENDBRANCH  55  56
ENDBRANCH  53  55
ENDBRANCH  49  53
ENDBRANCH  44  48
ENDBRANCH  37  44
ENDBRANCH   1  41
TORSDOF 13
ENDMDL
