MODEL 1
REMARK VINA RESULT:      -8.9      0.000      0.000
REMARK  Name = 44258557
REMARK  6 active torsions:
REMARK  status: ('A' for Active; 'I' for Inactive)
REMARK    1  A    between atoms: O_2  and  C_15
REMARK    2  A    between atoms: O_2  and  C_17
REMARK    3  A    between atoms: O_8  and  C_21
REMARK    4  A    between atoms: O_9  and  C_22
REMARK    5  A    between atoms: C_14  and  C_16
REMARK    6  A    between atoms: C_24  and  C_26
REMARK                            x       y       z     vdW  Elec       q    Type
REMARK                         _______ _______ _______ _____ _____    ______ ____
ROOT
ATOM      1  O   UNL     1     113.199 127.117 137.810  0.00  0.00    +0.000 OA
ATOM      2  O   UNL     1     113.431 127.258 140.327  0.00  0.00    +0.000 OA
ATOM      3  C   UNL     1     112.890 128.580 139.449  0.00  0.00    +0.000 A 
ATOM      4  C   UNL     1     113.081 127.882 139.054  0.00  0.00    +0.000 A 
ATOM      5  C   UNL     1     112.624 129.235 139.025  0.00  0.00    +0.000 A 
ATOM      6  C   UNL     1     113.004 127.838 138.233  0.00  0.00    +0.000 A 
ATOM      7  C   UNL     1     112.548 129.192 138.205  0.00  0.00    +0.000 A 
ATOM      8  C   UNL     1     112.738 128.494 137.808  0.00  0.00    +0.000 A 
ATOM      9  C   UNL     1     113.357 127.206 139.507  0.00  0.00    +0.000 A 
ATOM     10  C   UNL     1     113.477 126.431 138.246  0.00  0.00    +0.000 A 
ATOM     11  C   UNL     1     113.557 126.476 139.101  0.00  0.00    +0.000 A 
ENDROOT
BRANCH  10  12
ATOM     12  C   UNL     1     113.667 125.734 137.847  0.00  0.00    +0.000 A 
ATOM     13  C   UNL     1     113.067 125.236 137.577  0.00  0.00    +0.000 A 
ATOM     14  C   UNL     1     114.457 125.535 137.718  0.00  0.00    +0.000 A 
ATOM     15  C   UNL     1     113.256 124.540 137.178  0.00  0.00    +0.000 A 
ATOM     16  C   UNL     1     114.647 124.838 137.319  0.00  0.00    +0.000 A 
ATOM     17  C   UNL     1     114.047 124.340 137.049  0.00  0.00    +0.000 A 
ENDBRANCH  10  12
BRANCH   7  18
ATOM     18  O   UNL     1     112.281 129.848 137.780  0.00  0.00    +0.000 OA
ATOM     19  C   UNL     1     111.620 130.267 138.041  0.00  0.00    +0.000 C 
ENDBRANCH   7  18
BRANCH   8  20
ATOM     20  O   UNL     1     112.661 128.451 136.988  0.00  0.00    +0.000 OA
ATOM     21  C   UNL     1     113.205 128.837 136.503  0.00  0.00    +0.000 C 
ENDBRANCH   8  20
BRANCH   3  22
ATOM     22  O   UNL     1     112.967 128.624 140.269  0.00  0.00    +0.000 OA
BRANCH  22  31
ATOM     23  O   UNL     1     114.017 129.587 140.376  0.00  0.00    +0.000 OA
ATOM     24  O   UNL     1     112.760 130.760 142.157  0.00  0.00    +0.000 OA
ATOM     25  O   UNL     1     114.228 131.331 141.670  0.00  0.00    +0.000 OA
ATOM     26  O   UNL     1     112.129 129.406 141.456  0.00  0.00    +0.000 OA
ATOM     27  C   UNL     1     113.179 130.369 141.563  0.00  0.00    +0.000 C 
ATOM     28  C   UNL     1     113.913 130.655 141.320  0.00  0.00    +0.000 C 
ATOM     29  C   UNL     1     112.863 129.692 141.213  0.00  0.00    +0.000 C 
ATOM     30  C   UNL     1     114.332 130.264 140.727  0.00  0.00    +0.000 C 
ATOM     31  C   UNL     1     113.282 129.301 140.620  0.00  0.00    +0.000 C 
BRANCH  30  33
ATOM     32  O   UNL     1     115.710 130.035 140.425  0.00  0.00    +0.000 OA
ATOM     33  C   UNL     1     115.066 130.549 140.483  0.00  0.00    +0.000 C 
ENDBRANCH  30  33
ENDBRANCH  22  31
ENDBRANCH   3  22
TORSDOF 6
ENDMDL
MODEL 2
REMARK VINA RESULT:      -8.7      2.538      4.591
REMARK  Name = 44258557
REMARK  6 active torsions:
REMARK  status: ('A' for Active; 'I' for Inactive)
REMARK    1  A    between atoms: O_2  and  C_15
REMARK    2  A    between atoms: O_2  and  C_17
REMARK    3  A    between atoms: O_8  and  C_21
REMARK    4  A    between atoms: O_9  and  C_22
REMARK    5  A    between atoms: C_14  and  C_16
REMARK    6  A    between atoms: C_24  and  C_26
REMARK                            x       y       z     vdW  Elec       q    Type
REMARK                         _______ _______ _______ _____ _____    ______ ____
ROOT
ATOM      1  O   UNL     1     112.781 126.663 137.601  0.00  0.00    +0.000 OA
ATOM      2  O   UNL     1     110.980 126.376 135.845  0.00  0.00    +0.000 OA
ATOM      3  C   UNL     1     110.784 127.484 137.089  0.00  0.00    +0.000 A 
ATOM      4  C   UNL     1     111.474 127.032 137.053  0.00  0.00    +0.000 A 
ATOM      5  C   UNL     1     110.680 128.031 137.697  0.00  0.00    +0.000 A 
ATOM      6  C   UNL     1     112.059 127.127 137.626  0.00  0.00    +0.000 A 
ATOM      7  C   UNL     1     111.266 128.127 138.270  0.00  0.00    +0.000 A 
ATOM      8  C   UNL     1     111.955 127.675 138.236  0.00  0.00    +0.000 A 
ATOM      9  C   UNL     1     111.570 126.466 136.415  0.00  0.00    +0.000 A 
ATOM     10  C   UNL     1     112.896 126.091 136.969  0.00  0.00    +0.000 A 
ATOM     11  C   UNL     1     112.286 125.992 136.372  0.00  0.00    +0.000 A 
ENDROOT
BRANCH  10  12
ATOM     12  C   UNL     1     113.587 125.641 136.938  0.00  0.00    +0.000 A 
ATOM     13  C   UNL     1     114.211 125.876 136.452  0.00  0.00    +0.000 A 
ATOM     14  C   UNL     1     113.653 124.955 137.392  0.00  0.00    +0.000 A 
ATOM     15  C   UNL     1     114.901 125.426 136.420  0.00  0.00    +0.000 A 
ATOM     16  C   UNL     1     114.343 124.504 137.360  0.00  0.00    +0.000 A 
ATOM     17  C   UNL     1     114.967 124.739 136.875  0.00  0.00    +0.000 A 
ENDBRANCH  10  12
BRANCH   7  18
ATOM     18  O   UNL     1     111.162 128.674 138.879  0.00  0.00    +0.000 OA
ATOM     19  C   UNL     1     110.430 128.738 139.255  0.00  0.00    +0.000 C 
ENDBRANCH   7  18
BRANCH   8  20
ATOM     20  O   UNL     1     112.540 127.771 138.809  0.00  0.00    +0.000 OA
ATOM     21  C   UNL     1     113.005 128.452 138.814  0.00  0.00    +0.000 C 
ENDBRANCH   8  20
BRANCH   3  22
ATOM     22  O   UNL     1     110.199 127.389 136.515  0.00  0.00    +0.000 OA
BRANCH  22  31
ATOM     23  O   UNL     1     110.362 128.605 135.783  0.00  0.00    +0.000 OA
ATOM     24  O   UNL     1     107.908 128.922 135.762  0.00  0.00    +0.000 OA
ATOM     25  O   UNL     1     108.889 130.031 135.037  0.00  0.00    +0.000 OA
ATOM     26  O   UNL     1     108.563 127.600 136.501  0.00  0.00    +0.000 OA
ATOM     27  C   UNL     1     108.726 128.816 135.769  0.00  0.00    +0.000 C 
ATOM     28  C   UNL     1     109.216 129.371 135.406  0.00  0.00    +0.000 C 
ATOM     29  C   UNL     1     109.053 128.155 136.139  0.00  0.00    +0.000 C 
ATOM     30  C   UNL     1     110.034 129.265 135.413  0.00  0.00    +0.000 C 
ATOM     31  C   UNL     1     109.871 128.049 136.146  0.00  0.00    +0.000 C 
BRANCH  30  33
ATOM     32  O   UNL     1     111.217 129.574 134.673  0.00  0.00    +0.000 OA
ATOM     33  C   UNL     1     110.526 129.820 135.051  0.00  0.00    +0.000 C 
ENDBRANCH  30  33
ENDBRANCH  22  31
ENDBRANCH   3  22
TORSDOF 6
ENDMDL
MODEL 3
REMARK VINA RESULT:      -8.7      3.179      5.093
REMARK  Name = 44258557
REMARK  6 active torsions:
REMARK  status: ('A' for Active; 'I' for Inactive)
REMARK    1  A    between atoms: O_2  and  C_15
REMARK    2  A    between atoms: O_2  and  C_17
REMARK    3  A    between atoms: O_8  and  C_21
REMARK    4  A    between atoms: O_9  and  C_22
REMARK    5  A    between atoms: C_14  and  C_16
REMARK    6  A    between atoms: C_24  and  C_26
REMARK                            x       y       z     vdW  Elec       q    Type
REMARK                         _______ _______ _______ _____ _____    ______ ____
ROOT
ATOM      1  O   UNL     1     113.075 129.071 135.331  0.00  0.00    +0.000 OA
ATOM      2  O   UNL     1     113.946 126.994 136.486  0.00  0.00    +0.000 OA
ATOM      3  C   UNL     1     112.347 127.080 135.988  0.00  0.00    +0.000 A 
ATOM      4  C   UNL     1     112.849 127.721 135.853  0.00  0.00    +0.000 A 
ATOM      5  C   UNL     1     111.560 127.115 135.746  0.00  0.00    +0.000 A 
ATOM      6  C   UNL     1     112.563 128.397 135.477  0.00  0.00    +0.000 A 
ATOM      7  C   UNL     1     111.273 127.790 135.369  0.00  0.00    +0.000 A 
ATOM      8  C   UNL     1     111.774 128.432 135.234  0.00  0.00    +0.000 A 
ATOM      9  C   UNL     1     113.668 127.673 136.110  0.00  0.00    +0.000 A 
ATOM     10  C   UNL     1     113.897 129.042 135.581  0.00  0.00    +0.000 A 
ATOM     11  C   UNL     1     114.195 128.338 135.973  0.00  0.00    +0.000 A 
ENDROOT
BRANCH  10  12
ATOM     12  C   UNL     1     114.396 129.685 135.444  0.00  0.00    +0.000 A 
ATOM     13  C   UNL     1     114.836 129.726 134.748  0.00  0.00    +0.000 A 
ATOM     14  C   UNL     1     114.453 130.287 136.005  0.00  0.00    +0.000 A 
ATOM     15  C   UNL     1     115.334 130.369 134.612  0.00  0.00    +0.000 A 
ATOM     16  C   UNL     1     114.952 130.931 135.870  0.00  0.00    +0.000 A 
ATOM     17  C   UNL     1     115.392 130.972 135.173  0.00  0.00    +0.000 A 
ENDBRANCH  10  12
BRANCH   7  18
ATOM     18  O   UNL     1     110.485 127.825 135.127  0.00  0.00    +0.000 OA
ATOM     19  C   UNL     1     110.145 127.182 134.737  0.00  0.00    +0.000 C 
ENDBRANCH   7  18
BRANCH   8  20
ATOM     20  O   UNL     1     111.488 129.108 134.858  0.00  0.00    +0.000 OA
ATOM     21  C   UNL     1     110.961 129.606 135.250  0.00  0.00    +0.000 C 
ENDBRANCH   8  20
BRANCH   3  22
ATOM     22  O   UNL     1     112.634 126.405 136.364  0.00  0.00    +0.000 OA
BRANCH  22  31
ATOM     23  O   UNL     1     111.954 126.518 137.616  0.00  0.00    +0.000 OA
ATOM     24  O   UNL     1     111.406 124.106 137.537  0.00  0.00    +0.000 OA
ATOM     25  O   UNL     1     110.909 125.023 138.814  0.00  0.00    +0.000 OA
ATOM     26  O   UNL     1     112.269 124.796 136.312  0.00  0.00    +0.000 OA
ATOM     27  C   UNL     1     111.589 124.910 137.564  0.00  0.00    +0.000 C 
ATOM     28  C   UNL     1     111.340 125.368 138.202  0.00  0.00    +0.000 C 
ATOM     29  C   UNL     1     112.020 125.255 136.950  0.00  0.00    +0.000 C 
ATOM     30  C   UNL     1     111.523 126.172 138.228  0.00  0.00    +0.000 C 
ATOM     31  C   UNL     1     112.203 126.059 136.977  0.00  0.00    +0.000 C 
BRANCH  30  33
ATOM     32  O   UNL     1     111.796 127.166 139.218  0.00  0.00    +0.000 OA
ATOM     33  C   UNL     1     111.274 126.632 138.867  0.00  0.00    +0.000 C 
ENDBRANCH  30  33
ENDBRANCH  22  31
ENDBRANCH   3  22
TORSDOF 6
ENDMDL
MODEL 4
REMARK VINA RESULT:      -8.6      2.936      4.152
REMARK  Name = 44258557
REMARK  6 active torsions:
REMARK  status: ('A' for Active; 'I' for Inactive)
REMARK    1  A    between atoms: O_2  and  C_15
REMARK    2  A    between atoms: O_2  and  C_17
REMARK    3  A    between atoms: O_8  and  C_21
REMARK    4  A    between atoms: O_9  and  C_22
REMARK    5  A    between atoms: C_14  and  C_16
REMARK    6  A    between atoms: C_24  and  C_26
REMARK                            x       y       z     vdW  Elec       q    Type
REMARK                         _______ _______ _______ _____ _____    ______ ____
ROOT
ATOM      1  O   UNL     1     113.413 127.433 136.927  0.00  0.00    +0.000 OA
ATOM      2  O   UNL     1     111.008 127.171 137.674  0.00  0.00    +0.000 OA
ATOM      3  C   UNL     1     111.591 128.669 137.196  0.00  0.00    +0.000 A 
ATOM      4  C   UNL     1     112.095 128.016 137.186  0.00  0.00    +0.000 A 
ATOM      5  C   UNL     1     111.869 129.409 136.962  0.00  0.00    +0.000 A 
ATOM      6  C   UNL     1     112.878 128.104 136.942  0.00  0.00    +0.000 A 
ATOM      7  C   UNL     1     112.652 129.497 136.718  0.00  0.00    +0.000 A 
ATOM      8  C   UNL     1     113.157 128.845 136.708  0.00  0.00    +0.000 A 
ATOM      9  C   UNL     1     111.793 127.251 137.432  0.00  0.00    +0.000 A 
ATOM     10  C   UNL     1     113.129 126.658 137.170  0.00  0.00    +0.000 A 
ATOM     11  C   UNL     1     112.314 126.567 137.424  0.00  0.00    +0.000 A 
ENDROOT
BRANCH  10  12
ATOM     12  C   UNL     1     113.637 126.007 137.158  0.00  0.00    +0.000 A 
ATOM     13  C   UNL     1     113.706 125.549 136.475  0.00  0.00    +0.000 A 
ATOM     14  C   UNL     1     114.075 125.815 137.830  0.00  0.00    +0.000 A 
ATOM     15  C   UNL     1     114.213 124.900 136.464  0.00  0.00    +0.000 A 
ATOM     16  C   UNL     1     114.583 125.165 137.820  0.00  0.00    +0.000 A 
ATOM     17  C   UNL     1     114.652 124.707 137.137  0.00  0.00    +0.000 A 
ENDBRANCH  10  12
BRANCH   7  18
ATOM     18  O   UNL     1     112.931 130.238 136.484  0.00  0.00    +0.000 OA
ATOM     19  C   UNL     1     112.746 130.907 136.930  0.00  0.00    +0.000 C 
ENDBRANCH   7  18
BRANCH   8  20
ATOM     20  O   UNL     1     113.940 128.933 136.464  0.00  0.00    +0.000 OA
ATOM     21  C   UNL     1     114.113 129.049 135.666  0.00  0.00    +0.000 C 
ENDBRANCH   8  20
BRANCH   3  22
ATOM     22  O   UNL     1     110.807 128.581 137.440  0.00  0.00    +0.000 OA
BRANCH  22  31
ATOM     23  O   UNL     1     110.149 128.737 136.181  0.00  0.00    +0.000 OA
ATOM     24  O   UNL     1     108.456 130.194 137.248  0.00  0.00    +0.000 OA
ATOM     25  O   UNL     1     108.362 129.864 135.635  0.00  0.00    +0.000 OA
ATOM     26  O   UNL     1     109.679 129.552 138.151  0.00  0.00    +0.000 OA
ATOM     27  C   UNL     1     109.020 129.708 136.892  0.00  0.00    +0.000 C 
ATOM     28  C   UNL     1     108.973 129.544 136.086  0.00  0.00    +0.000 C 
ATOM     29  C   UNL     1     109.631 129.388 137.345  0.00  0.00    +0.000 C 
ATOM     30  C   UNL     1     109.537 129.058 135.730  0.00  0.00    +0.000 C 
ATOM     31  C   UNL     1     110.196 128.902 136.989  0.00  0.00    +0.000 C 
BRANCH  30  33
ATOM     32  O   UNL     1     109.700 128.145 134.643  0.00  0.00    +0.000 OA
ATOM     33  C   UNL     1     109.491 128.893 134.924  0.00  0.00    +0.000 C 
ENDBRANCH  30  33
ENDBRANCH  22  31
ENDBRANCH   3  22
TORSDOF 6
ENDMDL
MODEL 5
REMARK VINA RESULT:      -8.6      1.452      2.330
REMARK  Name = 44258557
REMARK  6 active torsions:
REMARK  status: ('A' for Active; 'I' for Inactive)
REMARK    1  A    between atoms: O_2  and  C_15
REMARK    2  A    between atoms: O_2  and  C_17
REMARK    3  A    between atoms: O_8  and  C_21
REMARK    4  A    between atoms: O_9  and  C_22
REMARK    5  A    between atoms: C_14  and  C_16
REMARK    6  A    between atoms: C_24  and  C_26
REMARK                            x       y       z     vdW  Elec       q    Type
REMARK                         _______ _______ _______ _____ _____    ______ ____
ROOT
ATOM      1  O   UNL     1     112.996 126.836 137.652  0.00  0.00    +0.000 OA
ATOM      2  O   UNL     1     113.762 126.715 140.063  0.00  0.00    +0.000 OA
ATOM      3  C   UNL     1     112.743 127.947 139.556  0.00  0.00    +0.000 A 
ATOM      4  C   UNL     1     112.994 127.379 139.013  0.00  0.00    +0.000 A 
ATOM      5  C   UNL     1     112.242 128.556 139.316  0.00  0.00    +0.000 A 
ATOM      6  C   UNL     1     112.743 127.421 138.228  0.00  0.00    +0.000 A 
ATOM      7  C   UNL     1     111.991 128.598 138.531  0.00  0.00    +0.000 A 
ATOM      8  C   UNL     1     112.241 128.031 137.987  0.00  0.00    +0.000 A 
ATOM      9  C   UNL     1     113.516 126.750 139.276  0.00  0.00    +0.000 A 
ATOM     10  C   UNL     1     113.519 126.199 137.897  0.00  0.00    +0.000 A 
ATOM     11  C   UNL     1     113.780 126.155 138.714  0.00  0.00    +0.000 A 
ENDROOT
BRANCH  10  12
ATOM     12  C   UNL     1     113.767 125.633 137.350  0.00  0.00    +0.000 A 
ATOM     13  C   UNL     1     114.444 125.765 136.897  0.00  0.00    +0.000 A 
ATOM     14  C   UNL     1     113.338 124.934 137.256  0.00  0.00    +0.000 A 
ATOM     15  C   UNL     1     114.692 125.200 136.351  0.00  0.00    +0.000 A 
ATOM     16  C   UNL     1     113.586 124.368 136.710  0.00  0.00    +0.000 A 
ATOM     17  C   UNL     1     114.263 124.501 136.257  0.00  0.00    +0.000 A 
ENDBRANCH  10  12
BRANCH   7  18
ATOM     18  O   UNL     1     111.489 129.208 138.290  0.00  0.00    +0.000 OA
ATOM     19  C   UNL     1     111.621 129.978 138.553  0.00  0.00    +0.000 C 
ENDBRANCH   7  18
BRANCH   8  20
ATOM     20  O   UNL     1     111.990 128.073 137.202  0.00  0.00    +0.000 OA
ATOM     21  C   UNL     1     111.210 127.890 137.009  0.00  0.00    +0.000 C 
ENDBRANCH   8  20
BRANCH   3  22
ATOM     22  O   UNL     1     112.994 127.905 140.341  0.00  0.00    +0.000 OA
BRANCH  22  31
ATOM     23  O   UNL     1     111.796 127.422 140.952  0.00  0.00    +0.000 OA
ATOM     24  O   UNL     1     112.076 129.053 142.792  0.00  0.00    +0.000 OA
ATOM     25  O   UNL     1     110.785 128.026 142.789  0.00  0.00    +0.000 OA
ATOM     26  O   UNL     1     113.181 128.993 141.568  0.00  0.00    +0.000 OA
ATOM     27  C   UNL     1     111.983 128.509 142.179  0.00  0.00    +0.000 C 
ATOM     28  C   UNL     1     111.337 127.996 142.178  0.00  0.00    +0.000 C 
ATOM     29  C   UNL     1     112.535 128.480 141.567  0.00  0.00    +0.000 C 
ATOM     30  C   UNL     1     111.244 127.453 141.564  0.00  0.00    +0.000 C 
ATOM     31  C   UNL     1     112.442 127.936 140.953  0.00  0.00    +0.000 C 
BRANCH  30  33
ATOM     32  O   UNL     1     110.712 126.136 141.409  0.00  0.00    +0.000 OA
ATOM     33  C   UNL     1     110.599 126.939 141.562  0.00  0.00    +0.000 C 
ENDBRANCH  30  33
ENDBRANCH  22  31
ENDBRANCH   3  22
TORSDOF 6
ENDMDL
MODEL 6
REMARK VINA RESULT:      -8.5      2.486      3.517
REMARK  Name = 44258557
REMARK  6 active torsions:
REMARK  status: ('A' for Active; 'I' for Inactive)
REMARK    1  A    between atoms: O_2  and  C_15
REMARK    2  A    between atoms: O_2  and  C_17
REMARK    3  A    between atoms: O_8  and  C_21
REMARK    4  A    between atoms: O_9  and  C_22
REMARK    5  A    between atoms: C_14  and  C_16
REMARK    6  A    between atoms: C_24  and  C_26
REMARK                            x       y       z     vdW  Elec       q    Type
REMARK                         _______ _______ _______ _____ _____    ______ ____
ROOT
ATOM      1  O   UNL     1     113.824 127.438 136.468  0.00  0.00    +0.000 OA
ATOM      2  O   UNL     1     112.087 128.320 138.085  0.00  0.00    +0.000 OA
ATOM      3  C   UNL     1     112.940 129.373 137.098  0.00  0.00    +0.000 A 
ATOM      4  C   UNL     1     113.091 128.563 137.053  0.00  0.00    +0.000 A 
ATOM      5  C   UNL     1     113.355 129.898 136.616  0.00  0.00    +0.000 A 
ATOM      6  C   UNL     1     113.658 128.279 136.525  0.00  0.00    +0.000 A 
ATOM      7  C   UNL     1     113.922 129.613 136.088  0.00  0.00    +0.000 A 
ATOM      8  C   UNL     1     114.073 128.804 136.042  0.00  0.00    +0.000 A 
ATOM      9  C   UNL     1     112.652 128.027 137.560  0.00  0.00    +0.000 A 
ATOM     10  C   UNL     1     113.395 126.886 136.968  0.00  0.00    +0.000 A 
ATOM     11  C   UNL     1     112.805 127.182 137.517  0.00  0.00    +0.000 A 
ENDROOT
BRANCH  10  12
ATOM     12  C   UNL     1     113.549 126.076 136.919  0.00  0.00    +0.000 A 
ATOM     13  C   UNL     1     113.047 125.585 136.485  0.00  0.00    +0.000 A 
ATOM     14  C   UNL     1     114.205 125.758 137.306  0.00  0.00    +0.000 A 
ATOM     15  C   UNL     1     113.201 124.777 136.437  0.00  0.00    +0.000 A 
ATOM     16  C   UNL     1     114.359 124.949 137.258  0.00  0.00    +0.000 A 
ATOM     17  C   UNL     1     113.858 124.458 136.824  0.00  0.00    +0.000 A 
ENDBRANCH  10  12
BRANCH   7  18
ATOM     18  O   UNL     1     114.337 130.139 135.605  0.00  0.00    +0.000 OA
ATOM     19  C   UNL     1     114.662 130.825 135.928  0.00  0.00    +0.000 C 
ENDBRANCH   7  18
BRANCH   8  20
ATOM     20  O   UNL     1     114.640 128.519 135.514  0.00  0.00    +0.000 OA
ATOM     21  C   UNL     1     114.524 128.602 134.702  0.00  0.00    +0.000 C 
ENDBRANCH   8  20
BRANCH   3  22
ATOM     22  O   UNL     1     112.374 129.658 137.626  0.00  0.00    +0.000 OA
BRANCH  22  31
ATOM     23  O   UNL     1     111.345 130.043 136.712  0.00  0.00    +0.000 OA
ATOM     24  O   UNL     1     111.060 132.178 137.932  0.00  0.00    +0.000 OA
ATOM     25  O   UNL     1     110.127 131.851 136.612  0.00  0.00    +0.000 OA
ATOM     26  O   UNL     1     112.184 131.081 138.439  0.00  0.00    +0.000 OA
ATOM     27  C   UNL     1     111.155 131.466 137.525  0.00  0.00    +0.000 C 
ATOM     28  C   UNL     1     110.688 131.303 136.866  0.00  0.00    +0.000 C 
ATOM     29  C   UNL     1     111.717 130.918 137.780  0.00  0.00    +0.000 C 
ATOM     30  C   UNL     1     110.784 130.592 136.459  0.00  0.00    +0.000 C 
ATOM     31  C   UNL     1     111.812 130.207 137.373  0.00  0.00    +0.000 C 
BRANCH  30  33
ATOM     32  O   UNL     1     110.016 129.668 135.685  0.00  0.00    +0.000 OA
ATOM     33  C   UNL     1     110.317 130.428 135.799  0.00  0.00    +0.000 C 
ENDBRANCH  30  33
ENDBRANCH  22  31
ENDBRANCH   3  22
TORSDOF 6
ENDMDL
MODEL 7
REMARK VINA RESULT:      -8.3      3.567      4.746
REMARK  Name = 44258557
REMARK  6 active torsions:
REMARK  status: ('A' for Active; 'I' for Inactive)
REMARK    1  A    between atoms: O_2  and  C_15
REMARK    2  A    between atoms: O_2  and  C_17
REMARK    3  A    between atoms: O_8  and  C_21
REMARK    4  A    between atoms: O_9  and  C_22
REMARK    5  A    between atoms: C_14  and  C_16
REMARK    6  A    between atoms: C_24  and  C_26
REMARK                            x       y       z     vdW  Elec       q    Type
REMARK                         _______ _______ _______ _____ _____    ______ ____
ROOT
ATOM      1  O   UNL     1     111.811 126.337 136.307  0.00  0.00    +0.000 OA
ATOM      2  O   UNL     1     109.341 126.866 136.127  0.00  0.00    +0.000 OA
ATOM      3  C   UNL     1     110.487 128.061 135.859  0.00  0.00    +0.000 A 
ATOM      4  C   UNL     1     110.735 127.297 136.051  0.00  0.00    +0.000 A 
ATOM      5  C   UNL     1     111.043 128.654 135.726  0.00  0.00    +0.000 A 
ATOM      6  C   UNL     1     111.540 127.128 136.109  0.00  0.00    +0.000 A 
ATOM      7  C   UNL     1     111.849 128.485 135.784  0.00  0.00    +0.000 A 
ATOM      8  C   UNL     1     112.098 127.722 135.976  0.00  0.00    +0.000 A 
ATOM      9  C   UNL     1     110.145 126.688 136.187  0.00  0.00    +0.000 A 
ATOM     10  C   UNL     1     111.236 125.714 136.448  0.00  0.00    +0.000 A 
ATOM     11  C   UNL     1     110.397 125.891 136.387  0.00  0.00    +0.000 A 
ENDROOT
BRANCH  10  12
ATOM     12  C   UNL     1     111.488 124.952 136.639  0.00  0.00    +0.000 A 
ATOM     13  C   UNL     1     111.550 124.723 137.429  0.00  0.00    +0.000 A 
ATOM     14  C   UNL     1     111.677 124.418 136.039  0.00  0.00    +0.000 A 
ATOM     15  C   UNL     1     111.802 123.962 137.620  0.00  0.00    +0.000 A 
ATOM     16  C   UNL     1     111.929 123.656 136.229  0.00  0.00    +0.000 A 
ATOM     17  C   UNL     1     111.991 123.427 137.020  0.00  0.00    +0.000 A 
ENDBRANCH  10  12
BRANCH   7  18
ATOM     18  O   UNL     1     112.406 129.079 135.651  0.00  0.00    +0.000 OA
ATOM     19  C   UNL     1     112.344 129.559 134.983  0.00  0.00    +0.000 C 
ENDBRANCH   7  18
BRANCH   8  20
ATOM     20  O   UNL     1     112.903 127.553 136.034  0.00  0.00    +0.000 OA
ATOM     21  C   UNL     1     113.339 127.839 136.672  0.00  0.00    +0.000 C 
ENDBRANCH   8  20
BRANCH   3  22
ATOM     22  O   UNL     1     109.682 128.230 135.801  0.00  0.00    +0.000 OA
BRANCH  22  31
ATOM     23  O   UNL     1     109.518 129.033 136.972  0.00  0.00    +0.000 OA
ATOM     24  O   UNL     1     108.157 130.644 135.677  0.00  0.00    +0.000 OA
ATOM     25  O   UNL     1     108.447 130.909 137.279  0.00  0.00    +0.000 OA
ATOM     26  O   UNL     1     108.774 129.304 134.938  0.00  0.00    +0.000 OA
ATOM     27  C   UNL     1     108.611 130.107 136.109  0.00  0.00    +0.000 C 
ATOM     28  C   UNL     1     108.756 130.240 136.909  0.00  0.00    +0.000 C 
ATOM     29  C   UNL     1     108.919 129.437 135.738  0.00  0.00    +0.000 C 
ATOM     30  C   UNL     1     109.209 129.703 137.341  0.00  0.00    +0.000 C 
ATOM     31  C   UNL     1     109.373 128.900 136.170  0.00  0.00    +0.000 C 
BRANCH  30  33
ATOM     32  O   UNL     1     109.241 129.226 138.687  0.00  0.00    +0.000 OA
ATOM     33  C   UNL     1     109.355 129.835 138.142  0.00  0.00    +0.000 C 
ENDBRANCH  30  33
ENDBRANCH  22  31
ENDBRANCH   3  22
TORSDOF 6
ENDMDL
MODEL 8
REMARK VINA RESULT:      -8.3      1.552      3.430
REMARK  Name = 44258557
REMARK  6 active torsions:
REMARK  status: ('A' for Active; 'I' for Inactive)
REMARK    1  A    between atoms: O_2  and  C_15
REMARK    2  A    between atoms: O_2  and  C_17
REMARK    3  A    between atoms: O_8  and  C_21
REMARK    4  A    between atoms: O_9  and  C_22
REMARK    5  A    between atoms: C_14  and  C_16
REMARK    6  A    between atoms: C_24  and  C_26
REMARK                            x       y       z     vdW  Elec       q    Type
REMARK                         _______ _______ _______ _____ _____    ______ ____
ROOT
ATOM      1  O   UNL     1     112.760 126.281 137.942  0.00  0.00    +0.000 OA
ATOM      2  O   UNL     1     113.247 127.930 136.084  0.00  0.00    +0.000 OA
ATOM      3  C   UNL     1     113.224 128.435 137.682  0.00  0.00    +0.000 A 
ATOM      4  C   UNL     1     113.075 127.643 137.505  0.00  0.00    +0.000 A 
ATOM      5  C   UNL     1     113.215 128.692 138.466  0.00  0.00    +0.000 A 
ATOM      6  C   UNL     1     112.917 127.108 138.113  0.00  0.00    +0.000 A 
ATOM      7  C   UNL     1     113.057 128.157 139.073  0.00  0.00    +0.000 A 
ATOM      8  C   UNL     1     112.908 127.365 138.897  0.00  0.00    +0.000 A 
ATOM      9  C   UNL     1     113.088 127.388 136.685  0.00  0.00    +0.000 A 
ATOM     10  C   UNL     1     112.768 126.007 137.127  0.00  0.00    +0.000 A 
ATOM     11  C   UNL     1     112.933 126.564 136.495  0.00  0.00    +0.000 A 
ENDROOT
BRANCH  10  12
ATOM     12  C   UNL     1     112.619 125.214 136.954  0.00  0.00    +0.000 A 
ATOM     13  C   UNL     1     113.230 124.661 136.989  0.00  0.00    +0.000 A 
ATOM     14  C   UNL     1     111.857 124.974 136.746  0.00  0.00    +0.000 A 
ATOM     15  C   UNL     1     113.080 123.869 136.817  0.00  0.00    +0.000 A 
ATOM     16  C   UNL     1     111.707 124.182 136.573  0.00  0.00    +0.000 A 
ATOM     17  C   UNL     1     112.318 123.629 136.609  0.00  0.00    +0.000 A 
ENDBRANCH  10  12
BRANCH   7  18
ATOM     18  O   UNL     1     113.048 128.414 139.858  0.00  0.00    +0.000 OA
ATOM     19  C   UNL     1     113.646 128.909 140.136  0.00  0.00    +0.000 C 
ENDBRANCH   7  18
BRANCH   8  20
ATOM     20  O   UNL     1     112.749 126.830 139.505  0.00  0.00    +0.000 OA
ATOM     21  C   UNL     1     112.023 126.852 139.894  0.00  0.00    +0.000 C 
ENDBRANCH   8  20
BRANCH   3  22
ATOM     22  O   UNL     1     113.383 128.971 137.075  0.00  0.00    +0.000 OA
BRANCH  22  31
ATOM     23  O   UNL     1     112.171 129.728 137.108  0.00  0.00    +0.000 OA
ATOM     24  O   UNL     1     113.473 131.821 136.883  0.00  0.00    +0.000 OA
ATOM     25  O   UNL     1     111.828 131.880 136.991  0.00  0.00    +0.000 OA
ATOM     26  O   UNL     1     114.250 130.366 136.925  0.00  0.00    +0.000 OA
ATOM     27  C   UNL     1     113.039 131.123 136.958  0.00  0.00    +0.000 C 
ATOM     28  C   UNL     1     112.217 131.153 137.012  0.00  0.00    +0.000 C 
ATOM     29  C   UNL     1     113.428 130.396 136.979  0.00  0.00    +0.000 C 
ATOM     30  C   UNL     1     111.783 130.455 137.087  0.00  0.00    +0.000 C 
ATOM     31  C   UNL     1     112.994 129.698 137.054  0.00  0.00    +0.000 C 
BRANCH  30  33
ATOM     32  O   UNL     1     110.500 129.949 136.712  0.00  0.00    +0.000 OA
ATOM     33  C   UNL     1     110.960 130.484 137.141  0.00  0.00    +0.000 C 
ENDBRANCH  30  33
ENDBRANCH  22  31
ENDBRANCH   3  22
TORSDOF 6
ENDMDL
MODEL 9
REMARK VINA RESULT:      -8.2      2.370      3.475
REMARK  Name = 44258557
REMARK  6 active torsions:
REMARK  status: ('A' for Active; 'I' for Inactive)
REMARK    1  A    between atoms: O_2  and  C_15
REMARK    2  A    between atoms: O_2  and  C_17
REMARK    3  A    between atoms: O_8  and  C_21
REMARK    4  A    between atoms: O_9  and  C_22
REMARK    5  A    between atoms: C_14  and  C_16
REMARK    6  A    between atoms: C_24  and  C_26
REMARK                            x       y       z     vdW  Elec       q    Type
REMARK                         _______ _______ _______ _____ _____    ______ ____
ROOT
ATOM      1  O   UNL     1     112.423 126.643 137.898  0.00  0.00    +0.000 OA
ATOM      2  O   UNL     1     113.381 128.926 137.370  0.00  0.00    +0.000 OA
ATOM      3  C   UNL     1     111.880 128.784 138.105  0.00  0.00    +0.000 A 
ATOM      4  C   UNL     1     112.305 128.103 137.916  0.00  0.00    +0.000 A 
ATOM      5  C   UNL     1     111.142 128.723 138.466  0.00  0.00    +0.000 A 
ATOM      6  C   UNL     1     111.991 127.360 138.089  0.00  0.00    +0.000 A 
ATOM      7  C   UNL     1     110.827 127.981 138.639  0.00  0.00    +0.000 A 
ATOM      8  C   UNL     1     111.251 127.299 138.451  0.00  0.00    +0.000 A 
ATOM      9  C   UNL     1     113.074 128.179 137.540  0.00  0.00    +0.000 A 
ATOM     10  C   UNL     1     113.193 126.699 137.521  0.00  0.00    +0.000 A 
ATOM     11  C   UNL     1     113.521 127.473 137.341  0.00  0.00    +0.000 A 
ENDROOT
BRANCH  10  12
ATOM     12  C   UNL     1     113.616 126.015 137.334  0.00  0.00    +0.000 A 
ATOM     13  C   UNL     1     114.150 125.697 137.877  0.00  0.00    +0.000 A 
ATOM     14  C   UNL     1     113.503 125.649 136.603  0.00  0.00    +0.000 A 
ATOM     15  C   UNL     1     114.571 125.014 137.690  0.00  0.00    +0.000 A 
ATOM     16  C   UNL     1     113.924 124.965 136.415  0.00  0.00    +0.000 A 
ATOM     17  C   UNL     1     114.458 124.647 136.958  0.00  0.00    +0.000 A 
ENDBRANCH  10  12
BRANCH   7  18
ATOM     18  O   UNL     1     110.087 127.919 139.001  0.00  0.00    +0.000 OA
ATOM     19  C   UNL     1     109.902 128.404 139.642  0.00  0.00    +0.000 C 
ENDBRANCH   7  18
BRANCH   8  20
ATOM     20  O   UNL     1     110.937 126.556 138.624  0.00  0.00    +0.000 OA
ATOM     21  C   UNL     1     110.303 126.264 138.185  0.00  0.00    +0.000 C 
ENDBRANCH   8  20
BRANCH   3  22
ATOM     22  O   UNL     1     112.195 129.527 137.932  0.00  0.00    +0.000 OA
BRANCH  22  31
ATOM     23  O   UNL     1     111.331 129.918 136.862  0.00  0.00    +0.000 OA
ATOM     24  O   UNL     1     111.113 132.171 137.862  0.00  0.00    +0.000 OA
ATOM     25  O   UNL     1     110.322 131.810 136.460  0.00  0.00    +0.000 OA
ATOM     26  O   UNL     1     112.049 131.029 138.598  0.00  0.00    +0.000 OA
ATOM     27  C   UNL     1     111.185 131.420 137.529  0.00  0.00    +0.000 C 
ATOM     28  C   UNL     1     110.790 131.240 136.828  0.00  0.00    +0.000 C 
ATOM     29  C   UNL     1     111.654 130.849 137.897  0.00  0.00    +0.000 C 
ATOM     30  C   UNL     1     110.863 130.489 136.495  0.00  0.00    +0.000 C 
ATOM     31  C   UNL     1     111.727 130.098 137.564  0.00  0.00    +0.000 C 
BRANCH  30  33
ATOM     32  O   UNL     1     110.846 129.863 135.211  0.00  0.00    +0.000 OA
ATOM     33  C   UNL     1     110.468 130.308 135.794  0.00  0.00    +0.000 C 
ENDBRANCH  30  33
ENDBRANCH  22  31
ENDBRANCH   3  22
TORSDOF 6
ENDMDL
MODEL 10
REMARK VINA RESULT:      -8.2      2.058      2.962
REMARK  Name = 44258557
REMARK  6 active torsions:
REMARK  status: ('A' for Active; 'I' for Inactive)
REMARK    1  A    between atoms: O_2  and  C_15
REMARK    2  A    between atoms: O_2  and  C_17
REMARK    3  A    between atoms: O_8  and  C_21
REMARK    4  A    between atoms: O_9  and  C_22
REMARK    5  A    between atoms: C_14  and  C_16
REMARK    6  A    between atoms: C_24  and  C_26
REMARK                            x       y       z     vdW  Elec       q    Type
REMARK                         _______ _______ _______ _____ _____    ______ ____
ROOT
ATOM      1  O   UNL     1     112.923 126.970 136.676  0.00  0.00    +0.000 OA
ATOM      2  O   UNL     1     111.095 126.965 138.427  0.00  0.00    +0.000 OA
ATOM      3  C   UNL     1     111.190 128.206 137.304  0.00  0.00    +0.000 A 
ATOM      4  C   UNL     1     111.745 127.595 137.282  0.00  0.00    +0.000 A 
ATOM      5  C   UNL     1     111.230 128.820 136.755  0.00  0.00    +0.000 A 
ATOM      6  C   UNL     1     112.340 127.600 136.710  0.00  0.00    +0.000 A 
ATOM      7  C   UNL     1     111.825 128.824 136.183  0.00  0.00    +0.000 A 
ATOM      8  C   UNL     1     112.380 128.215 136.160  0.00  0.00    +0.000 A 
ATOM      9  C   UNL     1     111.693 126.962 137.859  0.00  0.00    +0.000 A 
ATOM     10  C   UNL     1     112.887 126.327 137.246  0.00  0.00    +0.000 A 
ATOM     11  C   UNL     1     112.268 126.323 137.841  0.00  0.00    +0.000 A 
ENDROOT
BRANCH  10  12
ATOM     12  C   UNL     1     113.444 125.718 137.220  0.00  0.00    +0.000 A 
ATOM     13  C   UNL     1     114.096 125.733 137.726  0.00  0.00    +0.000 A 
ATOM     14  C   UNL     1     113.348 125.095 136.688  0.00  0.00    +0.000 A 
ATOM     15  C   UNL     1     114.652 125.125 137.700  0.00  0.00    +0.000 A 
ATOM     16  C   UNL     1     113.904 124.486 136.662  0.00  0.00    +0.000 A 
ATOM     17  C   UNL     1     114.556 124.501 137.168  0.00  0.00    +0.000 A 
ENDBRANCH  10  12
BRANCH   7  18
ATOM     18  O   UNL     1     111.865 129.439 135.634  0.00  0.00    +0.000 OA
ATOM     19  C   UNL     1     111.182 129.689 135.245  0.00  0.00    +0.000 C 
ENDBRANCH   7  18
BRANCH   8  20
ATOM     20  O   UNL     1     112.975 128.219 135.589  0.00  0.00    +0.000 OA
ATOM     21  C   UNL     1     113.604 128.747 135.653  0.00  0.00    +0.000 C 
ENDBRANCH   8  20
BRANCH   3  22
ATOM     22  O   UNL     1     110.595 128.202 137.875  0.00  0.00    +0.000 OA
BRANCH  22  31
ATOM     23  O   UNL     1     111.026 129.289 138.696  0.00  0.00    +0.000 OA
ATOM     24  O   UNL     1     108.708 130.152 138.770  0.00  0.00    +0.000 OA
ATOM     25  O   UNL     1     109.911 130.951 139.566  0.00  0.00    +0.000 OA
ATOM     26  O   UNL     1     109.050 128.777 137.924  0.00  0.00    +0.000 OA
ATOM     27  C   UNL     1     109.480 129.864 138.745  0.00  0.00    +0.000 C 
ATOM     28  C   UNL     1     110.082 130.264 139.143  0.00  0.00    +0.000 C 
ATOM     29  C   UNL     1     109.651 129.177 138.322  0.00  0.00    +0.000 C 
ATOM     30  C   UNL     1     110.854 129.976 139.119  0.00  0.00    +0.000 C 
ATOM     31  C   UNL     1     110.424 128.889 138.298  0.00  0.00    +0.000 C 
BRANCH  30  33
ATOM     32  O   UNL     1     112.026 129.950 139.936  0.00  0.00    +0.000 OA
ATOM     33  C   UNL     1     111.457 130.376 139.517  0.00  0.00    +0.000 C 
ENDBRANCH  30  33
ENDBRANCH  22  31
ENDBRANCH   3  22
TORSDOF 6
ENDMDL
