MODEL 1
REMARK VINA RESULT:     -10.8      0.000      0.000
REMARK  Name = 44259369
REMARK  10 active torsions:
REMARK  status: ('A' for Active; 'I' for Inactive)
REMARK    1  A    between atoms: O_2  and  C_27
REMARK    2  A    between atoms: O_2  and  C_31
REMARK    3  A    between atoms: O_5  and  C_29
REMARK    4  A    between atoms: O_5  and  C_40
REMARK    5  A    between atoms: O_12  and  C_37
REMARK    6  A    between atoms: O_12  and  C_41
REMARK    7  A    between atoms: O_20  and  C_52
REMARK    8  A    between atoms: C_22  and  C_31
REMARK    9  A    between atoms: C_36  and  C_39
REMARK   10  A    between atoms: C_42  and  C_49
REMARK                            x       y       z     vdW  Elec       q    Type
REMARK                         _______ _______ _______ _____ _____    ______ ____
ROOT
ATOM      1  O   UNL     1     112.858 128.501 138.090  0.00  0.00    +0.000 OA
ATOM      2  O   UNL     1     113.828 128.444 140.366  0.00  0.00    +0.000 OA
ATOM      3  O   UNL     1     113.354 127.095 140.565  0.00  0.00    +0.000 OA
ATOM      4  C   UNL     1     113.583 129.140 139.143  0.00  0.00    +0.000 A 
ATOM      5  C   UNL     1     112.274 126.437 138.716  0.00  0.00    +0.000 A 
ATOM      6  C   UNL     1     113.260 129.159 138.384  0.00  0.00    +0.000 A 
ATOM      7  C   UNL     1     113.505 128.463 139.607  0.00  0.00    +0.000 A 
ATOM      8  C   UNL     1     113.103 127.805 139.314  0.00  0.00    +0.000 A 
ATOM      9  C   UNL     1     112.780 127.824 138.555  0.00  0.00    +0.000 A 
ATOM     10  C   UNL     1     112.359 127.146 138.237  0.00  0.00    +0.000 A 
ATOM     11  C   UNL     1     112.610 126.417 139.507  0.00  0.00    +0.000 A 
ATOM     12  C   UNL     1     113.028 127.106 139.807  0.00  0.00    +0.000 A 
ENDROOT
BRANCH   6  14
ATOM     13  O   UNL     1     113.576 131.865 136.522  0.00  0.00    +0.000 OA
ATOM     14  C   UNL     1     113.338 129.835 137.919  0.00  0.00    +0.000 A 
ATOM     15  C   UNL     1     112.692 130.336 137.805  0.00  0.00    +0.000 A 
ATOM     16  C   UNL     1     114.064 130.012 137.567  0.00  0.00    +0.000 A 
ATOM     17  C   UNL     1     112.772 131.012 137.340  0.00  0.00    +0.000 A 
ATOM     18  C   UNL     1     114.142 130.688 137.101  0.00  0.00    +0.000 A 
ATOM     19  C   UNL     1     113.496 131.189 136.988  0.00  0.00    +0.000 A 
BRANCH  17  20
ATOM     20  O   UNL     1     112.126 131.512 137.226  0.00  0.00    +0.000 OA
ATOM     21  C   UNL     1     111.383 131.195 137.053  0.00  0.00    +0.000 C 
ENDBRANCH  17  20
ENDBRANCH   6  14
BRANCH   4  22
ATOM     22  O   UNL     1     113.985 129.797 139.437  0.00  0.00    +0.000 OA
BRANCH  22  31
ATOM     23  O   UNL     1     112.912 130.162 140.307  0.00  0.00    +0.000 OA
ATOM     24  O   UNL     1     112.905 131.305 142.166  0.00  0.00    +0.000 OA
ATOM     25  O   UNL     1     114.512 131.330 141.790  0.00  0.00    +0.000 OA
ATOM     26  O   UNL     1     115.051 130.576 140.426  0.00  0.00    +0.000 OA
ATOM     27  C   UNL     1     112.642 130.539 140.990  0.00  0.00    +0.000 C 
ATOM     28  C   UNL     1     113.175 130.928 141.484  0.00  0.00    +0.000 C 
ATOM     29  C   UNL     1     113.979 130.941 141.296  0.00  0.00    +0.000 C 
ATOM     30  C   UNL     1     114.249 130.564 140.614  0.00  0.00    +0.000 C 
ATOM     31  C   UNL     1     113.715 130.174 140.119  0.00  0.00    +0.000 C 
BRANCH  27  32
ATOM     32  C   UNL     1     111.839 130.527 141.177  0.00  0.00    +0.000 C 
BRANCH  32  33
ATOM     33  O   UNL     1     111.293 130.890 140.677  0.00  0.00    +0.000 OA
BRANCH  33  39
ATOM     34  O   UNL     1     110.414 129.764 140.700  0.00  0.00    +0.000 OA
ATOM     35  O   UNL     1     110.025 131.874 140.293  0.00  0.00    +0.000 OA
ATOM     36  O   UNL     1     108.511 131.239 140.124  0.00  0.00    +0.000 OA
ATOM     37  O   UNL     1     108.266 129.622 140.338  0.00  0.00    +0.000 OA
ATOM     38  C   UNL     1     109.902 131.065 140.400  0.00  0.00    +0.000 C 
ATOM     39  C   UNL     1     110.536 130.573 140.592  0.00  0.00    +0.000 C 
ATOM     40  C   UNL     1     109.145 130.748 140.316  0.00  0.00    +0.000 C 
ATOM     41  C   UNL     1     109.022 129.939 140.423  0.00  0.00    +0.000 C 
ATOM     42  C   UNL     1     109.656 129.447 140.615  0.00  0.00    +0.000 C 
ATOM     43  C   UNL     1     109.534 128.639 140.722  0.00  0.00    +0.000 C 
ENDBRANCH  33  39
ENDBRANCH  32  33
ENDBRANCH  27  32
ENDBRANCH  22  31
ENDBRANCH   4  22
BRANCH   5  44
ATOM     44  O   UNL     1     111.871 125.781 138.419  0.00  0.00    +0.000 OA
BRANCH  44  53
ATOM     45  O   UNL     1     113.035 125.152 137.877  0.00  0.00    +0.000 OA
ATOM     46  O   UNL     1     111.664 124.186 136.057  0.00  0.00    +0.000 OA
ATOM     47  O   UNL     1     113.285 123.879 136.122  0.00  0.00    +0.000 OA
ATOM     48  O   UNL     1     110.958 125.136 137.206  0.00  0.00    +0.000 OA
ATOM     49  C   UNL     1     112.121 124.508 136.663  0.00  0.00    +0.000 C 
ATOM     50  C   UNL     1     112.931 124.355 136.696  0.00  0.00    +0.000 C 
ATOM     51  C   UNL     1     111.768 124.983 137.238  0.00  0.00    +0.000 C 
ATOM     52  C   UNL     1     113.388 124.677 137.303  0.00  0.00    +0.000 C 
ATOM     53  C   UNL     1     112.225 125.305 137.845  0.00  0.00    +0.000 C 
BRANCH  52  55
ATOM     54  O   UNL     1     114.738 125.142 137.248  0.00  0.00    +0.000 OA
ATOM     55  C   UNL     1     114.198 124.524 137.336  0.00  0.00    +0.000 C 
ENDBRANCH  52  55
ENDBRANCH  44  53
ENDBRANCH   5  44
TORSDOF 10
ENDMDL
MODEL 2
REMARK VINA RESULT:     -10.7      2.213      5.006
REMARK  Name = 44259369
REMARK  10 active torsions:
REMARK  status: ('A' for Active; 'I' for Inactive)
REMARK    1  A    between atoms: O_2  and  C_27
REMARK    2  A    between atoms: O_2  and  C_31
REMARK    3  A    between atoms: O_5  and  C_29
REMARK    4  A    between atoms: O_5  and  C_40
REMARK    5  A    between atoms: O_12  and  C_37
REMARK    6  A    between atoms: O_12  and  C_41
REMARK    7  A    between atoms: O_20  and  C_52
REMARK    8  A    between atoms: C_22  and  C_31
REMARK    9  A    between atoms: C_36  and  C_39
REMARK   10  A    between atoms: C_42  and  C_49
REMARK                            x       y       z     vdW  Elec       q    Type
REMARK                         _______ _______ _______ _____ _____    ______ ____
ROOT
ATOM      1  O   UNL     1     111.776 129.182 135.818  0.00  0.00    +0.000 OA
ATOM      2  O   UNL     1     111.610 126.906 136.775  0.00  0.00    +0.000 OA
ATOM      3  O   UNL     1     110.169 126.994 136.809  0.00  0.00    +0.000 OA
ATOM      4  C   UNL     1     112.404 127.987 136.286  0.00  0.00    +0.000 A 
ATOM      5  C   UNL     1     109.557 128.994 136.006  0.00  0.00    +0.000 A 
ATOM      6  C   UNL     1     112.460 128.746 135.967  0.00  0.00    +0.000 A 
ATOM      7  C   UNL     1     111.665 127.665 136.456  0.00  0.00    +0.000 A 
ATOM      8  C   UNL     1     110.980 128.100 136.308  0.00  0.00    +0.000 A 
ATOM      9  C   UNL     1     111.035 128.859 135.989  0.00  0.00    +0.000 A 
ATOM     10  C   UNL     1     110.330 129.323 135.830  0.00  0.00    +0.000 A 
ATOM     11  C   UNL     1     109.499 128.203 136.338  0.00  0.00    +0.000 A 
ATOM     12  C   UNL     1     110.216 127.753 136.490  0.00  0.00    +0.000 A 
ENDROOT
BRANCH   6  14
ATOM     13  O   UNL     1     115.418 130.037 135.281  0.00  0.00    +0.000 OA
ATOM     14  C   UNL     1     113.199 129.069 135.796  0.00  0.00    +0.000 A 
ATOM     15  C   UNL     1     113.508 129.668 136.271  0.00  0.00    +0.000 A 
ATOM     16  C   UNL     1     113.630 128.792 135.148  0.00  0.00    +0.000 A 
ATOM     17  C   UNL     1     114.248 129.990 136.099  0.00  0.00    +0.000 A 
ATOM     18  C   UNL     1     114.370 129.115 134.977  0.00  0.00    +0.000 A 
ATOM     19  C   UNL     1     114.678 129.714 135.453  0.00  0.00    +0.000 A 
BRANCH  17  20
ATOM     20  O   UNL     1     114.557 130.590 136.575  0.00  0.00    +0.000 OA
ATOM     21  C   UNL     1     114.062 131.186 136.861  0.00  0.00    +0.000 C 
ENDBRANCH  17  20
ENDBRANCH   6  14
BRANCH   4  22
ATOM     22  O   UNL     1     113.088 127.551 136.434  0.00  0.00    +0.000 OA
BRANCH  22  31
ATOM     23  O   UNL     1     113.080 127.738 137.851  0.00  0.00    +0.000 OA
ATOM     24  O   UNL     1     113.692 126.412 139.471  0.00  0.00    +0.000 OA
ATOM     25  O   UNL     1     114.011 125.466 138.157  0.00  0.00    +0.000 OA
ATOM     26  O   UNL     1     113.709 126.036 136.638  0.00  0.00    +0.000 OA
ATOM     27  C   UNL     1     113.231 127.453 138.610  0.00  0.00    +0.000 C 
ATOM     28  C   UNL     1     113.541 126.696 138.712  0.00  0.00    +0.000 C 
ATOM     29  C   UNL     1     113.701 126.223 138.055  0.00  0.00    +0.000 C 
ATOM     30  C   UNL     1     113.550 126.508 137.296  0.00  0.00    +0.000 C 
ATOM     31  C   UNL     1     113.239 127.266 137.193  0.00  0.00    +0.000 C 
BRANCH  27  32
ATOM     32  C   UNL     1     113.072 127.926 139.267  0.00  0.00    +0.000 C 
BRANCH  32  33
ATOM     33  O   UNL     1     113.438 128.661 139.344  0.00  0.00    +0.000 OA
BRANCH  33  39
ATOM     34  O   UNL     1     112.372 129.191 140.134  0.00  0.00    +0.000 OA
ATOM     35  O   UNL     1     114.475 129.761 140.006  0.00  0.00    +0.000 OA
ATOM     36  O   UNL     1     113.927 130.841 141.127  0.00  0.00    +0.000 OA
ATOM     37  O   UNL     1     112.342 130.821 141.586  0.00  0.00    +0.000 OA
ATOM     38  C   UNL     1     113.682 129.751 140.236  0.00  0.00    +0.000 C 
ATOM     39  C   UNL     1     113.164 129.201 139.905  0.00  0.00    +0.000 C 
ATOM     40  C   UNL     1     113.409 130.291 140.796  0.00  0.00    +0.000 C 
ATOM     41  C   UNL     1     112.616 130.281 141.026  0.00  0.00    +0.000 C 
ATOM     42  C   UNL     1     112.098 129.732 140.695  0.00  0.00    +0.000 C 
ATOM     43  C   UNL     1     111.305 129.721 140.924  0.00  0.00    +0.000 C 
ENDBRANCH  33  39
ENDBRANCH  32  33
ENDBRANCH  27  32
ENDBRANCH  22  31
ENDBRANCH   4  22
BRANCH   5  44
ATOM     44  O   UNL     1     108.874 129.432 135.856  0.00  0.00    +0.000 OA
BRANCH  44  53
ATOM     45  O   UNL     1     108.882 130.150 137.092  0.00  0.00    +0.000 OA
ATOM     46  O   UNL     1     107.968 132.142 135.941  0.00  0.00    +0.000 OA
ATOM     47  O   UNL     1     108.282 132.195 137.560  0.00  0.00    +0.000 OA
ATOM     48  O   UNL     1     108.264 130.759 135.089  0.00  0.00    +0.000 OA
ATOM     49  C   UNL     1     108.273 131.478 136.324  0.00  0.00    +0.000 C 
ATOM     50  C   UNL     1     108.430 131.504 137.134  0.00  0.00    +0.000 C 
ATOM     51  C   UNL     1     108.421 130.787 135.898  0.00  0.00    +0.000 C 
ATOM     52  C   UNL     1     108.735 130.840 137.518  0.00  0.00    +0.000 C 
ATOM     53  C   UNL     1     108.726 130.123 136.282  0.00  0.00    +0.000 C 
BRANCH  52  55
ATOM     54  O   UNL     1     108.556 130.307 138.831  0.00  0.00    +0.000 OA
ATOM     55  C   UNL     1     108.891 130.868 138.327  0.00  0.00    +0.000 C 
ENDBRANCH  52  55
ENDBRANCH  44  53
ENDBRANCH   5  44
TORSDOF 10
ENDMDL
MODEL 3
REMARK VINA RESULT:     -10.6      1.743      4.937
REMARK  Name = 44259369
REMARK  10 active torsions:
REMARK  status: ('A' for Active; 'I' for Inactive)
REMARK    1  A    between atoms: O_2  and  C_27
REMARK    2  A    between atoms: O_2  and  C_31
REMARK    3  A    between atoms: O_5  and  C_29
REMARK    4  A    between atoms: O_5  and  C_40
REMARK    5  A    between atoms: O_12  and  C_37
REMARK    6  A    between atoms: O_12  and  C_41
REMARK    7  A    between atoms: O_20  and  C_52
REMARK    8  A    between atoms: C_22  and  C_31
REMARK    9  A    between atoms: C_36  and  C_39
REMARK   10  A    between atoms: C_42  and  C_49
REMARK                            x       y       z     vdW  Elec       q    Type
REMARK                         _______ _______ _______ _____ _____    ______ ____
ROOT
ATOM      1  O   UNL     1     111.825 130.502 138.909  0.00  0.00    +0.000 OA
ATOM      2  O   UNL     1     114.218 130.435 138.284  0.00  0.00    +0.000 OA
ATOM      3  O   UNL     1     114.574 129.923 139.586  0.00  0.00    +0.000 OA
ATOM      4  C   UNL     1     112.860 130.721 137.949  0.00  0.00    +0.000 A 
ATOM      5  C   UNL     1     112.706 129.712 140.805  0.00  0.00    +0.000 A 
ATOM      6  C   UNL     1     112.062 130.744 138.157  0.00  0.00    +0.000 A 
ATOM      7  C   UNL     1     113.420 130.457 138.492  0.00  0.00    +0.000 A 
ATOM      8  C   UNL     1     113.184 130.215 139.245  0.00  0.00    +0.000 A 
ATOM      9  C   UNL     1     112.386 130.238 139.454  0.00  0.00    +0.000 A 
ATOM     10  C   UNL     1     112.127 129.989 140.234  0.00  0.00    +0.000 A 
ATOM     11  C   UNL     1     113.538 129.689 140.588  0.00  0.00    +0.000 A 
ATOM     12  C   UNL     1     113.778 129.942 139.802  0.00  0.00    +0.000 A 
ENDROOT
BRANCH   6  14
ATOM     13  O   UNL     1     109.816 131.802 135.983  0.00  0.00    +0.000 OA
ATOM     14  C   UNL     1     111.500 131.007 137.614  0.00  0.00    +0.000 A 
ATOM     15  C   UNL     1     110.990 130.469 137.253  0.00  0.00    +0.000 A 
ATOM     16  C   UNL     1     111.449 131.811 137.431  0.00  0.00    +0.000 A 
ATOM     17  C   UNL     1     110.428 130.734 136.709  0.00  0.00    +0.000 A 
ATOM     18  C   UNL     1     110.887 132.075 136.888  0.00  0.00    +0.000 A 
ATOM     19  C   UNL     1     110.377 131.537 136.527  0.00  0.00    +0.000 A 
BRANCH  17  20
ATOM     20  O   UNL     1     109.918 130.196 136.348  0.00  0.00    +0.000 OA
ATOM     21  C   UNL     1     109.517 129.637 136.805  0.00  0.00    +0.000 C 
ENDBRANCH  17  20
ENDBRANCH   6  14
BRANCH   4  22
ATOM     22  O   UNL     1     113.096 130.963 137.197  0.00  0.00    +0.000 OA
BRANCH  22  31
ATOM     23  O   UNL     1     113.333 129.634 136.726  0.00  0.00    +0.000 OA
ATOM     24  O   UNL     1     114.729 128.876 135.231  0.00  0.00    +0.000 OA
ATOM     25  O   UNL     1     115.073 130.489 135.188  0.00  0.00    +0.000 OA
ATOM     26  O   UNL     1     114.256 131.533 136.171  0.00  0.00    +0.000 OA
ATOM     27  C   UNL     1     113.742 129.113 136.235  0.00  0.00    +0.000 C 
ATOM     28  C   UNL     1     114.321 129.397 135.722  0.00  0.00    +0.000 C 
ATOM     29  C   UNL     1     114.493 130.204 135.700  0.00  0.00    +0.000 C 
ATOM     30  C   UNL     1     114.085 130.726 136.192  0.00  0.00    +0.000 C 
ATOM     31  C   UNL     1     113.504 130.441 136.705  0.00  0.00    +0.000 C 
BRANCH  27  32
ATOM     32  C   UNL     1     113.570 128.307 136.256  0.00  0.00    +0.000 C 
BRANCH  32  33
ATOM     33  O   UNL     1     112.792 128.048 136.161  0.00  0.00    +0.000 OA
BRANCH  33  39
ATOM     34  O   UNL     1     113.036 126.830 136.868  0.00  0.00    +0.000 OA
ATOM     35  O   UNL     1     111.522 127.341 135.381  0.00  0.00    +0.000 OA
ATOM     36  O   UNL     1     111.130 125.770 135.697  0.00  0.00    +0.000 OA
ATOM     37  O   UNL     1     112.010 124.905 136.794  0.00  0.00    +0.000 OA
ATOM     38  C   UNL     1     111.961 126.908 135.929  0.00  0.00    +0.000 C 
ATOM     39  C   UNL     1     112.596 127.262 136.319  0.00  0.00    +0.000 C 
ATOM     40  C   UNL     1     111.766 126.123 136.087  0.00  0.00    +0.000 C 
ATOM     41  C   UNL     1     112.205 125.690 136.636  0.00  0.00    +0.000 C 
ATOM     42  C   UNL     1     112.840 126.044 137.026  0.00  0.00    +0.000 C 
ATOM     43  C   UNL     1     113.280 125.612 137.574  0.00  0.00    +0.000 C 
ENDBRANCH  33  39
ENDBRANCH  32  33
ENDBRANCH  27  32
ENDBRANCH  22  31
ENDBRANCH   4  22
BRANCH   5  44
ATOM     44  O   UNL     1     112.467 129.471 141.557  0.00  0.00    +0.000 OA
BRANCH  44  53
ATOM     45  O   UNL     1     112.212 128.101 141.239  0.00  0.00    +0.000 OA
ATOM     46  O   UNL     1     110.232 128.125 142.724  0.00  0.00    +0.000 OA
ATOM     47  O   UNL     1     110.638 126.747 141.911  0.00  0.00    +0.000 OA
ATOM     48  O   UNL     1     111.147 129.487 142.547  0.00  0.00    +0.000 OA
ATOM     49  C   UNL     1     110.892 128.117 142.229  0.00  0.00    +0.000 C 
ATOM     50  C   UNL     1     111.096 127.428 141.822  0.00  0.00    +0.000 C 
ATOM     51  C   UNL     1     111.350 128.798 142.141  0.00  0.00    +0.000 C 
ATOM     52  C   UNL     1     111.756 127.420 141.327  0.00  0.00    +0.000 C 
ATOM     53  C   UNL     1     112.010 128.790 141.646  0.00  0.00    +0.000 C 
BRANCH  52  55
ATOM     54  O   UNL     1     112.724 126.430 140.978  0.00  0.00    +0.000 OA
ATOM     55  C   UNL     1     111.958 126.732 140.921  0.00  0.00    +0.000 C 
ENDBRANCH  52  55
ENDBRANCH  44  53
ENDBRANCH   5  44
TORSDOF 10
ENDMDL
MODEL 4
REMARK VINA RESULT:     -10.5      2.196      5.830
REMARK  Name = 44259369
REMARK  10 active torsions:
REMARK  status: ('A' for Active; 'I' for Inactive)
REMARK    1  A    between atoms: O_2  and  C_27
REMARK    2  A    between atoms: O_2  and  C_31
REMARK    3  A    between atoms: O_5  and  C_29
REMARK    4  A    between atoms: O_5  and  C_40
REMARK    5  A    between atoms: O_12  and  C_37
REMARK    6  A    between atoms: O_12  and  C_41
REMARK    7  A    between atoms: O_20  and  C_52
REMARK    8  A    between atoms: C_22  and  C_31
REMARK    9  A    between atoms: C_36  and  C_39
REMARK   10  A    between atoms: C_42  and  C_49
REMARK                            x       y       z     vdW  Elec       q    Type
REMARK                         _______ _______ _______ _____ _____    ______ ____
ROOT
ATOM      1  O   UNL     1     112.038 129.218 138.721  0.00  0.00    +0.000 OA
ATOM      2  O   UNL     1     109.574 129.370 138.555  0.00  0.00    +0.000 OA
ATOM      3  O   UNL     1     109.427 128.983 139.937  0.00  0.00    +0.000 OA
ATOM      4  C   UNL     1     110.864 129.486 137.953  0.00  0.00    +0.000 A 
ATOM      5  C   UNL     1     111.465 128.649 140.806  0.00  0.00    +0.000 A 
ATOM      6  C   UNL     1     111.685 129.436 138.008  0.00  0.00    +0.000 A 
ATOM      7  C   UNL     1     110.395 129.319 138.610  0.00  0.00    +0.000 A 
ATOM      8  C   UNL     1     110.747 129.101 139.324  0.00  0.00    +0.000 A 
ATOM      9  C   UNL     1     111.569 129.050 139.380  0.00  0.00    +0.000 A 
ATOM     10  C   UNL     1     111.948 128.825 140.116  0.00  0.00    +0.000 A 
ATOM     11  C   UNL     1     110.609 128.702 140.748  0.00  0.00    +0.000 A 
ATOM     12  C   UNL     1     110.248 128.930 140.001  0.00  0.00    +0.000 A 
ENDROOT
BRANCH   6  14
ATOM     13  O   UNL     1     113.563 130.107 135.379  0.00  0.00    +0.000 OA
ATOM     14  C   UNL     1     112.155 129.603 137.351  0.00  0.00    +0.000 A 
ATOM     15  C   UNL     1     112.520 128.989 136.938  0.00  0.00    +0.000 A 
ATOM     16  C   UNL     1     112.259 130.385 137.107  0.00  0.00    +0.000 A 
ATOM     17  C   UNL     1     112.989 129.158 136.280  0.00  0.00    +0.000 A 
ATOM     18  C   UNL     1     112.729 130.552 136.450  0.00  0.00    +0.000 A 
ATOM     19  C   UNL     1     113.094 129.938 136.037  0.00  0.00    +0.000 A 
BRANCH  17  20
ATOM     20  O   UNL     1     113.355 128.544 135.867  0.00  0.00    +0.000 OA
ATOM     21  C   UNL     1     113.644 127.887 136.274  0.00  0.00    +0.000 C 
ENDBRANCH  17  20
ENDBRANCH   6  14
BRANCH   4  22
ATOM     22  O   UNL     1     110.512 129.704 137.240  0.00  0.00    +0.000 OA
BRANCH  22  31
ATOM     23  O   UNL     1     110.074 128.381 136.922  0.00  0.00    +0.000 OA
ATOM     24  O   UNL     1     108.350 127.681 135.782  0.00  0.00    +0.000 OA
ATOM     25  O   UNL     1     108.144 129.316 135.688  0.00  0.00    +0.000 OA
ATOM     26  O   UNL     1     109.225 130.327 136.417  0.00  0.00    +0.000 OA
ATOM     27  C   UNL     1     109.533 127.876 136.558  0.00  0.00    +0.000 C 
ATOM     28  C   UNL     1     108.890 128.187 136.147  0.00  0.00    +0.000 C 
ATOM     29  C   UNL     1     108.787 129.004 136.099  0.00  0.00    +0.000 C 
ATOM     30  C   UNL     1     109.327 129.510 136.463  0.00  0.00    +0.000 C 
ATOM     31  C   UNL     1     109.971 129.199 136.875  0.00  0.00    +0.000 C 
BRANCH  27  32
ATOM     32  C   UNL     1     109.636 127.059 136.605  0.00  0.00    +0.000 C 
BRANCH  32  33
ATOM     33  O   UNL     1     110.312 126.710 136.286  0.00  0.00    +0.000 OA
BRANCH  33  39
ATOM     34  O   UNL     1     110.707 126.019 137.472  0.00  0.00    +0.000 OA
ATOM     35  O   UNL     1     110.862 125.452 135.370  0.00  0.00    +0.000 OA
ATOM     36  O   UNL     1     111.532 124.132 136.099  0.00  0.00    +0.000 OA
ATOM     37  O   UNL     1     111.651 124.070 137.744  0.00  0.00    +0.000 OA
ATOM     38  C   UNL     1     110.922 125.420 136.193  0.00  0.00    +0.000 C 
ATOM     39  C   UNL     1     110.647 126.049 136.650  0.00  0.00    +0.000 C 
ATOM     40  C   UNL     1     111.257 124.761 136.557  0.00  0.00    +0.000 C 
ATOM     41  C   UNL     1     111.317 124.729 137.379  0.00  0.00    +0.000 C 
ATOM     42  C   UNL     1     111.042 125.358 137.837  0.00  0.00    +0.000 C 
ATOM     43  C   UNL     1     111.101 125.327 138.659  0.00  0.00    +0.000 C 
ENDBRANCH  33  39
ENDBRANCH  32  33
ENDBRANCH  27  32
ENDBRANCH  22  31
ENDBRANCH   4  22
BRANCH   5  44
ATOM     44  O   UNL     1     111.820 128.431 141.518  0.00  0.00    +0.000 OA
BRANCH  44  53
ATOM     45  O   UNL     1     112.069 129.740 142.036  0.00  0.00    +0.000 OA
ATOM     46  O   UNL     1     111.380 128.978 144.288  0.00  0.00    +0.000 OA
ATOM     47  O   UNL     1     111.858 130.541 144.055  0.00  0.00    +0.000 OA
ATOM     48  O   UNL     1     111.361 127.924 143.019  0.00  0.00    +0.000 OA
ATOM     49  C   UNL     1     111.609 129.232 143.538  0.00  0.00    +0.000 C 
ATOM     50  C   UNL     1     111.849 130.013 143.421  0.00  0.00    +0.000 C 
ATOM     51  C   UNL     1     111.600 128.705 142.903  0.00  0.00    +0.000 C 
ATOM     52  C   UNL     1     112.078 130.267 142.670  0.00  0.00    +0.000 C 
ATOM     53  C   UNL     1     111.830 128.958 142.152  0.00  0.00    +0.000 C 
BRANCH  52  55
ATOM     54  O   UNL     1     113.007 131.209 142.131  0.00  0.00    +0.000 OA
ATOM     55  C   UNL     1     112.317 131.048 142.554  0.00  0.00    +0.000 C 
ENDBRANCH  52  55
ENDBRANCH  44  53
ENDBRANCH   5  44
TORSDOF 10
ENDMDL
MODEL 5
REMARK VINA RESULT:     -10.5      1.876      5.603
REMARK  Name = 44259369
REMARK  10 active torsions:
REMARK  status: ('A' for Active; 'I' for Inactive)
REMARK    1  A    between atoms: O_2  and  C_27
REMARK    2  A    between atoms: O_2  and  C_31
REMARK    3  A    between atoms: O_5  and  C_29
REMARK    4  A    between atoms: O_5  and  C_40
REMARK    5  A    between atoms: O_12  and  C_37
REMARK    6  A    between atoms: O_12  and  C_41
REMARK    7  A    between atoms: O_20  and  C_52
REMARK    8  A    between atoms: C_22  and  C_31
REMARK    9  A    between atoms: C_36  and  C_39
REMARK   10  A    between atoms: C_42  and  C_49
REMARK                            x       y       z     vdW  Elec       q    Type
REMARK                         _______ _______ _______ _____ _____    ______ ____
ROOT
ATOM      1  O   UNL     1     111.353 128.795 136.304  0.00  0.00    +0.000 OA
ATOM      2  O   UNL     1     113.759 128.404 136.730  0.00  0.00    +0.000 OA
ATOM      3  O   UNL     1     113.936 129.773 137.153  0.00  0.00    +0.000 OA
ATOM      4  C   UNL     1     112.483 127.920 136.311  0.00  0.00    +0.000 A 
ATOM      5  C   UNL     1     111.964 130.826 137.008  0.00  0.00    +0.000 A 
ATOM      6  C   UNL     1     111.681 128.050 136.168  0.00  0.00    +0.000 A 
ATOM      7  C   UNL     1     112.957 128.534 136.588  0.00  0.00    +0.000 A 
ATOM      8  C   UNL     1     112.630 129.280 136.724  0.00  0.00    +0.000 A 
ATOM      9  C   UNL     1     111.828 129.410 136.582  0.00  0.00    +0.000 A 
ATOM     10  C   UNL     1     111.475 130.181 136.719  0.00  0.00    +0.000 A 
ATOM     11  C   UNL     1     112.800 130.690 137.156  0.00  0.00    +0.000 A 
ATOM     12  C   UNL     1     113.135 129.912 137.013  0.00  0.00    +0.000 A 
ENDROOT
BRANCH   6  14
ATOM     13  O   UNL     1     109.781 125.592 135.054  0.00  0.00    +0.000 OA
ATOM     14  C   UNL     1     111.206 127.436 135.891  0.00  0.00    +0.000 A 
ATOM     15  C   UNL     1     110.673 127.063 136.399  0.00  0.00    +0.000 A 
ATOM     16  C   UNL     1     111.263 127.194 135.103  0.00  0.00    +0.000 A 
ATOM     17  C   UNL     1     110.198 126.449 136.120  0.00  0.00    +0.000 A 
ATOM     18  C   UNL     1     110.788 126.579 134.825  0.00  0.00    +0.000 A 
ATOM     19  C   UNL     1     110.256 126.207 135.334  0.00  0.00    +0.000 A 
BRANCH  17  20
ATOM     20  O   UNL     1     109.665 126.076 136.628  0.00  0.00    +0.000 OA
ATOM     21  C   UNL     1     109.272 126.514 137.207  0.00  0.00    +0.000 C 
ENDBRANCH  17  20
ENDBRANCH   6  14
BRANCH   4  22
ATOM     22  O   UNL     1     112.810 127.175 136.175  0.00  0.00    +0.000 OA
BRANCH  22  31
ATOM     23  O   UNL     1     112.938 126.883 137.568  0.00  0.00    +0.000 OA
ATOM     24  O   UNL     1     114.313 125.563 138.630  0.00  0.00    +0.000 OA
ATOM     25  O   UNL     1     114.809 125.341 137.072  0.00  0.00    +0.000 OA
ATOM     26  O   UNL     1     114.057 126.147 135.845  0.00  0.00    +0.000 OA
ATOM     27  C   UNL     1     113.314 126.479 138.182  0.00  0.00    +0.000 C 
ATOM     28  C   UNL     1     113.937 125.966 138.016  0.00  0.00    +0.000 C 
ATOM     29  C   UNL     1     114.186 125.855 137.237  0.00  0.00    +0.000 C 
ATOM     30  C   UNL     1     113.810 126.258 136.624  0.00  0.00    +0.000 C 
ATOM     31  C   UNL     1     113.186 126.772 136.789  0.00  0.00    +0.000 C 
BRANCH  27  32
ATOM     32  C   UNL     1     113.066 126.590 138.960  0.00  0.00    +0.000 C 
BRANCH  32  33
ATOM     33  O   UNL     1     112.268 126.512 139.154  0.00  0.00    +0.000 OA
BRANCH  33  39
ATOM     34  O   UNL     1     112.355 127.364 140.298  0.00  0.00    +0.000 OA
ATOM     35  O   UNL     1     111.032 125.683 139.865  0.00  0.00    +0.000 OA
ATOM     36  O   UNL     1     110.500 126.120 141.365  0.00  0.00    +0.000 OA
ATOM     37  O   UNL     1     111.205 127.386 142.153  0.00  0.00    +0.000 OA
ATOM     38  C   UNL     1     111.384 126.316 140.260  0.00  0.00    +0.000 C 
ATOM     39  C   UNL     1     112.002 126.731 139.904  0.00  0.00    +0.000 C 
ATOM     40  C   UNL     1     111.118 126.534 141.009  0.00  0.00    +0.000 C 
ATOM     41  C   UNL     1     111.470 127.168 141.404  0.00  0.00    +0.000 C 
ATOM     42  C   UNL     1     112.089 127.583 141.048  0.00  0.00    +0.000 C 
ATOM     43  C   UNL     1     112.441 128.216 141.442  0.00  0.00    +0.000 C 
ENDBRANCH  33  39
ENDBRANCH  32  33
ENDBRANCH  27  32
ENDBRANCH  22  31
ENDBRANCH   4  22
BRANCH   5  44
ATOM     44  O   UNL     1     111.634 131.570 137.143  0.00  0.00    +0.000 OA
BRANCH  44  53
ATOM     45  O   UNL     1     111.141 131.314 138.460  0.00  0.00    +0.000 OA
ATOM     46  O   UNL     1     109.117 132.649 137.963  0.00  0.00    +0.000 OA
ATOM     47  O   UNL     1     109.300 131.947 139.445  0.00  0.00    +0.000 OA
ATOM     48  O   UNL     1     110.285 132.460 136.812  0.00  0.00    +0.000 OA
ATOM     49  C   UNL     1     109.792 132.204 138.128  0.00  0.00    +0.000 C 
ATOM     50  C   UNL     1     109.884 131.853 138.870  0.00  0.00    +0.000 C 
ATOM     51  C   UNL     1     110.376 132.110 137.553  0.00  0.00    +0.000 C 
ATOM     52  C   UNL     1     110.558 131.408 139.035  0.00  0.00    +0.000 C 
ATOM     53  C   UNL     1     111.050 131.665 137.718  0.00  0.00    +0.000 C 
BRANCH  52  55
ATOM     54  O   UNL     1     111.329 131.202 140.220  0.00  0.00    +0.000 OA
ATOM     55  C   UNL     1     110.649 131.057 139.776  0.00  0.00    +0.000 C 
ENDBRANCH  52  55
ENDBRANCH  44  53
ENDBRANCH   5  44
TORSDOF 10
ENDMDL
MODEL 6
REMARK VINA RESULT:     -10.5      1.959      5.970
REMARK  Name = 44259369
REMARK  10 active torsions:
REMARK  status: ('A' for Active; 'I' for Inactive)
REMARK    1  A    between atoms: O_2  and  C_27
REMARK    2  A    between atoms: O_2  and  C_31
REMARK    3  A    between atoms: O_5  and  C_29
REMARK    4  A    between atoms: O_5  and  C_40
REMARK    5  A    between atoms: O_12  and  C_37
REMARK    6  A    between atoms: O_12  and  C_41
REMARK    7  A    between atoms: O_20  and  C_52
REMARK    8  A    between atoms: C_22  and  C_31
REMARK    9  A    between atoms: C_36  and  C_39
REMARK   10  A    between atoms: C_42  and  C_49
REMARK                            x       y       z     vdW  Elec       q    Type
REMARK                         _______ _______ _______ _____ _____    ______ ____
ROOT
ATOM      1  O   UNL     1     111.669 125.822 138.939  0.00  0.00    +0.000 OA
ATOM      2  O   UNL     1     109.697 126.948 137.955  0.00  0.00    +0.000 OA
ATOM      3  O   UNL     1     109.401 127.591 139.212  0.00  0.00    +0.000 OA
ATOM      4  C   UNL     1     110.818 126.073 137.819  0.00  0.00    +0.000 A 
ATOM      5  C   UNL     1     110.937 126.962 140.717  0.00  0.00    +0.000 A 
ATOM      6  C   UNL     1     111.475 125.698 138.147  0.00  0.00    +0.000 A 
ATOM      7  C   UNL     1     110.355 126.573 138.283  0.00  0.00    +0.000 A 
ATOM      8  C   UNL     1     110.547 126.697 139.076  0.00  0.00    +0.000 A 
ATOM      9  C   UNL     1     111.205 126.322 139.404  0.00  0.00    +0.000 A 
ATOM     10  C   UNL     1     111.416 126.443 140.227  0.00  0.00    +0.000 A 
ATOM     11  C   UNL     1     110.252 127.353 140.375  0.00  0.00    +0.000 A 
ATOM     12  C   UNL     1     110.056 127.220 139.548  0.00  0.00    +0.000 A 
ENDROOT
BRANCH   6  14
ATOM     13  O   UNL     1     113.332 123.697 136.292  0.00  0.00    +0.000 OA
ATOM     14  C   UNL     1     111.940 125.198 137.683  0.00  0.00    +0.000 A 
ATOM     15  C   UNL     1     112.685 125.445 137.428  0.00  0.00    +0.000 A 
ATOM     16  C   UNL     1     111.659 124.450 137.474  0.00  0.00    +0.000 A 
ATOM     17  C   UNL     1     113.148 124.944 136.965  0.00  0.00    +0.000 A 
ATOM     18  C   UNL     1     112.123 123.951 137.011  0.00  0.00    +0.000 A 
ATOM     19  C   UNL     1     112.868 124.198 136.756  0.00  0.00    +0.000 A 
BRANCH  17  20
ATOM     20  O   UNL     1     113.893 125.191 136.710  0.00  0.00    +0.000 OA
ATOM     21  C   UNL     1     114.407 125.565 137.237  0.00  0.00    +0.000 C 
ENDBRANCH  17  20
ENDBRANCH   6  14
BRANCH   4  22
ATOM     22  O   UNL     1     110.625 125.949 137.027  0.00  0.00    +0.000 OA
BRANCH  22  31
ATOM     23  O   UNL     1     111.102 127.228 136.604  0.00  0.00    +0.000 OA
ATOM     24  O   UNL     1     110.490 128.504 134.942  0.00  0.00    +0.000 OA
ATOM     25  O   UNL     1     109.469 127.222 134.745  0.00  0.00    +0.000 OA
ATOM     26  O   UNL     1     109.537 125.945 135.787  0.00  0.00    +0.000 OA
ATOM     27  C   UNL     1     111.068 127.867 136.083  0.00  0.00    +0.000 C 
ATOM     28  C   UNL     1     110.524 127.865 135.463  0.00  0.00    +0.000 C 
ATOM     29  C   UNL     1     110.013 127.224 135.364  0.00  0.00    +0.000 C 
ATOM     30  C   UNL     1     110.047 126.586 135.885  0.00  0.00    +0.000 C 
ATOM     31  C   UNL     1     110.592 126.588 136.506  0.00  0.00    +0.000 C 
BRANCH  27  32
ATOM     32  C   UNL     1     111.578 128.507 136.182  0.00  0.00    +0.000 C 
BRANCH  32  33
ATOM     33  O   UNL     1     112.394 128.387 136.186  0.00  0.00    +0.000 OA
BRANCH  33  39
ATOM     34  O   UNL     1     112.677 129.504 137.031  0.00  0.00    +0.000 OA
ATOM     35  O   UNL     1     113.848 128.588 135.433  0.00  0.00    +0.000 OA
ATOM     36  O   UNL     1     114.859 129.805 135.901  0.00  0.00    +0.000 OA
ATOM     37  O   UNL     1     114.415 130.822 137.122  0.00  0.00    +0.000 OA
ATOM     38  C   UNL     1     113.627 129.097 136.044  0.00  0.00    +0.000 C 
ATOM     39  C   UNL     1     112.900 128.996 136.420  0.00  0.00    +0.000 C 
ATOM     40  C   UNL     1     114.131 129.705 136.277  0.00  0.00    +0.000 C 
ATOM     41  C   UNL     1     113.910 130.214 136.888  0.00  0.00    +0.000 C 
ATOM     42  C   UNL     1     113.183 130.114 137.265  0.00  0.00    +0.000 C 
ATOM     43  C   UNL     1     112.961 130.622 137.875  0.00  0.00    +0.000 C 
ENDBRANCH  33  39
ENDBRANCH  32  33
ENDBRANCH  27  32
ENDBRANCH  22  31
ENDBRANCH   4  22
BRANCH   5  44
ATOM     44  O   UNL     1     111.133 127.084 141.509  0.00  0.00    +0.000 OA
BRANCH  44  53
ATOM     45  O   UNL     1     112.166 128.054 141.326  0.00  0.00    +0.000 OA
ATOM     46  O   UNL     1     111.299 129.342 143.254  0.00  0.00    +0.000 OA
ATOM     47  O   UNL     1     112.622 129.882 142.427  0.00  0.00    +0.000 OA
ATOM     48  O   UNL     1     110.555 127.942 142.794  0.00  0.00    +0.000 OA
ATOM     49  C   UNL     1     111.588 128.913 142.611  0.00  0.00    +0.000 C 
ATOM     50  C   UNL     1     112.249 129.183 142.197  0.00  0.00    +0.000 C 
ATOM     51  C   UNL     1     111.216 128.213 142.381  0.00  0.00    +0.000 C 
ATOM     52  C   UNL     1     112.538 128.754 141.555  0.00  0.00    +0.000 C 
ATOM     53  C   UNL     1     111.505 127.784 141.739  0.00  0.00    +0.000 C 
BRANCH  52  55
ATOM     54  O   UNL     1     113.849 128.527 141.033  0.00  0.00    +0.000 OA
ATOM     55  C   UNL     1     113.199 129.024 141.142  0.00  0.00    +0.000 C 
ENDBRANCH  52  55
ENDBRANCH  44  53
ENDBRANCH   5  44
TORSDOF 10
ENDMDL
MODEL 7
REMARK VINA RESULT:     -10.4      1.958      5.929
REMARK  Name = 44259369
REMARK  10 active torsions:
REMARK  status: ('A' for Active; 'I' for Inactive)
REMARK    1  A    between atoms: O_2  and  C_27
REMARK    2  A    between atoms: O_2  and  C_31
REMARK    3  A    between atoms: O_5  and  C_29
REMARK    4  A    between atoms: O_5  and  C_40
REMARK    5  A    between atoms: O_12  and  C_37
REMARK    6  A    between atoms: O_12  and  C_41
REMARK    7  A    between atoms: O_20  and  C_52
REMARK    8  A    between atoms: C_22  and  C_31
REMARK    9  A    between atoms: C_36  and  C_39
REMARK   10  A    between atoms: C_42  and  C_49
REMARK                            x       y       z     vdW  Elec       q    Type
REMARK                         _______ _______ _______ _____ _____    ______ ____
ROOT
ATOM      1  O   UNL     1     111.345 129.080 139.292  0.00  0.00    +0.000 OA
ATOM      2  O   UNL     1     113.456 129.935 138.324  0.00  0.00    +0.000 OA
ATOM      3  O   UNL     1     114.127 129.802 139.595  0.00  0.00    +0.000 OA
ATOM      4  C   UNL     1     112.082 129.579 138.174  0.00  0.00    +0.000 A 
ATOM      5  C   UNL     1     112.667 128.998 141.093  0.00  0.00    +0.000 A 
ATOM      6  C   UNL     1     111.378 129.294 138.496  0.00  0.00    +0.000 A 
ATOM      7  C   UNL     1     112.753 129.650 138.647  0.00  0.00    +0.000 A 
ATOM      8  C   UNL     1     112.722 129.437 139.443  0.00  0.00    +0.000 A 
ATOM      9  C   UNL     1     112.018 129.152 139.766  0.00  0.00    +0.000 A 
ATOM     10  C   UNL     1     111.972 128.926 140.593  0.00  0.00    +0.000 A 
ATOM     11  C   UNL     1     113.401 129.295 140.756  0.00  0.00    +0.000 A 
ATOM     12  C   UNL     1     113.428 129.516 139.926  0.00  0.00    +0.000 A 
ENDROOT
BRANCH   6  14
ATOM     13  O   UNL     1     108.689 129.011 136.604  0.00  0.00    +0.000 OA
ATOM     14  C   UNL     1     110.706 129.223 138.023  0.00  0.00    +0.000 A 
ATOM     15  C   UNL     1     110.429 128.476 137.809  0.00  0.00    +0.000 A 
ATOM     16  C   UNL     1     110.310 129.900 137.765  0.00  0.00    +0.000 A 
ATOM     17  C   UNL     1     109.757 128.405 137.336  0.00  0.00    +0.000 A 
ATOM     18  C   UNL     1     109.638 129.828 137.292  0.00  0.00    +0.000 A 
ATOM     19  C   UNL     1     109.361 129.081 137.077  0.00  0.00    +0.000 A 
BRANCH  17  20
ATOM     20  O   UNL     1     109.480 127.658 137.121  0.00  0.00    +0.000 OA
ATOM     21  C   UNL     1     109.468 127.047 137.676  0.00  0.00    +0.000 C 
ENDBRANCH  17  20
ENDBRANCH   6  14
BRANCH   4  22
ATOM     22  O   UNL     1     112.113 129.793 137.378  0.00  0.00    +0.000 OA
BRANCH  22  31
ATOM     23  O   UNL     1     112.841 128.641 136.947  0.00  0.00    +0.000 OA
ATOM     24  O   UNL     1     114.347 128.403 135.385  0.00  0.00    +0.000 OA
ATOM     25  O   UNL     1     114.008 130.012 135.249  0.00  0.00    +0.000 OA
ATOM     26  O   UNL     1     112.891 130.707 136.246  0.00  0.00    +0.000 OA
ATOM     27  C   UNL     1     113.400 128.294 136.449  0.00  0.00    +0.000 C 
ATOM     28  C   UNL     1     113.788 128.751 135.883  0.00  0.00    +0.000 C 
ATOM     29  C   UNL     1     113.619 129.555 135.815  0.00  0.00    +0.000 C 
ATOM     30  C   UNL     1     113.061 129.903 136.313  0.00  0.00    +0.000 C 
ATOM     31  C   UNL     1     112.672 129.445 136.880  0.00  0.00    +0.000 C 
BRANCH  27  32
ATOM     32  C   UNL     1     113.569 127.490 136.517  0.00  0.00    +0.000 C 
BRANCH  32  33
ATOM     33  O   UNL     1     112.960 126.935 136.474  0.00  0.00    +0.000 OA
BRANCH  33  39
ATOM     34  O   UNL     1     113.796 125.923 137.039  0.00  0.00    +0.000 OA
ATOM     35  O   UNL     1     111.908 125.775 135.954  0.00  0.00    +0.000 OA
ATOM     36  O   UNL     1     112.218 124.183 136.260  0.00  0.00    +0.000 OA
ATOM     37  O   UNL     1     113.580 123.752 137.085  0.00  0.00    +0.000 OA
ATOM     38  C   UNL     1     112.589 125.558 136.367  0.00  0.00    +0.000 C 
ATOM     39  C   UNL     1     113.115 126.138 136.627  0.00  0.00    +0.000 C 
ATOM     40  C   UNL     1     112.744 124.763 136.519  0.00  0.00    +0.000 C 
ATOM     41  C   UNL     1     113.425 124.547 136.932  0.00  0.00    +0.000 C 
ATOM     42  C   UNL     1     113.951 125.127 137.192  0.00  0.00    +0.000 C 
ATOM     43  C   UNL     1     114.632 124.912 137.605  0.00  0.00    +0.000 C 
ENDBRANCH  33  39
ENDBRANCH  32  33
ENDBRANCH  27  32
ENDBRANCH  22  31
ENDBRANCH   4  22
BRANCH   5  44
ATOM     44  O   UNL     1     112.633 128.783 141.888  0.00  0.00    +0.000 OA
BRANCH  44  53
ATOM     45  O   UNL     1     112.345 130.089 142.393  0.00  0.00    +0.000 OA
ATOM     46  O   UNL     1     110.892 129.097 144.133  0.00  0.00    +0.000 OA
ATOM     47  O   UNL     1     111.089 130.734 144.056  0.00  0.00    +0.000 OA
ATOM     48  O   UNL     1     111.664 128.122 143.049  0.00  0.00    +0.000 OA
ATOM     49  C   UNL     1     111.376 129.428 143.553  0.00  0.00    +0.000 C 
ATOM     50  C   UNL     1     111.475 130.246 143.514  0.00  0.00    +0.000 C 
ATOM     51  C   UNL     1     111.762 128.940 143.011  0.00  0.00    +0.000 C 
ATOM     52  C   UNL     1     111.960 130.577 142.934  0.00  0.00    +0.000 C 
ATOM     53  C   UNL     1     112.247 129.271 142.431  0.00  0.00    +0.000 C 
BRANCH  52  55
ATOM     54  O   UNL     1     112.806 131.714 142.758  0.00  0.00    +0.000 OA
ATOM     55  C   UNL     1     112.058 131.395 142.896  0.00  0.00    +0.000 C 
ENDBRANCH  52  55
ENDBRANCH  44  53
ENDBRANCH   5  44
TORSDOF 10
ENDMDL
MODEL 8
REMARK VINA RESULT:     -10.4      1.523      3.500
REMARK  Name = 44259369
REMARK  10 active torsions:
REMARK  status: ('A' for Active; 'I' for Inactive)
REMARK    1  A    between atoms: O_2  and  C_27
REMARK    2  A    between atoms: O_2  and  C_31
REMARK    3  A    between atoms: O_5  and  C_29
REMARK    4  A    between atoms: O_5  and  C_40
REMARK    5  A    between atoms: O_12  and  C_37
REMARK    6  A    between atoms: O_12  and  C_41
REMARK    7  A    between atoms: O_20  and  C_52
REMARK    8  A    between atoms: C_22  and  C_31
REMARK    9  A    between atoms: C_36  and  C_39
REMARK   10  A    between atoms: C_42  and  C_49
REMARK                            x       y       z     vdW  Elec       q    Type
REMARK                         _______ _______ _______ _____ _____    ______ ____
ROOT
ATOM      1  O   UNL     1     110.757 129.030 136.720  0.00  0.00    +0.000 OA
ATOM      2  O   UNL     1     109.169 128.359 138.496  0.00  0.00    +0.000 OA
ATOM      3  O   UNL     1     109.285 126.972 138.117  0.00  0.00    +0.000 OA
ATOM      4  C   UNL     1     109.896 129.377 137.806  0.00  0.00    +0.000 A 
ATOM      5  C   UNL     1     110.710 126.819 136.394  0.00  0.00    +0.000 A 
ATOM      6  C   UNL     1     110.425 129.601 137.214  0.00  0.00    +0.000 A 
ATOM      7  C   UNL     1     109.698 128.583 137.904  0.00  0.00    +0.000 A 
ATOM      8  C   UNL     1     110.030 128.011 137.410  0.00  0.00    +0.000 A 
ATOM      9  C   UNL     1     110.559 128.234 136.818  0.00  0.00    +0.000 A 
ATOM     10  C   UNL     1     110.911 127.649 136.298  0.00  0.00    +0.000 A 
ATOM     11  C   UNL     1     110.158 126.586 137.011  0.00  0.00    +0.000 A 
ATOM     12  C   UNL     1     109.816 127.186 137.523  0.00  0.00    +0.000 A 
ENDROOT
BRANCH   6  14
ATOM     13  O   UNL     1     111.215 132.780 136.819  0.00  0.00    +0.000 OA
ATOM     14  C   UNL     1     110.623 130.395 137.116  0.00  0.00    +0.000 A 
ATOM     15  C   UNL     1     111.371 130.665 137.337  0.00  0.00    +0.000 A 
ATOM     16  C   UNL     1     110.072 130.920 136.795  0.00  0.00    +0.000 A 
ATOM     17  C   UNL     1     111.568 131.460 137.238  0.00  0.00    +0.000 A 
ATOM     18  C   UNL     1     110.270 131.715 136.697  0.00  0.00    +0.000 A 
ATOM     19  C   UNL     1     111.018 131.985 136.918  0.00  0.00    +0.000 A 
BRANCH  17  20
ATOM     20  O   UNL     1     112.315 131.730 137.459  0.00  0.00    +0.000 OA
ATOM     21  C   UNL     1     112.991 131.335 137.197  0.00  0.00    +0.000 C 
ENDBRANCH  17  20
ENDBRANCH   6  14
BRANCH   4  22
ATOM     22  O   UNL     1     109.564 129.948 138.300  0.00  0.00    +0.000 OA
BRANCH  22  31
ATOM     23  O   UNL     1     110.388 129.628 139.423  0.00  0.00    +0.000 OA
ATOM     24  O   UNL     1     109.997 129.758 141.566  0.00  0.00    +0.000 OA
ATOM     25  O   UNL     1     108.565 130.303 140.954  0.00  0.00    +0.000 OA
ATOM     26  O   UNL     1     108.348 130.398 139.321  0.00  0.00    +0.000 OA
ATOM     27  C   UNL     1     110.496 129.581 140.239  0.00  0.00    +0.000 C 
ATOM     28  C   UNL     1     109.889 129.806 140.749  0.00  0.00    +0.000 C 
ATOM     29  C   UNL     1     109.172 130.078 140.444  0.00  0.00    +0.000 C 
ATOM     30  C   UNL     1     109.064 130.126 139.627  0.00  0.00    +0.000 C 
ATOM     31  C   UNL     1     109.672 129.901 139.116  0.00  0.00    +0.000 C 
BRANCH  27  32
ATOM     32  C   UNL     1     111.212 129.309 140.545  0.00  0.00    +0.000 C 
BRANCH  32  33
ATOM     33  O   UNL     1     111.918 129.681 140.336  0.00  0.00    +0.000 OA
BRANCH  33  39
ATOM     34  O   UNL     1     112.672 128.477 140.488  0.00  0.00    +0.000 OA
ATOM     35  O   UNL     1     113.293 130.569 140.547  0.00  0.00    +0.000 OA
ATOM     36  O   UNL     1     114.734 129.808 140.804  0.00  0.00    +0.000 OA
ATOM     37  O   UNL     1     114.801 128.160 140.850  0.00  0.00    +0.000 OA
ATOM     38  C   UNL     1     113.327 129.745 140.570  0.00  0.00    +0.000 C 
ATOM     39  C   UNL     1     112.639 129.301 140.465  0.00  0.00    +0.000 C 
ATOM     40  C   UNL     1     114.047 129.365 140.699  0.00  0.00    +0.000 C 
ATOM     41  C   UNL     1     114.081 128.540 140.722  0.00  0.00    +0.000 C 
ATOM     42  C   UNL     1     113.393 128.097 140.617  0.00  0.00    +0.000 C 
ATOM     43  C   UNL     1     113.426 127.273 140.640  0.00  0.00    +0.000 C 
ENDBRANCH  33  39
ENDBRANCH  32  33
ENDBRANCH  27  32
ENDBRANCH  22  31
ENDBRANCH   4  22
BRANCH   5  44
ATOM     44  O   UNL     1     111.043 126.249 135.899  0.00  0.00    +0.000 OA
BRANCH  44  53
ATOM     45  O   UNL     1     112.281 126.025 136.576  0.00  0.00    +0.000 OA
ATOM     46  O   UNL     1     111.988 123.583 136.304  0.00  0.00    +0.000 OA
ATOM     47  O   UNL     1     113.324 124.174 137.072  0.00  0.00    +0.000 OA
ATOM     48  O   UNL     1     110.848 124.621 135.718  0.00  0.00    +0.000 OA
ATOM     49  C   UNL     1     112.086 124.397 136.395  0.00  0.00    +0.000 C 
ATOM     50  C   UNL     1     112.754 124.693 136.779  0.00  0.00    +0.000 C 
ATOM     51  C   UNL     1     111.516 124.916 136.102  0.00  0.00    +0.000 C 
ATOM     52  C   UNL     1     112.852 125.507 136.870  0.00  0.00    +0.000 C 
ATOM     53  C   UNL     1     111.613 125.730 136.192  0.00  0.00    +0.000 C 
BRANCH  52  55
ATOM     54  O   UNL     1     113.952 126.416 136.913  0.00  0.00    +0.000 OA
ATOM     55  C   UNL     1     113.519 125.802 137.254  0.00  0.00    +0.000 C 
ENDBRANCH  52  55
ENDBRANCH  44  53
ENDBRANCH   5  44
TORSDOF 10
ENDMDL
MODEL 9
REMARK VINA RESULT:     -10.4      2.151      4.798
REMARK  Name = 44259369
REMARK  10 active torsions:
REMARK  status: ('A' for Active; 'I' for Inactive)
REMARK    1  A    between atoms: O_2  and  C_27
REMARK    2  A    between atoms: O_2  and  C_31
REMARK    3  A    between atoms: O_5  and  C_29
REMARK    4  A    between atoms: O_5  and  C_40
REMARK    5  A    between atoms: O_12  and  C_37
REMARK    6  A    between atoms: O_12  and  C_41
REMARK    7  A    between atoms: O_20  and  C_52
REMARK    8  A    between atoms: C_22  and  C_31
REMARK    9  A    between atoms: C_36  and  C_39
REMARK   10  A    between atoms: C_42  and  C_49
REMARK                            x       y       z     vdW  Elec       q    Type
REMARK                         _______ _______ _______ _____ _____    ______ ____
ROOT
ATOM      1  O   UNL     1     111.130 126.279 138.131  0.00  0.00    +0.000 OA
ATOM      2  O   UNL     1     113.405 127.250 138.034  0.00  0.00    +0.000 OA
ATOM      3  O   UNL     1     113.466 127.323 139.474  0.00  0.00    +0.000 OA
ATOM      4  C   UNL     1     112.250 126.735 137.369  0.00  0.00    +0.000 A 
ATOM      5  C   UNL     1     111.546 126.528 140.313  0.00  0.00    +0.000 A 
ATOM      6  C   UNL     1     111.492 126.411 137.402  0.00  0.00    +0.000 A 
ATOM      7  C   UNL     1     112.646 126.927 138.066  0.00  0.00    +0.000 A 
ATOM      8  C   UNL     1     112.285 126.795 138.797  0.00  0.00    +0.000 A 
ATOM      9  C   UNL     1     111.527 126.472 138.829  0.00  0.00    +0.000 A 
ATOM     10  C   UNL     1     111.139 126.330 139.582  0.00  0.00    +0.000 A 
ATOM     11  C   UNL     1     112.337 126.865 140.279  0.00  0.00    +0.000 A 
ATOM     12  C   UNL     1     112.708 127.000 139.516  0.00  0.00    +0.000 A 
ENDROOT
BRANCH   6  14
ATOM     13  O   UNL     1     109.906 125.639 134.613  0.00  0.00    +0.000 OA
ATOM     14  C   UNL     1     111.095 126.219 136.705  0.00  0.00    +0.000 A 
ATOM     15  C   UNL     1     110.480 126.697 136.434  0.00  0.00    +0.000 A 
ATOM     16  C   UNL     1     111.314 125.547 136.278  0.00  0.00    +0.000 A 
ATOM     17  C   UNL     1     110.084 126.504 135.736  0.00  0.00    +0.000 A 
ATOM     18  C   UNL     1     110.918 125.354 135.581  0.00  0.00    +0.000 A 
ATOM     19  C   UNL     1     110.302 125.833 135.310  0.00  0.00    +0.000 A 
BRANCH  17  20
ATOM     20  O   UNL     1     109.469 126.982 135.466  0.00  0.00    +0.000 OA
ATOM     21  C   UNL     1     109.033 127.436 136.000  0.00  0.00    +0.000 C 
ENDBRANCH  17  20
ENDBRANCH   6  14
BRANCH   4  22
ATOM     22  O   UNL     1     112.612 126.866 136.640  0.00  0.00    +0.000 OA
BRANCH  22  31
ATOM     23  O   UNL     1     112.385 128.277 136.609  0.00  0.00    +0.000 OA
ATOM     24  O   UNL     1     113.602 129.903 135.813  0.00  0.00    +0.000 OA
ATOM     25  O   UNL     1     114.552 128.601 135.461  0.00  0.00    +0.000 OA
ATOM     26  O   UNL     1     114.057 127.082 135.874  0.00  0.00    +0.000 OA
ATOM     27  C   UNL     1     112.632 129.036 136.402  0.00  0.00    +0.000 C 
ATOM     28  C   UNL     1     113.354 129.144 136.020  0.00  0.00    +0.000 C 
ATOM     29  C   UNL     1     113.830 128.493 135.843  0.00  0.00    +0.000 C 
ATOM     30  C   UNL     1     113.583 127.734 136.050  0.00  0.00    +0.000 C 
ATOM     31  C   UNL     1     112.859 127.625 136.433  0.00  0.00    +0.000 C 
BRANCH  27  32
ATOM     32  C   UNL     1     112.158 129.686 136.579  0.00  0.00    +0.000 C 
BRANCH  32  33
ATOM     33  O   UNL     1     111.876 129.795 137.346  0.00  0.00    +0.000 OA
BRANCH  33  39
ATOM     34  O   UNL     1     110.883 130.726 136.909  0.00  0.00    +0.000 OA
ATOM     35  O   UNL     1     111.773 130.404 138.877  0.00  0.00    +0.000 OA
ATOM     36  O   UNL     1     110.729 131.639 139.205  0.00  0.00    +0.000 OA
ATOM     37  O   UNL     1     109.789 132.266 138.003  0.00  0.00    +0.000 OA
ATOM     38  C   UNL     1     111.302 130.718 138.276  0.00  0.00    +0.000 C 
ATOM     39  C   UNL     1     111.353 130.413 137.511  0.00  0.00    +0.000 C 
ATOM     40  C   UNL     1     110.781 131.335 138.440  0.00  0.00    +0.000 C 
ATOM     41  C   UNL     1     110.310 131.649 137.839  0.00  0.00    +0.000 C 
ATOM     42  C   UNL     1     110.361 131.344 137.074  0.00  0.00    +0.000 C 
ATOM     43  C   UNL     1     109.891 131.657 136.472  0.00  0.00    +0.000 C 
ENDBRANCH  33  39
ENDBRANCH  32  33
ENDBRANCH  27  32
ENDBRANCH  22  31
ENDBRANCH   4  22
BRANCH   5  44
ATOM     44  O   UNL     1     111.182 126.396 141.041  0.00  0.00    +0.000 OA
BRANCH  44  53
ATOM     45  O   UNL     1     110.575 127.673 141.241  0.00  0.00    +0.000 OA
ATOM     46  O   UNL     1     108.491 126.567 141.988  0.00  0.00    +0.000 OA
ATOM     47  O   UNL     1     108.579 128.214 141.939  0.00  0.00    +0.000 OA
ATOM     48  O   UNL     1     109.793 125.658 141.539  0.00  0.00    +0.000 OA
ATOM     49  C   UNL     1     109.186 126.936 141.739  0.00  0.00    +0.000 C 
ATOM     50  C   UNL     1     109.230 127.759 141.714  0.00  0.00    +0.000 C 
ATOM     51  C   UNL     1     109.837 126.481 141.515  0.00  0.00    +0.000 C 
ATOM     52  C   UNL     1     109.925 128.128 141.465  0.00  0.00    +0.000 C 
ATOM     53  C   UNL     1     110.531 126.850 141.266  0.00  0.00    +0.000 C 
BRANCH  52  55
ATOM     54  O   UNL     1     110.598 129.342 141.805  0.00  0.00    +0.000 OA
ATOM     55  C   UNL     1     109.968 128.952 141.441  0.00  0.00    +0.000 C 
ENDBRANCH  52  55
ENDBRANCH  44  53
ENDBRANCH   5  44
TORSDOF 10
ENDMDL
MODEL 10
REMARK VINA RESULT:     -10.3      1.573      3.070
REMARK  Name = 44259369
REMARK  10 active torsions:
REMARK  status: ('A' for Active; 'I' for Inactive)
REMARK    1  A    between atoms: O_2  and  C_27
REMARK    2  A    between atoms: O_2  and  C_31
REMARK    3  A    between atoms: O_5  and  C_29
REMARK    4  A    between atoms: O_5  and  C_40
REMARK    5  A    between atoms: O_12  and  C_37
REMARK    6  A    between atoms: O_12  and  C_41
REMARK    7  A    between atoms: O_20  and  C_52
REMARK    8  A    between atoms: C_22  and  C_31
REMARK    9  A    between atoms: C_36  and  C_39
REMARK   10  A    between atoms: C_42  and  C_49
REMARK                            x       y       z     vdW  Elec       q    Type
REMARK                         _______ _______ _______ _____ _____    ______ ____
ROOT
ATOM      1  O   UNL     1     111.977 128.701 138.135  0.00  0.00    +0.000 OA
ATOM      2  O   UNL     1     110.294 130.028 136.897  0.00  0.00    +0.000 OA
ATOM      3  O   UNL     1     109.427 128.880 136.787  0.00  0.00    +0.000 OA
ATOM      4  C   UNL     1     111.555 129.940 137.563  0.00  0.00    +0.000 A 
ATOM      5  C   UNL     1     110.416 127.138 137.792  0.00  0.00    +0.000 A 
ATOM      6  C   UNL     1     112.116 129.498 137.976  0.00  0.00    +0.000 A 
ATOM      7  C   UNL     1     110.855 129.586 137.310  0.00  0.00    +0.000 A 
ATOM      8  C   UNL     1     110.715 128.788 137.469  0.00  0.00    +0.000 A 
ATOM      9  C   UNL     1     111.276 128.345 137.881  0.00  0.00    +0.000 A 
ATOM     10  C   UNL     1     111.143 127.515 138.053  0.00  0.00    +0.000 A 
ATOM     11  C   UNL     1     109.831 127.600 137.361  0.00  0.00    +0.000 A 
ATOM     12  C   UNL     1     109.982 128.430 137.199  0.00  0.00    +0.000 A 
ENDROOT
BRANCH   6  14
ATOM     13  O   UNL     1     114.918 130.915 138.989  0.00  0.00    +0.000 OA
ATOM     14  C   UNL     1     112.816 129.852 138.230  0.00  0.00    +0.000 A 
ATOM     15  C   UNL     1     112.930 130.015 139.031  0.00  0.00    +0.000 A 
ATOM     16  C   UNL     1     113.403 130.044 137.682  0.00  0.00    +0.000 A 
ATOM     17  C   UNL     1     113.631 130.369 139.283  0.00  0.00    +0.000 A 
ATOM     18  C   UNL     1     114.103 130.398 137.936  0.00  0.00    +0.000 A 
ATOM     19  C   UNL     1     114.217 130.561 138.737  0.00  0.00    +0.000 A 
BRANCH  17  20
ATOM     20  O   UNL     1     113.745 130.532 140.084  0.00  0.00    +0.000 OA
ATOM     21  C   UNL     1     113.562 129.961 140.652  0.00  0.00    +0.000 C 
ENDBRANCH  17  20
ENDBRANCH   6  14
BRANCH   4  22
ATOM     22  O   UNL     1     111.694 130.737 137.405  0.00  0.00    +0.000 OA
BRANCH  22  31
ATOM     23  O   UNL     1     110.787 131.196 138.409  0.00  0.00    +0.000 OA
ATOM     24  O   UNL     1     109.620 133.034 138.550  0.00  0.00    +0.000 OA
ATOM     25  O   UNL     1     110.398 133.267 137.113  0.00  0.00    +0.000 OA
ATOM     26  O   UNL     1     111.435 132.119 136.540  0.00  0.00    +0.000 OA
ATOM     27  C   UNL     1     110.268 131.770 138.695  0.00  0.00    +0.000 C 
ATOM     28  C   UNL     1     110.139 132.460 138.264  0.00  0.00    +0.000 C 
ATOM     29  C   UNL     1     110.527 132.577 137.545  0.00  0.00    +0.000 C 
ATOM     30  C   UNL     1     111.046 132.003 137.259  0.00  0.00    +0.000 C 
ATOM     31  C   UNL     1     111.176 131.312 137.691  0.00  0.00    +0.000 C 
BRANCH  27  32
ATOM     32  C   UNL     1     109.880 131.654 139.413  0.00  0.00    +0.000 C 
BRANCH  32  33
ATOM     33  O   UNL     1     110.315 131.491 140.095  0.00  0.00    +0.000 OA
BRANCH  33  39
ATOM     34  O   UNL     1     109.427 130.454 140.517  0.00  0.00    +0.000 OA
ATOM     35  O   UNL     1     110.758 131.749 141.664  0.00  0.00    +0.000 OA
ATOM     36  O   UNL     1     110.091 130.842 142.870  0.00  0.00    +0.000 OA
ATOM     37  O   UNL     1     108.982 129.675 142.507  0.00  0.00    +0.000 OA
ATOM     38  C   UNL     1     110.203 131.166 141.483  0.00  0.00    +0.000 C 
ATOM     39  C   UNL     1     109.981 131.037 140.699  0.00  0.00    +0.000 C 
ATOM     40  C   UNL     1     109.870 130.712 142.085  0.00  0.00    +0.000 C 
ATOM     41  C   UNL     1     109.315 130.129 141.905  0.00  0.00    +0.000 C 
ATOM     42  C   UNL     1     109.093 130.000 141.121  0.00  0.00    +0.000 C 
ATOM     43  C   UNL     1     108.539 129.417 140.939  0.00  0.00    +0.000 C 
ENDBRANCH  33  39
ENDBRANCH  32  33
ENDBRANCH  27  32
ENDBRANCH  22  31
ENDBRANCH   4  22
BRANCH   5  44
ATOM     44  O   UNL     1     110.279 126.341 137.952  0.00  0.00    +0.000 OA
BRANCH  44  53
ATOM     45  O   UNL     1     110.616 125.791 136.677  0.00  0.00    +0.000 OA
ATOM     46  O   UNL     1     111.840 123.952 137.793  0.00  0.00    +0.000 OA
ATOM     47  O   UNL     1     111.769 124.016 136.145  0.00  0.00    +0.000 OA
ATOM     48  O   UNL     1     111.095 125.114 138.696  0.00  0.00    +0.000 OA
ATOM     49  C   UNL     1     111.432 124.565 137.421  0.00  0.00    +0.000 C 
ATOM     50  C   UNL     1     111.396 124.597 136.597  0.00  0.00    +0.000 C 
ATOM     51  C   UNL     1     111.059 125.146 137.872  0.00  0.00    +0.000 C 
ATOM     52  C   UNL     1     110.989 125.210 136.225  0.00  0.00    +0.000 C 
ATOM     53  C   UNL     1     110.652 125.759 137.500  0.00  0.00    +0.000 C 
BRANCH  52  55
ATOM     54  O   UNL     1     110.230 125.363 135.024  0.00  0.00    +0.000 OA
ATOM     55  C   UNL     1     110.953 125.242 135.401  0.00  0.00    +0.000 C 
ENDBRANCH  52  55
ENDBRANCH  44  53
ENDBRANCH   5  44
TORSDOF 10
ENDMDL
