MODEL 1
REMARK VINA RESULT:      -9.8      0.000      0.000
REMARK  Name = 44258377
REMARK  4 active torsions:
REMARK  status: ('A' for Active; 'I' for Inactive)
REMARK    1  A    between atoms: O_2  and  C_15
REMARK    2  A    between atoms: O_2  and  C_17
REMARK    3  A    between atoms: O_8  and  C_30
REMARK    4  A    between atoms: C_20  and  C_23
REMARK                            x       y       z     vdW  Elec       q    Type
REMARK                         _______ _______ _______ _____ _____    ______ ____
ROOT
ATOM      1  O   UNL     1     105.259 122.798 141.110  0.00  0.00    +0.000 OA
ATOM      2  C   UNL     1     105.194 124.196 140.820  0.00  0.00    +0.000 A 
ATOM      3  C   UNL     1     105.027 123.414 140.613  0.00  0.00    +0.000 A 
ATOM      4  C   UNL     1     104.961 124.812 140.323  0.00  0.00    +0.000 A 
ATOM      5  C   UNL     1     104.396 123.866 139.412  0.00  0.00    +0.000 A 
ATOM      6  C   UNL     1     104.628 123.249 139.910  0.00  0.00    +0.000 A 
ATOM      7  C   UNL     1     104.562 124.647 139.620  0.00  0.00    +0.000 A 
ENDROOT
BRANCH   5  11
ATOM      8  O   UNL     1     104.423 123.564 138.017  0.00  0.00    +0.000 OA
ATOM      9  O   UNL     1     101.948 123.177 136.576  0.00  0.00    +0.000 OA
ATOM     10  O   UNL     1     101.949 123.483 137.986  0.00  0.00    +0.000 OA
ATOM     11  C   UNL     1     103.997 123.702 138.709  0.00  0.00    +0.000 A 
ATOM     12  C   UNL     1     103.200 123.372 137.303  0.00  0.00    +0.000 A 
ATOM     13  C   UNL     1     104.024 123.399 137.314  0.00  0.00    +0.000 A 
ATOM     14  C   UNL     1     103.172 123.675 138.700  0.00  0.00    +0.000 A 
ATOM     15  C   UNL     1     102.774 123.510 137.996  0.00  0.00    +0.000 A 
ATOM     16  C   UNL     1     102.773 123.202 136.577  0.00  0.00    +0.000 A 
ATOM     17  C   UNL     1     104.479 123.257 136.598  0.00  0.00    +0.000 A 
ATOM     18  C   UNL     1     104.070 123.085 135.863  0.00  0.00    +0.000 A 
ATOM     19  C   UNL     1     103.211 123.057 135.852  0.00  0.00    +0.000 A 
BRANCH  18  20
ATOM     20  O   UNL     1     104.499 122.948 135.171  0.00  0.00    +0.000 OA
ATOM     21  C   UNL     1     104.585 123.549 134.613  0.00  0.00    +0.000 C 
ENDBRANCH  18  20
ENDBRANCH   5  11
BRANCH   2  22
ATOM     22  O   UNL     1     105.592 124.360 141.522  0.00  0.00    +0.000 OA
BRANCH  22  31
ATOM     23  O   UNL     1     106.831 124.836 140.994  0.00  0.00    +0.000 OA
ATOM     24  O   UNL     1     106.805 126.705 142.617  0.00  0.00    +0.000 OA
ATOM     25  O   UNL     1     108.054 126.558 141.548  0.00  0.00    +0.000 OA
ATOM     26  O   UNL     1     105.574 125.606 142.604  0.00  0.00    +0.000 OA
ATOM     27  C   UNL     1     106.814 126.082 142.076  0.00  0.00    +0.000 C 
ATOM     28  C   UNL     1     107.438 126.009 141.542  0.00  0.00    +0.000 C 
ATOM     29  C   UNL     1     106.199 125.533 142.070  0.00  0.00    +0.000 C 
ATOM     30  C   UNL     1     107.446 125.386 141.001  0.00  0.00    +0.000 C 
ATOM     31  C   UNL     1     106.208 124.910 141.529  0.00  0.00    +0.000 C 
ATOM     32  C   UNL     1     108.071 125.312 140.466  0.00  0.00    +0.000 C 
ENDBRANCH  22  31
ENDBRANCH   2  22
TORSDOF 4
ENDMDL
MODEL 2
REMARK VINA RESULT:      -9.7      7.436      9.297
REMARK  Name = 44258377
REMARK  4 active torsions:
REMARK  status: ('A' for Active; 'I' for Inactive)
REMARK    1  A    between atoms: O_2  and  C_15
REMARK    2  A    between atoms: O_2  and  C_17
REMARK    3  A    between atoms: O_8  and  C_30
REMARK    4  A    between atoms: C_20  and  C_23
REMARK                            x       y       z     vdW  Elec       q    Type
REMARK                         _______ _______ _______ _____ _____    ______ ____
ROOT
ATOM      1  O   UNL     1     113.779 126.977 141.513  0.00  0.00    +0.000 OA
ATOM      2  C   UNL     1     113.336 127.993 140.612  0.00  0.00    +0.000 A 
ATOM      3  C   UNL     1     113.565 127.212 140.753  0.00  0.00    +0.000 A 
ATOM      4  C   UNL     1     113.122 128.229 139.851  0.00  0.00    +0.000 A 
ATOM      5  C   UNL     1     113.365 126.905 139.371  0.00  0.00    +0.000 A 
ATOM      6  C   UNL     1     113.580 126.669 140.132  0.00  0.00    +0.000 A 
ATOM      7  C   UNL     1     113.136 127.685 139.231  0.00  0.00    +0.000 A 
ENDROOT
BRANCH   5  11
ATOM      8  O   UNL     1     112.676 126.133 138.387  0.00  0.00    +0.000 OA
ATOM      9  O   UNL     1     114.160 124.396 136.617  0.00  0.00    +0.000 OA
ATOM     10  O   UNL     1     114.830 125.187 137.619  0.00  0.00    +0.000 OA
ATOM     11  C   UNL     1     113.379 126.361 138.751  0.00  0.00    +0.000 A 
ATOM     12  C   UNL     1     113.408 125.273 137.510  0.00  0.00    +0.000 A 
ATOM     13  C   UNL     1     112.690 125.589 137.766  0.00  0.00    +0.000 A 
ATOM     14  C   UNL     1     114.098 126.046 138.495  0.00  0.00    +0.000 A 
ATOM     15  C   UNL     1     114.113 125.502 137.875  0.00  0.00    +0.000 A 
ATOM     16  C   UNL     1     113.436 124.706 136.866  0.00  0.00    +0.000 A 
ATOM     17  C   UNL     1     111.950 125.359 137.395  0.00  0.00    +0.000 A 
ATOM     18  C   UNL     1     111.958 124.793 136.749  0.00  0.00    +0.000 A 
ATOM     19  C   UNL     1     112.707 124.464 136.482  0.00  0.00    +0.000 A 
BRANCH  18  20
ATOM     20  O   UNL     1     111.253 124.566 136.386  0.00  0.00    +0.000 OA
ATOM     21  C   UNL     1     110.908 125.051 135.815  0.00  0.00    +0.000 C 
ENDBRANCH  18  20
ENDBRANCH   5  11
BRANCH   2  22
ATOM     22  O   UNL     1     113.322 128.536 141.231  0.00  0.00    +0.000 OA
BRANCH  22  31
ATOM     23  O   UNL     1     114.441 129.312 140.797  0.00  0.00    +0.000 OA
ATOM     24  O   UNL     1     113.323 131.371 141.597  0.00  0.00    +0.000 OA
ATOM     25  O   UNL     1     114.814 131.461 140.897  0.00  0.00    +0.000 OA
ATOM     26  O   UNL     1     112.577 129.909 141.764  0.00  0.00    +0.000 OA
ATOM     27  C   UNL     1     113.696 130.685 141.331  0.00  0.00    +0.000 C 
ATOM     28  C   UNL     1     114.441 130.730 140.981  0.00  0.00    +0.000 C 
ATOM     29  C   UNL     1     113.323 129.954 141.414  0.00  0.00    +0.000 C 
ATOM     30  C   UNL     1     114.813 130.044 140.714  0.00  0.00    +0.000 C 
ATOM     31  C   UNL     1     113.695 129.268 141.148  0.00  0.00    +0.000 C 
ATOM     32  C   UNL     1     115.559 130.088 140.364  0.00  0.00    +0.000 C 
ENDBRANCH  22  31
ENDBRANCH   2  22
TORSDOF 4
ENDMDL
MODEL 3
REMARK VINA RESULT:      -9.3      7.897      9.332
REMARK  Name = 44258377
REMARK  4 active torsions:
REMARK  status: ('A' for Active; 'I' for Inactive)
REMARK    1  A    between atoms: O_2  and  C_15
REMARK    2  A    between atoms: O_2  and  C_17
REMARK    3  A    between atoms: O_8  and  C_30
REMARK    4  A    between atoms: C_20  and  C_23
REMARK                            x       y       z     vdW  Elec       q    Type
REMARK                         _______ _______ _______ _____ _____    ______ ____
ROOT
ATOM      1  O   UNL     1     113.671 127.045 141.584  0.00  0.00    +0.000 OA
ATOM      2  C   UNL     1     113.120 128.059 140.741  0.00  0.00    +0.000 A 
ATOM      3  C   UNL     1     113.378 127.282 140.850  0.00  0.00    +0.000 A 
ATOM      4  C   UNL     1     112.828 128.297 140.008  0.00  0.00    +0.000 A 
ATOM      5  C   UNL     1     113.049 126.983 139.492  0.00  0.00    +0.000 A 
ATOM      6  C   UNL     1     113.342 126.744 140.226  0.00  0.00    +0.000 A 
ATOM      7  C   UNL     1     112.792 127.759 139.383  0.00  0.00    +0.000 A 
ENDROOT
BRANCH   5  11
ATOM      8  O   UNL     1     113.694 126.267 138.437  0.00  0.00    +0.000 OA
ATOM      9  O   UNL     1     112.170 124.452 136.784  0.00  0.00    +0.000 OA
ATOM     10  O   UNL     1     111.544 125.188 137.855  0.00  0.00    +0.000 OA
ATOM     11  C   UNL     1     113.013 126.445 138.867  0.00  0.00    +0.000 A 
ATOM     12  C   UNL     1     112.942 125.369 137.618  0.00  0.00    +0.000 A 
ATOM     13  C   UNL     1     113.658 125.729 137.813  0.00  0.00    +0.000 A 
ATOM     14  C   UNL     1     112.296 126.085 138.674  0.00  0.00    +0.000 A 
ATOM     15  C   UNL     1     112.260 125.547 138.049  0.00  0.00    +0.000 A 
ATOM     16  C   UNL     1     112.892 124.807 136.970  0.00  0.00    +0.000 A 
ATOM     17  C   UNL     1     114.374 125.551 137.372  0.00  0.00    +0.000 A 
ATOM     18  C   UNL     1     114.344 124.992 136.721  0.00  0.00    +0.000 A 
ATOM     19  C   UNL     1     113.596 124.617 136.519  0.00  0.00    +0.000 A 
BRANCH  18  20
ATOM     20  O   UNL     1     115.026 124.815 136.292  0.00  0.00    +0.000 OA
ATOM     21  C   UNL     1     115.329 125.363 135.754  0.00  0.00    +0.000 C 
ENDBRANCH  18  20
ENDBRANCH   5  11
BRANCH   2  22
ATOM     22  O   UNL     1     113.156 128.597 141.365  0.00  0.00    +0.000 OA
BRANCH  22  31
ATOM     23  O   UNL     1     114.258 129.355 140.863  0.00  0.00    +0.000 OA
ATOM     24  O   UNL     1     113.244 131.425 141.764  0.00  0.00    +0.000 OA
ATOM     25  O   UNL     1     114.684 131.494 140.962  0.00  0.00    +0.000 OA
ATOM     26  O   UNL     1     112.480 129.977 141.966  0.00  0.00    +0.000 OA
ATOM     27  C   UNL     1     113.582 130.735 141.464  0.00  0.00    +0.000 C 
ATOM     28  C   UNL     1     114.302 130.770 141.063  0.00  0.00    +0.000 C 
ATOM     29  C   UNL     1     113.200 130.012 141.565  0.00  0.00    +0.000 C 
ATOM     30  C   UNL     1     114.640 130.080 140.762  0.00  0.00    +0.000 C 
ATOM     31  C   UNL     1     113.538 129.322 141.264  0.00  0.00    +0.000 C 
ATOM     32  C   UNL     1     115.360 130.114 140.360  0.00  0.00    +0.000 C 
ENDBRANCH  22  31
ENDBRANCH   2  22
TORSDOF 4
ENDMDL
MODEL 4
REMARK VINA RESULT:      -9.2      6.966      8.286
REMARK  Name = 44258377
REMARK  4 active torsions:
REMARK  status: ('A' for Active; 'I' for Inactive)
REMARK    1  A    between atoms: O_2  and  C_15
REMARK    2  A    between atoms: O_2  and  C_17
REMARK    3  A    between atoms: O_8  and  C_30
REMARK    4  A    between atoms: C_20  and  C_23
REMARK                            x       y       z     vdW  Elec       q    Type
REMARK                         _______ _______ _______ _____ _____    ______ ____
ROOT
ATOM      1  O   UNL     1     110.656 125.276 134.612  0.00  0.00    +0.000 OA
ATOM      2  C   UNL     1     110.907 125.421 136.011  0.00  0.00    +0.000 A 
ATOM      3  C   UNL     1     110.604 125.721 135.304  0.00  0.00    +0.000 A 
ATOM      4  C   UNL     1     110.855 125.866 136.704  0.00  0.00    +0.000 A 
ATOM      5  C   UNL     1     110.197 126.911 135.984  0.00  0.00    +0.000 A 
ATOM      6  C   UNL     1     110.249 126.466 135.291  0.00  0.00    +0.000 A 
ATOM      7  C   UNL     1     110.500 126.611 136.690  0.00  0.00    +0.000 A 
ENDROOT
BRANCH   5  11
ATOM      8  O   UNL     1     110.303 128.334 136.062  0.00  0.00    +0.000 OA
ATOM      9  O   UNL     1     107.935 129.972 135.822  0.00  0.00    +0.000 OA
ATOM     10  O   UNL     1     107.856 128.534 135.747  0.00  0.00    +0.000 OA
ATOM     11  C   UNL     1     109.842 127.656 135.971  0.00  0.00    +0.000 A 
ATOM     12  C   UNL     1     109.133 129.146 135.943  0.00  0.00    +0.000 A 
ATOM     13  C   UNL     1     109.948 129.078 136.048  0.00  0.00    +0.000 A 
ATOM     14  C   UNL     1     109.026 127.722 135.865  0.00  0.00    +0.000 A 
ATOM     15  C   UNL     1     108.672 128.467 135.852  0.00  0.00    +0.000 A 
ATOM     16  C   UNL     1     108.752 129.915 135.927  0.00  0.00    +0.000 A 
ATOM     17  C   UNL     1     110.439 129.777 136.145  0.00  0.00    +0.000 A 
ATOM     18  C   UNL     1     110.076 130.556 136.131  0.00  0.00    +0.000 A 
ATOM     19  C   UNL     1     109.226 130.625 136.022  0.00  0.00    +0.000 A 
BRANCH  18  20
ATOM     20  O   UNL     1     110.539 131.232 136.223  0.00  0.00    +0.000 OA
ATOM     21  C   UNL     1     110.706 131.519 136.979  0.00  0.00    +0.000 C 
ENDBRANCH  18  20
ENDBRANCH   5  11
BRANCH   2  22
ATOM     22  O   UNL     1     111.261 124.677 136.025  0.00  0.00    +0.000 OA
BRANCH  22  31
ATOM     23  O   UNL     1     112.591 125.170 136.201  0.00  0.00    +0.000 OA
ATOM     24  O   UNL     1     113.161 123.156 137.523  0.00  0.00    +0.000 OA
ATOM     25  O   UNL     1     114.301 124.320 137.259  0.00  0.00    +0.000 OA
ATOM     26  O   UNL     1     111.641 123.335 136.906  0.00  0.00    +0.000 OA
ATOM     27  C   UNL     1     112.971 123.827 137.083  0.00  0.00    +0.000 C 
ATOM     28  C   UNL     1     113.541 124.409 136.951  0.00  0.00    +0.000 C 
ATOM     29  C   UNL     1     112.212 123.917 136.774  0.00  0.00    +0.000 C 
ATOM     30  C   UNL     1     113.351 125.080 136.510  0.00  0.00    +0.000 C 
ATOM     31  C   UNL     1     112.022 124.588 136.334  0.00  0.00    +0.000 C 
ATOM     32  C   UNL     1     113.921 125.662 136.378  0.00  0.00    +0.000 C 
ENDBRANCH  22  31
ENDBRANCH   2  22
TORSDOF 4
ENDMDL
MODEL 5
REMARK VINA RESULT:      -9.1      5.348      6.993
REMARK  Name = 44258377
REMARK  4 active torsions:
REMARK  status: ('A' for Active; 'I' for Inactive)
REMARK    1  A    between atoms: O_2  and  C_15
REMARK    2  A    between atoms: O_2  and  C_17
REMARK    3  A    between atoms: O_8  and  C_30
REMARK    4  A    between atoms: C_20  and  C_23
REMARK                            x       y       z     vdW  Elec       q    Type
REMARK                         _______ _______ _______ _____ _____    ______ ____
ROOT
ATOM      1  O   UNL     1     107.483 128.009 145.099  0.00  0.00    +0.000 OA
ATOM      2  C   UNL     1     106.589 126.895 145.114  0.00  0.00    +0.000 A 
ATOM      3  C   UNL     1     106.815 127.627 144.805  0.00  0.00    +0.000 A 
ATOM      4  C   UNL     1     105.920 126.513 144.819  0.00  0.00    +0.000 A 
ATOM      5  C   UNL     1     105.702 127.592 143.908  0.00  0.00    +0.000 A 
ATOM      6  C   UNL     1     106.371 127.975 144.203  0.00  0.00    +0.000 A 
ATOM      7  C   UNL     1     105.476 126.861 144.217  0.00  0.00    +0.000 A 
ENDROOT
BRANCH   5  11
ATOM      8  O   UNL     1     104.771 128.584 143.472  0.00  0.00    +0.000 OA
ATOM      9  O   UNL     1     103.965 128.687 140.700  0.00  0.00    +0.000 OA
ATOM     10  O   UNL     1     104.903 127.696 141.166  0.00  0.00    +0.000 OA
ATOM     11  C   UNL     1     105.258 127.940 143.306  0.00  0.00    +0.000 A 
ATOM     12  C   UNL     1     104.371 128.637 142.101  0.00  0.00    +0.000 A 
ATOM     13  C   UNL     1     104.328 128.932 142.870  0.00  0.00    +0.000 A 
ATOM     14  C   UNL     1     105.303 127.644 142.537  0.00  0.00    +0.000 A 
ATOM     15  C   UNL     1     104.859 127.992 141.935  0.00  0.00    +0.000 A 
ATOM     16  C   UNL     1     103.915 128.991 141.466  0.00  0.00    +0.000 A 
ATOM     17  C   UNL     1     103.824 129.603 143.057  0.00  0.00    +0.000 A 
ATOM     18  C   UNL     1     103.359 129.970 142.434  0.00  0.00    +0.000 A 
ATOM     19  C   UNL     1     103.405 129.661 141.632  0.00  0.00    +0.000 A 
BRANCH  18  20
ATOM     20  O   UNL     1     102.873 130.615 142.603  0.00  0.00    +0.000 OA
ATOM     21  C   UNL     1     103.173 131.382 142.558  0.00  0.00    +0.000 C 
ENDBRANCH  18  20
ENDBRANCH   5  11
BRANCH   2  22
ATOM     22  O   UNL     1     107.032 126.547 145.715  0.00  0.00    +0.000 OA
BRANCH  22  31
ATOM     23  O   UNL     1     106.192 126.811 146.841  0.00  0.00    +0.000 OA
ATOM     24  O   UNL     1     106.480 124.474 147.603  0.00  0.00    +0.000 OA
ATOM     25  O   UNL     1     105.544 125.516 148.474  0.00  0.00    +0.000 OA
ATOM     26  O   UNL     1     107.224 124.989 146.223  0.00  0.00    +0.000 OA
ATOM     27  C   UNL     1     106.384 125.253 147.349  0.00  0.00    +0.000 C 
ATOM     28  C   UNL     1     105.916 125.773 147.784  0.00  0.00    +0.000 C 
ATOM     29  C   UNL     1     106.756 125.510 146.660  0.00  0.00    +0.000 C 
ATOM     30  C   UNL     1     105.820 126.552 147.530  0.00  0.00    +0.000 C 
ATOM     31  C   UNL     1     106.660 126.289 146.405  0.00  0.00    +0.000 C 
ATOM     32  C   UNL     1     105.352 127.074 147.966  0.00  0.00    +0.000 C 
ENDBRANCH  22  31
ENDBRANCH   2  22
TORSDOF 4
ENDMDL
MODEL 6
REMARK VINA RESULT:      -9.1      5.256      7.199
REMARK  Name = 44258377
REMARK  4 active torsions:
REMARK  status: ('A' for Active; 'I' for Inactive)
REMARK    1  A    between atoms: O_2  and  C_15
REMARK    2  A    between atoms: O_2  and  C_17
REMARK    3  A    between atoms: O_8  and  C_30
REMARK    4  A    between atoms: C_20  and  C_23
REMARK                            x       y       z     vdW  Elec       q    Type
REMARK                         _______ _______ _______ _____ _____    ______ ____
ROOT
ATOM      1  O   UNL     1     104.103 127.871 140.630  0.00  0.00    +0.000 OA
ATOM      2  C   UNL     1     104.489 128.212 141.963  0.00  0.00    +0.000 A 
ATOM      3  C   UNL     1     104.106 128.406 141.258  0.00  0.00    +0.000 A 
ATOM      4  C   UNL     1     104.492 128.748 142.591  0.00  0.00    +0.000 A 
ATOM      5  C   UNL     1     103.729 129.670 141.810  0.00  0.00    +0.000 A 
ATOM      6  C   UNL     1     103.726 129.134 141.181  0.00  0.00    +0.000 A 
ATOM      7  C   UNL     1     104.112 129.476 142.514  0.00  0.00    +0.000 A 
ENDROOT
BRANCH   5  11
ATOM      8  O   UNL     1     103.765 131.053 141.455  0.00  0.00    +0.000 OA
ATOM      9  O   UNL     1     101.384 132.670 141.709  0.00  0.00    +0.000 OA
ATOM     10  O   UNL     1     101.375 131.272 142.060  0.00  0.00    +0.000 OA
ATOM     11  C   UNL     1     103.349 130.398 141.733  0.00  0.00    +0.000 A 
ATOM     12  C   UNL     1     102.588 131.854 141.580  0.00  0.00    +0.000 A 
ATOM     13  C   UNL     1     103.385 131.781 141.379  0.00  0.00    +0.000 A 
ATOM     14  C   UNL     1     102.552 130.470 141.935  0.00  0.00    +0.000 A 
ATOM     15  C   UNL     1     102.172 131.198 141.859  0.00  0.00    +0.000 A 
ATOM     16  C   UNL     1     102.182 132.607 141.505  0.00  0.00    +0.000 A 
ATOM     17  C   UNL     1     103.830 132.456 141.088  0.00  0.00    +0.000 A 
ATOM     18  C   UNL     1     103.440 133.218 141.006  0.00  0.00    +0.000 A 
ATOM     19  C   UNL     1     102.610 133.293 141.216  0.00  0.00    +0.000 A 
BRANCH  18  20
ATOM     20  O   UNL     1     103.859 133.871 140.728  0.00  0.00    +0.000 OA
ATOM     21  C   UNL     1     103.913 134.012 139.916  0.00  0.00    +0.000 C 
ENDBRANCH  18  20
ENDBRANCH   5  11
BRANCH   2  22
ATOM     22  O   UNL     1     104.869 127.485 142.039  0.00  0.00    +0.000 OA
BRANCH  22  31
ATOM     23  O   UNL     1     106.213 127.946 141.890  0.00  0.00    +0.000 OA
ATOM     24  O   UNL     1     106.947 126.386 143.665  0.00  0.00    +0.000 OA
ATOM     25  O   UNL     1     108.046 127.367 142.923  0.00  0.00    +0.000 OA
ATOM     26  O   UNL     1     105.358 126.445 143.223  0.00  0.00    +0.000 OA
ATOM     27  C   UNL     1     106.702 126.906 143.073  0.00  0.00    +0.000 C 
ATOM     28  C   UNL     1     107.252 127.396 142.703  0.00  0.00    +0.000 C 
ATOM     29  C   UNL     1     105.908 126.935 142.853  0.00  0.00    +0.000 C 
ATOM     30  C   UNL     1     107.007 127.916 142.111  0.00  0.00    +0.000 C 
ATOM     31  C   UNL     1     105.664 127.455 142.261  0.00  0.00    +0.000 C 
ATOM     32  C   UNL     1     107.558 128.407 141.740  0.00  0.00    +0.000 C 
ENDBRANCH  22  31
ENDBRANCH   2  22
TORSDOF 4
ENDMDL
MODEL 7
REMARK VINA RESULT:      -9.1      6.651      8.481
REMARK  Name = 44258377
REMARK  4 active torsions:
REMARK  status: ('A' for Active; 'I' for Inactive)
REMARK    1  A    between atoms: O_2  and  C_15
REMARK    2  A    between atoms: O_2  and  C_17
REMARK    3  A    between atoms: O_8  and  C_30
REMARK    4  A    between atoms: C_20  and  C_23
REMARK                            x       y       z     vdW  Elec       q    Type
REMARK                         _______ _______ _______ _____ _____    ______ ____
ROOT
ATOM      1  O   UNL     1     109.352 127.639 138.098  0.00  0.00    +0.000 OA
ATOM      2  C   UNL     1     109.526 127.855 136.696  0.00  0.00    +0.000 A 
ATOM      3  C   UNL     1     109.724 127.448 137.387  0.00  0.00    +0.000 A 
ATOM      4  C   UNL     1     109.899 127.664 135.985  0.00  0.00    +0.000 A 
ATOM      5  C   UNL     1     110.665 126.661 136.654  0.00  0.00    +0.000 A 
ATOM      6  C   UNL     1     110.293 126.852 137.366  0.00  0.00    +0.000 A 
ATOM      7  C   UNL     1     110.468 127.067 135.964  0.00  0.00    +0.000 A 
ENDROOT
BRANCH   5  11
ATOM      8  O   UNL     1     112.034 126.255 136.691  0.00  0.00    +0.000 OA
ATOM      9  O   UNL     1     112.715 123.454 136.488  0.00  0.00    +0.000 OA
ATOM     10  O   UNL     1     111.341 123.891 136.454  0.00  0.00    +0.000 OA
ATOM     11  C   UNL     1     111.235 126.064 136.633  0.00  0.00    +0.000 A 
ATOM     12  C   UNL     1     112.373 124.870 136.591  0.00  0.00    +0.000 A 
ATOM     13  C   UNL     1     112.604 125.658 136.670  0.00  0.00    +0.000 A 
ATOM     14  C   UNL     1     111.003 125.276 136.554  0.00  0.00    +0.000 A 
ATOM     15  C   UNL     1     111.572 124.679 136.533  0.00  0.00    +0.000 A 
ATOM     16  C   UNL     1     112.956 124.240 136.568  0.00  0.00    +0.000 A 
ATOM     17  C   UNL     1     113.434 125.870 136.731  0.00  0.00    +0.000 A 
ATOM     18  C   UNL     1     114.032 125.254 136.710  0.00  0.00    +0.000 A 
ATOM     19  C   UNL     1     113.791 124.432 136.627  0.00  0.00    +0.000 A 
BRANCH  18  20
ATOM     20  O   UNL     1     114.832 125.448 136.768  0.00  0.00    +0.000 OA
ATOM     21  C   UNL     1     115.325 125.365 136.112  0.00  0.00    +0.000 C 
ENDBRANCH  18  20
ENDBRANCH   5  11
BRANCH   2  22
ATOM     22  O   UNL     1     108.958 128.451 136.717  0.00  0.00    +0.000 OA
BRANCH  22  31
ATOM     23  O   UNL     1     109.850 129.563 136.610  0.00  0.00    +0.000 OA
ATOM     24  O   UNL     1     108.231 130.721 135.140  0.00  0.00    +0.000 OA
ATOM     25  O   UNL     1     109.663 131.446 135.523  0.00  0.00    +0.000 OA
ATOM     26  O   UNL     1     107.878 129.224 135.737  0.00  0.00    +0.000 OA
ATOM     27  C   UNL     1     108.771 130.335 135.630  0.00  0.00    +0.000 C 
ATOM     28  C   UNL     1     109.486 130.697 135.822  0.00  0.00    +0.000 C 
ATOM     29  C   UNL     1     108.594 129.587 135.928  0.00  0.00    +0.000 C 
ATOM     30  C   UNL     1     110.026 130.311 136.312  0.00  0.00    +0.000 C 
ATOM     31  C   UNL     1     109.134 129.201 136.418  0.00  0.00    +0.000 C 
ATOM     32  C   UNL     1     110.742 130.674 136.503  0.00  0.00    +0.000 C 
ENDBRANCH  22  31
ENDBRANCH   2  22
TORSDOF 4
ENDMDL
MODEL 8
REMARK VINA RESULT:      -9.0      7.737      9.029
REMARK  Name = 44258377
REMARK  4 active torsions:
REMARK  status: ('A' for Active; 'I' for Inactive)
REMARK    1  A    between atoms: O_2  and  C_15
REMARK    2  A    between atoms: O_2  and  C_17
REMARK    3  A    between atoms: O_8  and  C_30
REMARK    4  A    between atoms: C_20  and  C_23
REMARK                            x       y       z     vdW  Elec       q    Type
REMARK                         _______ _______ _______ _____ _____    ______ ____
ROOT
ATOM      1  O   UNL     1     111.900 129.107 134.612  0.00  0.00    +0.000 OA
ATOM      2  C   UNL     1     111.042 129.057 135.754  0.00  0.00    +0.000 A 
ATOM      3  C   UNL     1     111.572 128.686 135.241  0.00  0.00    +0.000 A 
ATOM      4  C   UNL     1     110.714 128.636 136.382  0.00  0.00    +0.000 A 
ATOM      5  C   UNL     1     111.443 127.473 135.986  0.00  0.00    +0.000 A 
ATOM      6  C   UNL     1     111.772 127.894 135.357  0.00  0.00    +0.000 A 
ATOM      7  C   UNL     1     110.914 127.844 136.499  0.00  0.00    +0.000 A 
ENDROOT
BRANCH   5  11
ATOM      8  O   UNL     1     112.362 126.486 136.458  0.00  0.00    +0.000 OA
ATOM      9  O   UNL     1     111.719 123.680 136.209  0.00  0.00    +0.000 OA
ATOM     10  O   UNL     1     110.809 124.697 135.741  0.00  0.00    +0.000 OA
ATOM     11  C   UNL     1     111.644 126.681 136.103  0.00  0.00    +0.000 A 
ATOM     12  C   UNL     1     112.046 125.098 136.336  0.00  0.00    +0.000 A 
ATOM     13  C   UNL     1     112.563 125.694 136.574  0.00  0.00    +0.000 A 
ATOM     14  C   UNL     1     111.126 126.085 135.864  0.00  0.00    +0.000 A 
ATOM     15  C   UNL     1     111.327 125.294 135.980  0.00  0.00    +0.000 A 
ATOM     16  C   UNL     1     112.243 124.270 136.451  0.00  0.00    +0.000 A 
ATOM     17  C   UNL     1     113.314 125.504 136.946  0.00  0.00    +0.000 A 
ATOM     18  C   UNL     1     113.529 124.681 137.070  0.00  0.00    +0.000 A 
ATOM     19  C   UNL     1     112.989 124.060 136.820  0.00  0.00    +0.000 A 
BRANCH  18  20
ATOM     20  O   UNL     1     114.248 124.489 137.425  0.00  0.00    +0.000 OA
ATOM     21  C   UNL     1     114.933 124.900 137.219  0.00  0.00    +0.000 C 
ENDBRANCH  18  20
ENDBRANCH   5  11
BRANCH   2  22
ATOM     22  O   UNL     1     110.841 129.848 135.637  0.00  0.00    +0.000 OA
BRANCH  22  31
ATOM     23  O   UNL     1     111.643 130.417 136.675  0.00  0.00    +0.000 OA
ATOM     24  O   UNL     1     109.804 131.974 137.241  0.00  0.00    +0.000 OA
ATOM     25  O   UNL     1     111.219 132.024 138.090  0.00  0.00    +0.000 OA
ATOM     26  O   UNL     1     109.616 130.886 136.015  0.00  0.00    +0.000 OA
ATOM     27  C   UNL     1     110.417 131.455 137.052  0.00  0.00    +0.000 C 
ATOM     28  C   UNL     1     111.124 131.480 137.477  0.00  0.00    +0.000 C 
ATOM     29  C   UNL     1     110.323 130.912 136.440  0.00  0.00    +0.000 C 
ATOM     30  C   UNL     1     111.736 130.961 137.288  0.00  0.00    +0.000 C 
ATOM     31  C   UNL     1     110.936 130.393 136.251  0.00  0.00    +0.000 C 
ATOM     32  C   UNL     1     112.444 130.985 137.713  0.00  0.00    +0.000 C 
ENDBRANCH  22  31
ENDBRANCH   2  22
TORSDOF 4
ENDMDL
MODEL 9
REMARK VINA RESULT:      -8.8      7.697      9.355
REMARK  Name = 44258377
REMARK  4 active torsions:
REMARK  status: ('A' for Active; 'I' for Inactive)
REMARK    1  A    between atoms: O_2  and  C_15
REMARK    2  A    between atoms: O_2  and  C_17
REMARK    3  A    between atoms: O_8  and  C_30
REMARK    4  A    between atoms: C_20  and  C_23
REMARK                            x       y       z     vdW  Elec       q    Type
REMARK                         _______ _______ _______ _____ _____    ______ ____
ROOT
ATOM      1  O   UNL     1     112.158 129.188 134.612  0.00  0.00    +0.000 OA
ATOM      2  C   UNL     1     111.759 129.253 135.983  0.00  0.00    +0.000 A 
ATOM      3  C   UNL     1     112.125 128.848 135.363  0.00  0.00    +0.000 A 
ATOM      4  C   UNL     1     111.726 128.914 136.734  0.00  0.00    +0.000 A 
ATOM      5  C   UNL     1     112.423 127.765 136.247  0.00  0.00    +0.000 A 
ATOM      6  C   UNL     1     112.456 128.104 135.496  0.00  0.00    +0.000 A 
ATOM      7  C   UNL     1     112.057 128.170 136.866  0.00  0.00    +0.000 A 
ENDROOT
BRANCH   5  11
ATOM      8  O   UNL     1     112.277 126.349 136.364  0.00  0.00    +0.000 OA
ATOM      9  O   UNL     1     114.584 124.703 136.930  0.00  0.00    +0.000 OA
ATOM     10  O   UNL     1     114.703 126.135 136.807  0.00  0.00    +0.000 OA
ATOM     11  C   UNL     1     112.754 127.021 136.380  0.00  0.00    +0.000 A 
ATOM     12  C   UNL     1     113.417 125.533 136.644  0.00  0.00    +0.000 A 
ATOM     13  C   UNL     1     112.608 125.605 136.496  0.00  0.00    +0.000 A 
ATOM     14  C   UNL     1     113.563 126.951 136.527  0.00  0.00    +0.000 A 
ATOM     15  C   UNL     1     113.894 126.207 136.660  0.00  0.00    +0.000 A 
ATOM     16  C   UNL     1     113.774 124.764 136.783  0.00  0.00    +0.000 A 
ATOM     17  C   UNL     1     112.101 124.912 136.477  0.00  0.00    +0.000 A 
ATOM     18  C   UNL     1     112.439 124.134 136.614  0.00  0.00    +0.000 A 
ATOM     19  C   UNL     1     113.282 124.060 136.768  0.00  0.00    +0.000 A 
BRANCH  18  20
ATOM     20  O   UNL     1     111.960 123.463 136.598  0.00  0.00    +0.000 OA
ATOM     21  C   UNL     1     111.916 122.972 137.259  0.00  0.00    +0.000 C 
ENDBRANCH  18  20
ENDBRANCH   5  11
BRANCH   2  22
ATOM     22  O   UNL     1     111.428 129.996 135.851  0.00  0.00    +0.000 OA
BRANCH  22  31
ATOM     23  O   UNL     1     110.052 129.613 135.845  0.00  0.00    +0.000 OA
ATOM     24  O   UNL     1     109.481 131.641 137.143  0.00  0.00    +0.000 OA
ATOM     25  O   UNL     1     108.295 130.582 136.704  0.00  0.00    +0.000 OA
ATOM     26  O   UNL     1     111.048 131.349 136.717  0.00  0.00    +0.000 OA
ATOM     27  C   UNL     1     109.671 130.965 136.710  0.00  0.00    +0.000 C 
ATOM     28  C   UNL     1     109.078 130.436 136.491  0.00  0.00    +0.000 C 
ATOM     29  C   UNL     1     110.454 130.819 136.497  0.00  0.00    +0.000 C 
ATOM     30  C   UNL     1     109.269 129.760 136.058  0.00  0.00    +0.000 C 
ATOM     31  C   UNL     1     110.644 130.143 136.065  0.00  0.00    +0.000 C 
ATOM     32  C   UNL     1     108.675 129.230 135.838  0.00  0.00    +0.000 C 
ENDBRANCH  22  31
ENDBRANCH   2  22
TORSDOF 4
ENDMDL
MODEL 10
REMARK VINA RESULT:      -8.8      5.428      7.018
REMARK  Name = 44258377
REMARK  4 active torsions:
REMARK  status: ('A' for Active; 'I' for Inactive)
REMARK    1  A    between atoms: O_2  and  C_15
REMARK    2  A    between atoms: O_2  and  C_17
REMARK    3  A    between atoms: O_8  and  C_30
REMARK    4  A    between atoms: C_20  and  C_23
REMARK                            x       y       z     vdW  Elec       q    Type
REMARK                         _______ _______ _______ _____ _____    ______ ____
ROOT
ATOM      1  O   UNL     1     106.148 124.246 144.791  0.00  0.00    +0.000 OA
ATOM      2  C   UNL     1     105.660 125.204 145.732  0.00  0.00    +0.000 A 
ATOM      3  C   UNL     1     105.950 125.024 144.980  0.00  0.00    +0.000 A 
ATOM      4  C   UNL     1     105.462 125.982 145.921  0.00  0.00    +0.000 A 
ATOM      5  C   UNL     1     105.845 126.401 144.609  0.00  0.00    +0.000 A 
ATOM      6  C   UNL     1     106.043 125.622 144.419  0.00  0.00    +0.000 A 
ATOM      7  C   UNL     1     105.554 126.580 145.360  0.00  0.00    +0.000 A 
ENDROOT
BRANCH   5  11
ATOM      8  O   UNL     1     105.362 127.113 143.469  0.00  0.00    +0.000 OA
ATOM      9  O   UNL     1     106.902 129.299 142.375  0.00  0.00    +0.000 OA
ATOM     10  O   UNL     1     107.366 128.564 143.525  0.00  0.00    +0.000 OA
ATOM     11  C   UNL     1     105.937 126.999 144.048  0.00  0.00    +0.000 A 
ATOM     12  C   UNL     1     106.122 128.194 142.926  0.00  0.00    +0.000 A 
ATOM     13  C   UNL     1     105.454 127.711 142.908  0.00  0.00    +0.000 A 
ATOM     14  C   UNL     1     106.606 127.482 144.068  0.00  0.00    +0.000 A 
ATOM     15  C   UNL     1     106.698 128.080 143.507  0.00  0.00    +0.000 A 
ATOM     16  C   UNL     1     106.230 128.820 142.348  0.00  0.00    +0.000 A 
ATOM     17  C   UNL     1     104.848 127.819 142.309  0.00  0.00    +0.000 A 
ATOM     18  C   UNL     1     104.938 128.440 141.722  0.00  0.00    +0.000 A 
ATOM     19  C   UNL     1     105.634 128.944 141.742  0.00  0.00    +0.000 A 
BRANCH  18  20
ATOM     20  O   UNL     1     104.361 128.552 141.143  0.00  0.00    +0.000 OA
ATOM     21  C   UNL     1     103.702 129.023 141.303  0.00  0.00    +0.000 C 
ENDBRANCH  18  20
ENDBRANCH   5  11
BRANCH   2  22
ATOM     22  O   UNL     1     105.567 124.607 146.292  0.00  0.00    +0.000 OA
BRANCH  22  31
ATOM     23  O   UNL     1     106.727 124.863 147.087  0.00  0.00    +0.000 OA
ATOM     24  O   UNL     1     105.393 124.515 149.143  0.00  0.00    +0.000 OA
ATOM     25  O   UNL     1     106.997 124.887 149.253  0.00  0.00    +0.000 OA
ATOM     26  O   UNL     1     104.678 124.375 147.662  0.00  0.00    +0.000 OA
ATOM     27  C   UNL     1     105.838 124.631 148.458  0.00  0.00    +0.000 C 
ATOM     28  C   UNL     1     106.639 124.817 148.513  0.00  0.00    +0.000 C 
ATOM     29  C   UNL     1     105.480 124.561 147.718  0.00  0.00    +0.000 C 
ATOM     30  C   UNL     1     107.083 124.933 147.828  0.00  0.00    +0.000 C 
ATOM     31  C   UNL     1     105.925 124.677 147.033  0.00  0.00    +0.000 C 
ATOM     32  C   UNL     1     107.886 125.119 147.883  0.00  0.00    +0.000 C 
ENDBRANCH  22  31
ENDBRANCH   2  22
TORSDOF 4
ENDMDL
