MODEL 1
REMARK VINA RESULT:     -10.0      0.000      0.000
REMARK  Name = 44257175
REMARK  4 active torsions:
REMARK  status: ('A' for Active; 'I' for Inactive)
REMARK    1  A    between atoms: O_2  and  C_14
REMARK    2  A    between atoms: O_2  and  C_21
REMARK    3  A    between atoms: C_13  and  C_15
REMARK    4  A    between atoms: C_16  and  C_22
REMARK                            x       y       z     vdW  Elec       q    Type
REMARK                         _______ _______ _______ _____ _____    ______ ____
ROOT
ATOM      1  O   UNL     1     111.030 126.061 136.453  0.00  0.00    +0.000 OA
ATOM      2  C   UNL     1     111.344 125.384 136.103  0.00  0.00    +0.000 C 
ATOM      3  C   UNL     1     110.983 125.059 135.436  0.00  0.00    +0.000 C 
ATOM      4  C   UNL     1     110.307 125.411 135.120  0.00  0.00    +0.000 C 
ATOM      5  C   UNL     1     109.992 126.088 135.471  0.00  0.00    +0.000 A 
ATOM      6  C   UNL     1     110.353 126.413 136.138  0.00  0.00    +0.000 A 
ATOM      7  C   UNL     1     109.331 127.490 136.188  0.00  0.00    +0.000 A 
ATOM      8  C   UNL     1     110.035 127.119 136.512  0.00  0.00    +0.000 A 
ATOM      9  C   UNL     1     109.288 126.445 135.133  0.00  0.00    +0.000 A 
ATOM     10  C   UNL     1     108.955 127.151 135.494  0.00  0.00    +0.000 A 
ENDROOT
BRANCH   2  13
ATOM     11  O   UNL     1     114.173 125.375 136.859  0.00  0.00    +0.000 OA
ATOM     12  O   UNL     1     114.120 124.133 137.327  0.00  0.00    +0.000 OA
ATOM     13  C   UNL     1     112.020 125.033 136.419  0.00  0.00    +0.000 A 
ATOM     14  C   UNL     1     112.729 125.453 136.444  0.00  0.00    +0.000 A 
ATOM     15  C   UNL     1     111.987 124.261 136.709  0.00  0.00    +0.000 A 
ATOM     16  C   UNL     1     113.406 125.103 136.760  0.00  0.00    +0.000 A 
ATOM     17  C   UNL     1     113.373 124.331 137.051  0.00  0.00    +0.000 A 
ATOM     18  C   UNL     1     112.664 123.910 137.025  0.00  0.00    +0.000 A 
ATOM     19  C   UNL     1     114.613 124.778 137.208  0.00  0.00    +0.000 C 
ENDBRANCH   2  13
BRANCH   7  20
ATOM     20  O   UNL     1     109.018 128.167 136.540  0.00  0.00    +0.000 OA
BRANCH  20  29
ATOM     21  O   UNL     1     109.987 129.141 136.147  0.00  0.00    +0.000 OA
ATOM     22  O   UNL     1     108.168 130.689 135.501  0.00  0.00    +0.000 OA
ATOM     23  O   UNL     1     109.742 131.146 135.323  0.00  0.00    +0.000 OA
ATOM     24  O   UNL     1     107.805 129.199 136.109  0.00  0.00    +0.000 OA
ATOM     25  C   UNL     1     108.774 130.173 135.716  0.00  0.00    +0.000 C 
ATOM     26  C   UNL     1     109.561 130.402 135.627  0.00  0.00    +0.000 C 
ATOM     27  C   UNL     1     108.592 129.428 136.021  0.00  0.00    +0.000 C 
ATOM     28  C   UNL     1     110.167 129.886 135.843  0.00  0.00    +0.000 C 
ATOM     29  C   UNL     1     109.199 128.912 136.236  0.00  0.00    +0.000 C 
BRANCH  28  31
ATOM     30  O   UNL     1     111.471 130.071 136.397  0.00  0.00    +0.000 OA
ATOM     31  C   UNL     1     110.955 130.114 135.754  0.00  0.00    +0.000 C 
ENDBRANCH  28  31
ENDBRANCH  20  29
ENDBRANCH   7  20
TORSDOF 4
ENDMDL
MODEL 2
REMARK VINA RESULT:      -9.4      6.415      7.980
REMARK  Name = 44257175
REMARK  4 active torsions:
REMARK  status: ('A' for Active; 'I' for Inactive)
REMARK    1  A    between atoms: O_2  and  C_14
REMARK    2  A    between atoms: O_2  and  C_21
REMARK    3  A    between atoms: C_13  and  C_15
REMARK    4  A    between atoms: C_16  and  C_22
REMARK                            x       y       z     vdW  Elec       q    Type
REMARK                         _______ _______ _______ _____ _____    ______ ____
ROOT
ATOM      1  O   UNL     1     104.727 124.584 139.739  0.00  0.00    +0.000 OA
ATOM      2  C   UNL     1     104.391 123.844 139.597  0.00  0.00    +0.000 C 
ATOM      3  C   UNL     1     104.508 123.228 140.134  0.00  0.00    +0.000 C 
ATOM      4  C   UNL     1     104.961 123.353 140.812  0.00  0.00    +0.000 C 
ATOM      5  C   UNL     1     105.297 124.093 140.954  0.00  0.00    +0.000 A 
ATOM      6  C   UNL     1     105.180 124.708 140.417  0.00  0.00    +0.000 A 
ATOM      7  C   UNL     1     105.998 125.619 141.258  0.00  0.00    +0.000 A 
ATOM      8  C   UNL     1     105.526 125.484 140.553  0.00  0.00    +0.000 A 
ATOM      9  C   UNL     1     105.767 124.210 141.663  0.00  0.00    +0.000 A 
ATOM     10  C   UNL     1     106.120 124.979 141.816  0.00  0.00    +0.000 A 
ENDROOT
BRANCH   2  13
ATOM     11  O   UNL     1     104.052 123.130 136.778  0.00  0.00    +0.000 OA
ATOM     12  O   UNL     1     102.736 123.309 136.814  0.00  0.00    +0.000 OA
ATOM     13  C   UNL     1     103.938 123.720 138.919  0.00  0.00    +0.000 A 
ATOM     14  C   UNL     1     104.303 123.484 138.218  0.00  0.00    +0.000 A 
ATOM     15  C   UNL     1     103.121 123.831 138.942  0.00  0.00    +0.000 A 
ATOM     16  C   UNL     1     103.851 123.360 137.539  0.00  0.00    +0.000 A 
ATOM     17  C   UNL     1     103.034 123.472 137.562  0.00  0.00    +0.000 A 
ATOM     18  C   UNL     1     102.669 123.707 138.263  0.00  0.00    +0.000 A 
ATOM     19  C   UNL     1     103.365 123.098 136.331  0.00  0.00    +0.000 C 
ENDBRANCH   2  13
BRANCH   7  20
ATOM     20  O   UNL     1     106.333 126.360 141.396  0.00  0.00    +0.000 OA
BRANCH  20  29
ATOM     21  O   UNL     1     107.588 126.114 140.757  0.00  0.00    +0.000 OA
ATOM     22  O   UNL     1     108.741 127.416 142.518  0.00  0.00    +0.000 OA
ATOM     23  O   UNL     1     109.610 126.736 141.292  0.00  0.00    +0.000 OA
ATOM     24  O   UNL     1     107.102 127.229 142.570  0.00  0.00    +0.000 OA
ATOM     25  C   UNL     1     108.356 126.982 141.931  0.00  0.00    +0.000 C 
ATOM     26  C   UNL     1     108.791 126.642 141.319  0.00  0.00    +0.000 C 
ATOM     27  C   UNL     1     107.537 126.889 141.958  0.00  0.00    +0.000 C 
ATOM     28  C   UNL     1     108.407 126.208 140.732  0.00  0.00    +0.000 C 
ATOM     29  C   UNL     1     107.153 126.455 141.371  0.00  0.00    +0.000 C 
BRANCH  28  31
ATOM     30  O   UNL     1     108.666 126.057 139.335  0.00  0.00    +0.000 OA
ATOM     31  C   UNL     1     108.841 125.868 140.119  0.00  0.00    +0.000 C 
ENDBRANCH  28  31
ENDBRANCH  20  29
ENDBRANCH   7  20
TORSDOF 4
ENDMDL
MODEL 3
REMARK VINA RESULT:      -9.4      1.212      5.493
REMARK  Name = 44257175
REMARK  4 active torsions:
REMARK  status: ('A' for Active; 'I' for Inactive)
REMARK    1  A    between atoms: O_2  and  C_14
REMARK    2  A    between atoms: O_2  and  C_21
REMARK    3  A    between atoms: C_13  and  C_15
REMARK    4  A    between atoms: C_16  and  C_22
REMARK                            x       y       z     vdW  Elec       q    Type
REMARK                         _______ _______ _______ _____ _____    ______ ____
ROOT
ATOM      1  O   UNL     1     110.346 127.467 135.954  0.00  0.00    +0.000 OA
ATOM      2  C   UNL     1     110.011 127.788 135.272  0.00  0.00    +0.000 C 
ATOM      3  C   UNL     1     109.878 127.309 134.613  0.00  0.00    +0.000 C 
ATOM      4  C   UNL     1     110.081 126.510 134.637  0.00  0.00    +0.000 C 
ATOM      5  C   UNL     1     110.416 126.189 135.319  0.00  0.00    +0.000 A 
ATOM      6  C   UNL     1     110.549 126.668 135.977  0.00  0.00    +0.000 A 
ATOM      7  C   UNL     1     111.111 125.513 136.724  0.00  0.00    +0.000 A 
ATOM      8  C   UNL     1     110.898 126.345 136.694  0.00  0.00    +0.000 A 
ATOM      9  C   UNL     1     110.623 125.355 135.331  0.00  0.00    +0.000 A 
ATOM     10  C   UNL     1     110.973 125.015 136.039  0.00  0.00    +0.000 A 
ENDROOT
BRANCH   2  13
ATOM     11  O   UNL     1     108.224 130.046 135.803  0.00  0.00    +0.000 OA
ATOM     12  O   UNL     1     109.056 130.928 135.261  0.00  0.00    +0.000 OA
ATOM     13  C   UNL     1     109.809 128.587 135.249  0.00  0.00    +0.000 A 
ATOM     14  C   UNL     1     109.089 128.839 135.563  0.00  0.00    +0.000 A 
ATOM     15  C   UNL     1     110.325 129.135 134.912  0.00  0.00    +0.000 A 
ATOM     16  C   UNL     1     108.885 129.638 135.541  0.00  0.00    +0.000 A 
ATOM     17  C   UNL     1     109.402 130.186 135.204  0.00  0.00    +0.000 A 
ATOM     18  C   UNL     1     110.122 129.934 134.890  0.00  0.00    +0.000 A 
ATOM     19  C   UNL     1     108.329 130.840 135.630  0.00  0.00    +0.000 C 
ENDBRANCH   2  13
BRANCH   7  20
ATOM     20  O   UNL     1     111.446 125.195 137.408  0.00  0.00    +0.000 OA
BRANCH  20  29
ATOM     21  O   UNL     1     112.817 125.141 137.010  0.00  0.00    +0.000 OA
ATOM     22  O   UNL     1     113.490 126.070 139.203  0.00  0.00    +0.000 OA
ATOM     23  O   UNL     1     114.636 125.707 138.074  0.00  0.00    +0.000 OA
ATOM     24  O   UNL     1     111.895 125.814 138.870  0.00  0.00    +0.000 OA
ATOM     25  C   UNL     1     113.266 125.760 138.472  0.00  0.00    +0.000 C 
ATOM     26  C   UNL     1     113.839 125.579 137.908  0.00  0.00    +0.000 C 
ATOM     27  C   UNL     1     112.468 125.633 138.306  0.00  0.00    +0.000 C 
ATOM     28  C   UNL     1     113.615 125.269 137.177  0.00  0.00    +0.000 C 
ATOM     29  C   UNL     1     112.243 125.323 137.575  0.00  0.00    +0.000 C 
BRANCH  28  31
ATOM     30  O   UNL     1     114.171 124.357 136.228  0.00  0.00    +0.000 OA
ATOM     31  C   UNL     1     114.188 125.088 136.612  0.00  0.00    +0.000 C 
ENDBRANCH  28  31
ENDBRANCH  20  29
ENDBRANCH   7  20
TORSDOF 4
ENDMDL
MODEL 4
REMARK VINA RESULT:      -9.2      2.403      4.832
REMARK  Name = 44257175
REMARK  4 active torsions:
REMARK  status: ('A' for Active; 'I' for Inactive)
REMARK    1  A    between atoms: O_2  and  C_14
REMARK    2  A    between atoms: O_2  and  C_21
REMARK    3  A    between atoms: C_13  and  C_15
REMARK    4  A    between atoms: C_16  and  C_22
REMARK                            x       y       z     vdW  Elec       q    Type
REMARK                         _______ _______ _______ _____ _____    ______ ____
ROOT
ATOM      1  O   UNL     1     112.449 128.227 135.517  0.00  0.00    +0.000 OA
ATOM      2  C   UNL     1     112.519 129.002 135.243  0.00  0.00    +0.000 C 
ATOM      3  C   UNL     1     111.912 129.339 134.798  0.00  0.00    +0.000 C 
ATOM      4  C   UNL     1     111.233 128.901 134.628  0.00  0.00    +0.000 C 
ATOM      5  C   UNL     1     111.163 128.126 134.902  0.00  0.00    +0.000 A 
ATOM      6  C   UNL     1     111.771 127.789 135.347  0.00  0.00    +0.000 A 
ATOM      7  C   UNL     1     111.005 126.522 135.464  0.00  0.00    +0.000 A 
ATOM      8  C   UNL     1     111.709 126.983 135.639  0.00  0.00    +0.000 A 
ATOM      9  C   UNL     1     110.452 127.681 134.718  0.00  0.00    +0.000 A 
ATOM     10  C   UNL     1     110.373 126.873 135.001  0.00  0.00    +0.000 A 
ENDROOT
BRANCH   2  13
ATOM     11  O   UNL     1     115.182 130.045 134.612  0.00  0.00    +0.000 OA
ATOM     12  O   UNL     1     115.282 130.695 135.766  0.00  0.00    +0.000 OA
ATOM     13  C   UNL     1     113.197 129.439 135.413  0.00  0.00    +0.000 A 
ATOM     14  C   UNL     1     113.814 129.473 134.866  0.00  0.00    +0.000 A 
ATOM     15  C   UNL     1     113.260 129.843 136.130  0.00  0.00    +0.000 A 
ATOM     16  C   UNL     1     114.493 129.910 135.036  0.00  0.00    +0.000 A 
ATOM     17  C   UNL     1     114.555 130.314 135.753  0.00  0.00    +0.000 A 
ATOM     18  C   UNL     1     113.938 130.280 136.300  0.00  0.00    +0.000 A 
ATOM     19  C   UNL     1     115.668 130.528 135.062  0.00  0.00    +0.000 C 
ENDBRANCH   2  13
BRANCH   7  20
ATOM     20  O   UNL     1     110.938 125.747 135.740  0.00  0.00    +0.000 OA
BRANCH  20  29
ATOM     21  O   UNL     1     110.392 126.050 137.025  0.00  0.00    +0.000 OA
ATOM     22  O   UNL     1     111.772 124.259 138.032  0.00  0.00    +0.000 OA
ATOM     23  O   UNL     1     110.767 125.158 138.981  0.00  0.00    +0.000 OA
ATOM     24  O   UNL     1     111.858 124.554 136.411  0.00  0.00    +0.000 OA
ATOM     25  C   UNL     1     111.312 124.856 137.697  0.00  0.00    +0.000 C 
ATOM     26  C   UNL     1     110.810 125.305 138.171  0.00  0.00    +0.000 C 
ATOM     27  C   UNL     1     111.355 125.003 136.886  0.00  0.00    +0.000 C 
ATOM     28  C   UNL     1     110.350 125.902 137.836  0.00  0.00    +0.000 C 
ATOM     29  C   UNL     1     110.895 125.600 136.550  0.00  0.00    +0.000 C 
BRANCH  28  31
ATOM     30  O   UNL     1     109.074 126.506 138.062  0.00  0.00    +0.000 OA
ATOM     31  C   UNL     1     109.847 126.352 138.310  0.00  0.00    +0.000 C 
ENDBRANCH  28  31
ENDBRANCH  20  29
ENDBRANCH   7  20
TORSDOF 4
ENDMDL
MODEL 5
REMARK VINA RESULT:      -9.2      7.758     10.641
REMARK  Name = 44257175
REMARK  4 active torsions:
REMARK  status: ('A' for Active; 'I' for Inactive)
REMARK    1  A    between atoms: O_2  and  C_14
REMARK    2  A    between atoms: O_2  and  C_21
REMARK    3  A    between atoms: C_13  and  C_15
REMARK    4  A    between atoms: C_16  and  C_22
REMARK                            x       y       z     vdW  Elec       q    Type
REMARK                         _______ _______ _______ _____ _____    ______ ____
ROOT
ATOM      1  O   UNL     1     103.167 130.263 141.991  0.00  0.00    +0.000 OA
ATOM      2  C   UNL     1     102.627 130.542 141.433  0.00  0.00    +0.000 C 
ATOM      3  C   UNL     1     102.486 130.111 140.744  0.00  0.00    +0.000 C 
ATOM      4  C   UNL     1     102.885 129.401 140.613  0.00  0.00    +0.000 C 
ATOM      5  C   UNL     1     103.425 129.122 141.171  0.00  0.00    +0.000 A 
ATOM      6  C   UNL     1     103.566 129.553 141.860  0.00  0.00    +0.000 A 
ATOM      7  C   UNL     1     104.546 128.534 142.317  0.00  0.00    +0.000 A 
ATOM      8  C   UNL     1     104.127 129.273 142.449  0.00  0.00    +0.000 A 
ATOM      9  C   UNL     1     103.834 128.381 141.023  0.00  0.00    +0.000 A 
ATOM     10  C   UNL     1     104.398 128.085 141.600  0.00  0.00    +0.000 A 
ENDROOT
BRANCH   2  13
ATOM     11  O   UNL     1     102.403 133.461 141.374  0.00  0.00    +0.000 OA
ATOM     12  O   UNL     1     101.181 133.452 141.895  0.00  0.00    +0.000 OA
ATOM     13  C   UNL     1     102.229 131.252 141.565  0.00  0.00    +0.000 A 
ATOM     14  C   UNL     1     102.590 131.969 141.374  0.00  0.00    +0.000 A 
ATOM     15  C   UNL     1     101.470 131.246 141.889  0.00  0.00    +0.000 A 
ATOM     16  C   UNL     1     102.192 132.679 141.505  0.00  0.00    +0.000 A 
ATOM     17  C   UNL     1     101.433 132.674 141.829  0.00  0.00    +0.000 A 
ATOM     18  C   UNL     1     101.072 131.957 142.020  0.00  0.00    +0.000 A 
ATOM     19  C   UNL     1     101.780 133.937 141.614  0.00  0.00    +0.000 C 
ENDBRANCH   2  13
BRANCH   7  20
ATOM     20  O   UNL     1     105.085 128.257 142.876  0.00  0.00    +0.000 OA
BRANCH  20  29
ATOM     21  O   UNL     1     106.247 128.866 142.309  0.00  0.00    +0.000 OA
ATOM     22  O   UNL     1     107.588 126.879 142.926  0.00  0.00    +0.000 OA
ATOM     23  O   UNL     1     108.302 128.149 142.154  0.00  0.00    +0.000 OA
ATOM     24  O   UNL     1     105.979 126.933 143.288  0.00  0.00    +0.000 OA
ATOM     25  C   UNL     1     107.141 127.541 142.721  0.00  0.00    +0.000 C 
ATOM     26  C   UNL     1     107.499 128.176 142.334  0.00  0.00    +0.000 C 
ATOM     27  C   UNL     1     106.337 127.568 142.902  0.00  0.00    +0.000 C 
ATOM     28  C   UNL     1     107.052 128.838 142.129  0.00  0.00    +0.000 C 
ATOM     29  C   UNL     1     105.890 128.230 142.696  0.00  0.00    +0.000 C 
BRANCH  28  31
ATOM     30  O   UNL     1     107.182 129.667 140.972  0.00  0.00    +0.000 OA
ATOM     31  C   UNL     1     107.408 129.473 141.742  0.00  0.00    +0.000 C 
ENDBRANCH  28  31
ENDBRANCH  20  29
ENDBRANCH   7  20
TORSDOF 4
ENDMDL
MODEL 6
REMARK VINA RESULT:      -9.2      1.517      2.346
REMARK  Name = 44257175
REMARK  4 active torsions:
REMARK  status: ('A' for Active; 'I' for Inactive)
REMARK    1  A    between atoms: O_2  and  C_14
REMARK    2  A    between atoms: O_2  and  C_21
REMARK    3  A    between atoms: C_13  and  C_15
REMARK    4  A    between atoms: C_16  and  C_22
REMARK                            x       y       z     vdW  Elec       q    Type
REMARK                         _______ _______ _______ _____ _____    ______ ____
ROOT
ATOM      1  O   UNL     1     112.286 126.855 136.102  0.00  0.00    +0.000 OA
ATOM      2  C   UNL     1     112.949 126.468 136.403  0.00  0.00    +0.000 C 
ATOM      3  C   UNL     1     113.640 126.892 136.556  0.00  0.00    +0.000 C 
ATOM      4  C   UNL     1     113.667 127.703 136.408  0.00  0.00    +0.000 C 
ATOM      5  C   UNL     1     113.004 128.090 136.107  0.00  0.00    +0.000 A 
ATOM      6  C   UNL     1     112.313 127.666 135.954  0.00  0.00    +0.000 A 
ATOM      7  C   UNL     1     111.638 128.903 135.485  0.00  0.00    +0.000 A 
ATOM      8  C   UNL     1     111.615 128.058 135.641  0.00  0.00    +0.000 A 
ATOM      9  C   UNL     1     113.045 128.935 135.958  0.00  0.00    +0.000 A 
ATOM     10  C   UNL     1     112.357 129.345 135.645  0.00  0.00    +0.000 A 
ENDROOT
BRANCH   2  13
ATOM     11  O   UNL     1     111.591 124.009 137.229  0.00  0.00    +0.000 OA
ATOM     12  O   UNL     1     112.670 123.260 137.036  0.00  0.00    +0.000 OA
ATOM     13  C   UNL     1     112.921 125.657 136.550  0.00  0.00    +0.000 A 
ATOM     14  C   UNL     1     112.222 125.311 136.818  0.00  0.00    +0.000 A 
ATOM     15  C   UNL     1     113.592 125.192 136.430  0.00  0.00    +0.000 A 
ATOM     16  C   UNL     1     112.193 124.500 136.966  0.00  0.00    +0.000 A 
ATOM     17  C   UNL     1     112.863 124.034 136.846  0.00  0.00    +0.000 A 
ATOM     18  C   UNL     1     113.563 124.380 136.578  0.00  0.00    +0.000 A 
ATOM     19  C   UNL     1     111.885 123.245 137.273  0.00  0.00    +0.000 C 
ENDBRANCH   2  13
BRANCH   7  20
ATOM     20  O   UNL     1     110.973 129.288 135.184  0.00  0.00    +0.000 OA
BRANCH  20  29
ATOM     21  O   UNL     1     110.465 129.832 136.405  0.00  0.00    +0.000 OA
ATOM     22  O   UNL     1     108.165 129.228 135.717  0.00  0.00    +0.000 OA
ATOM     23  O   UNL     1     108.425 129.973 137.166  0.00  0.00    +0.000 OA
ATOM     24  O   UNL     1     109.439 128.886 134.726  0.00  0.00    +0.000 OA
ATOM     25  C   UNL     1     108.932 129.430 135.946  0.00  0.00    +0.000 C 
ATOM     26  C   UNL     1     109.061 129.802 136.670  0.00  0.00    +0.000 C 
ATOM     27  C   UNL     1     109.569 129.258 135.450  0.00  0.00    +0.000 C 
ATOM     28  C   UNL     1     109.828 130.003 136.900  0.00  0.00    +0.000 C 
ATOM     29  C   UNL     1     110.335 129.459 135.679  0.00  0.00    +0.000 C 
BRANCH  28  31
ATOM     30  O   UNL     1     110.393 131.076 137.655  0.00  0.00    +0.000 OA
ATOM     31  C   UNL     1     109.958 130.375 137.624  0.00  0.00    +0.000 C 
ENDBRANCH  28  31
ENDBRANCH  20  29
ENDBRANCH   7  20
TORSDOF 4
ENDMDL
MODEL 7
REMARK VINA RESULT:      -9.1      1.795      2.418
REMARK  Name = 44257175
REMARK  4 active torsions:
REMARK  status: ('A' for Active; 'I' for Inactive)
REMARK    1  A    between atoms: O_2  and  C_14
REMARK    2  A    between atoms: O_2  and  C_21
REMARK    3  A    between atoms: C_13  and  C_15
REMARK    4  A    between atoms: C_16  and  C_22
REMARK                            x       y       z     vdW  Elec       q    Type
REMARK                         _______ _______ _______ _____ _____    ______ ____
ROOT
ATOM      1  O   UNL     1     110.179 127.580 136.121  0.00  0.00    +0.000 OA
ATOM      2  C   UNL     1     110.545 127.154 135.516  0.00  0.00    +0.000 C 
ATOM      3  C   UNL     1     110.609 127.482 134.762  0.00  0.00    +0.000 C 
ATOM      4  C   UNL     1     110.307 128.235 134.612  0.00  0.00    +0.000 C 
ATOM      5  C   UNL     1     109.941 128.660 135.217  0.00  0.00    +0.000 A 
ATOM      6  C   UNL     1     109.877 128.333 135.971  0.00  0.00    +0.000 A 
ATOM      7  C   UNL     1     109.180 129.551 136.459  0.00  0.00    +0.000 A 
ATOM      8  C   UNL     1     109.497 128.766 136.610  0.00  0.00    +0.000 A 
ATOM      9  C   UNL     1     109.630 129.443 135.048  0.00  0.00    +0.000 A 
ATOM     10  C   UNL     1     109.247 129.892 135.674  0.00  0.00    +0.000 A 
ENDROOT
BRANCH   2  13
ATOM     11  O   UNL     1     112.600 125.312 136.494  0.00  0.00    +0.000 OA
ATOM     12  O   UNL     1     111.889 124.235 136.181  0.00  0.00    +0.000 OA
ATOM     13  C   UNL     1     110.847 126.402 135.667  0.00  0.00    +0.000 A 
ATOM     14  C   UNL     1     111.591 126.318 136.013  0.00  0.00    +0.000 A 
ATOM     15  C   UNL     1     110.405 125.733 135.472  0.00  0.00    +0.000 A 
ATOM     16  C   UNL     1     111.894 125.566 136.164  0.00  0.00    +0.000 A 
ATOM     17  C   UNL     1     111.452 124.897 135.969  0.00  0.00    +0.000 A 
ATOM     18  C   UNL     1     110.708 124.980 135.623  0.00  0.00    +0.000 A 
ATOM     19  C   UNL     1     112.597 124.492 136.505  0.00  0.00    +0.000 C 
ENDBRANCH   2  13
BRANCH   7  20
ATOM     20  O   UNL     1     108.815 129.974 137.066  0.00  0.00    +0.000 OA
BRANCH  20  29
ATOM     21  O   UNL     1     110.013 130.509 137.631  0.00  0.00    +0.000 OA
ATOM     22  O   UNL     1     108.822 132.612 138.166  0.00  0.00    +0.000 OA
ATOM     23  O   UNL     1     110.416 132.446 138.553  0.00  0.00    +0.000 OA
ATOM     24  O   UNL     1     108.021 131.376 137.422  0.00  0.00    +0.000 OA
ATOM     25  C   UNL     1     109.219 131.911 137.987  0.00  0.00    +0.000 C 
ATOM     26  C   UNL     1     110.016 131.828 138.181  0.00  0.00    +0.000 C 
ATOM     27  C   UNL     1     108.818 131.293 137.616  0.00  0.00    +0.000 C 
ATOM     28  C   UNL     1     110.413 131.127 138.003  0.00  0.00    +0.000 C 
ATOM     29  C   UNL     1     109.215 130.592 137.437  0.00  0.00    +0.000 C 
BRANCH  28  31
ATOM     30  O   UNL     1     111.462 130.392 138.636  0.00  0.00    +0.000 OA
ATOM     31  C   UNL     1     111.210 131.044 138.196  0.00  0.00    +0.000 C 
ENDBRANCH  28  31
ENDBRANCH  20  29
ENDBRANCH   7  20
TORSDOF 4
ENDMDL
MODEL 8
REMARK VINA RESULT:      -9.1      2.121      3.276
REMARK  Name = 44257175
REMARK  4 active torsions:
REMARK  status: ('A' for Active; 'I' for Inactive)
REMARK    1  A    between atoms: O_2  and  C_14
REMARK    2  A    between atoms: O_2  and  C_21
REMARK    3  A    between atoms: C_13  and  C_15
REMARK    4  A    between atoms: C_16  and  C_22
REMARK                            x       y       z     vdW  Elec       q    Type
REMARK                         _______ _______ _______ _____ _____    ______ ____
ROOT
ATOM      1  O   UNL     1     111.924 126.965 136.085  0.00  0.00    +0.000 OA
ATOM      2  C   UNL     1     111.349 126.377 136.026  0.00  0.00    +0.000 C 
ATOM      3  C   UNL     1     110.706 126.477 135.519  0.00  0.00    +0.000 C 
ATOM      4  C   UNL     1     110.638 127.167 135.071  0.00  0.00    +0.000 C 
ATOM      5  C   UNL     1     111.213 127.755 135.130  0.00  0.00    +0.000 A 
ATOM      6  C   UNL     1     111.856 127.655 135.637  0.00  0.00    +0.000 A 
ATOM      7  C   UNL     1     112.397 128.981 135.242  0.00  0.00    +0.000 A 
ATOM      8  C   UNL     1     112.463 128.261 135.706  0.00  0.00    +0.000 A 
ATOM      9  C   UNL     1     111.131 128.468 134.658  0.00  0.00    +0.000 A 
ATOM     10  C   UNL     1     111.727 129.086 134.714  0.00  0.00    +0.000 A 
ENDROOT
BRANCH   2  13
ATOM     11  O   UNL     1     112.120 123.579 136.414  0.00  0.00    +0.000 OA
ATOM     12  O   UNL     1     111.695 123.558 137.672  0.00  0.00    +0.000 OA
ATOM     13  C   UNL     1     111.418 125.688 136.474  0.00  0.00    +0.000 A 
ATOM     14  C   UNL     1     111.751 125.011 136.141  0.00  0.00    +0.000 A 
ATOM     15  C   UNL     1     111.153 125.675 137.256  0.00  0.00    +0.000 A 
ATOM     16  C   UNL     1     111.820 124.321 136.589  0.00  0.00    +0.000 A 
ATOM     17  C   UNL     1     111.556 124.309 137.370  0.00  0.00    +0.000 A 
ATOM     18  C   UNL     1     111.222 124.986 137.704  0.00  0.00    +0.000 A 
ATOM     19  C   UNL     1     112.043 123.108 137.081  0.00  0.00    +0.000 C 
ENDBRANCH   2  13
BRANCH   7  20
ATOM     20  O   UNL     1     112.973 129.568 135.303  0.00  0.00    +0.000 OA
BRANCH  20  29
ATOM     21  O   UNL     1     112.372 130.356 136.332  0.00  0.00    +0.000 OA
ATOM     22  O   UNL     1     114.584 130.640 137.406  0.00  0.00    +0.000 OA
ATOM     23  O   UNL     1     113.246 131.333 138.076  0.00  0.00    +0.000 OA
ATOM     24  O   UNL     1     114.448 129.757 136.019  0.00  0.00    +0.000 OA
ATOM     25  C   UNL     1     113.847 130.545 137.048  0.00  0.00    +0.000 C 
ATOM     26  C   UNL     1     113.178 130.892 137.383  0.00  0.00    +0.000 C 
ATOM     27  C   UNL     1     113.779 130.104 136.354  0.00  0.00    +0.000 C 
ATOM     28  C   UNL     1     112.441 130.797 137.025  0.00  0.00    +0.000 C 
ATOM     29  C   UNL     1     113.042 130.009 135.996  0.00  0.00    +0.000 C 
BRANCH  28  31
ATOM     30  O   UNL     1     111.294 131.641 136.906  0.00  0.00    +0.000 OA
ATOM     31  C   UNL     1     111.772 131.144 137.360  0.00  0.00    +0.000 C 
ENDBRANCH  28  31
ENDBRANCH  20  29
ENDBRANCH   7  20
TORSDOF 4
ENDMDL
MODEL 9
REMARK VINA RESULT:      -9.1      9.764     10.587
REMARK  Name = 44257175
REMARK  4 active torsions:
REMARK  status: ('A' for Active; 'I' for Inactive)
REMARK    1  A    between atoms: O_2  and  C_14
REMARK    2  A    between atoms: O_2  and  C_21
REMARK    3  A    between atoms: C_13  and  C_15
REMARK    4  A    between atoms: C_16  and  C_22
REMARK                            x       y       z     vdW  Elec       q    Type
REMARK                         _______ _______ _______ _____ _____    ______ ____
ROOT
ATOM      1  O   UNL     1     106.581 125.761 146.137  0.00  0.00    +0.000 OA
ATOM      2  C   UNL     1     106.820 126.090 146.855  0.00  0.00    +0.000 C 
ATOM      3  C   UNL     1     106.758 126.903 146.978  0.00  0.00    +0.000 C 
ATOM      4  C   UNL     1     106.456 127.388 146.383  0.00  0.00    +0.000 C 
ATOM      5  C   UNL     1     106.217 127.060 145.665  0.00  0.00    +0.000 A 
ATOM      6  C   UNL     1     106.280 126.247 145.542  0.00  0.00    +0.000 A 
ATOM      7  C   UNL     1     105.719 126.393 144.174  0.00  0.00    +0.000 A 
ATOM      8  C   UNL     1     106.034 125.892 144.798  0.00  0.00    +0.000 A 
ATOM      9  C   UNL     1     105.905 127.576 145.053  0.00  0.00    +0.000 A 
ATOM     10  C   UNL     1     105.654 127.240 144.302  0.00  0.00    +0.000 A 
ENDROOT
BRANCH   2  13
ATOM     11  O   UNL     1     106.547 124.336 149.184  0.00  0.00    +0.000 OA
ATOM     12  O   UNL     1     107.856 124.132 149.277  0.00  0.00    +0.000 OA
ATOM     13  C   UNL     1     107.122 125.604 147.450  0.00  0.00    +0.000 A 
ATOM     14  C   UNL     1     106.609 125.245 147.988  0.00  0.00    +0.000 A 
ATOM     15  C   UNL     1     107.935 125.478 147.508  0.00  0.00    +0.000 A 
ATOM     16  C   UNL     1     106.910 124.759 148.583  0.00  0.00    +0.000 A 
ATOM     17  C   UNL     1     107.723 124.632 148.640  0.00  0.00    +0.000 A 
ATOM     18  C   UNL     1     108.235 124.992 148.103  0.00  0.00    +0.000 A 
ATOM     19  C   UNL     1     107.130 123.949 149.612  0.00  0.00    +0.000 C 
ENDBRANCH   2  13
BRANCH   7  20
ATOM     20  O   UNL     1     105.481 126.062 143.457  0.00  0.00    +0.000 OA
BRANCH  20  29
ATOM     21  O   UNL     1     106.625 126.441 142.688  0.00  0.00    +0.000 OA
ATOM     22  O   UNL     1     106.554 124.265 141.511  0.00  0.00    +0.000 OA
ATOM     23  O   UNL     1     107.720 125.369 141.135  0.00  0.00    +0.000 OA
ATOM     24  O   UNL     1     105.434 124.611 142.672  0.00  0.00    +0.000 OA
ATOM     25  C   UNL     1     106.578 124.991 141.903  0.00  0.00    +0.000 C 
ATOM     26  C   UNL     1     107.161 125.542 141.715  0.00  0.00    +0.000 C 
ATOM     27  C   UNL     1     106.017 125.163 142.484  0.00  0.00    +0.000 C 
ATOM     28  C   UNL     1     107.184 126.267 142.107  0.00  0.00    +0.000 C 
ATOM     29  C   UNL     1     106.041 125.888 142.876  0.00  0.00    +0.000 C 
BRANCH  28  31
ATOM     30  O   UNL     1     108.370 126.983 142.460  0.00  0.00    +0.000 OA
ATOM     31  C   UNL     1     107.767 126.820 141.919  0.00  0.00    +0.000 C 
ENDBRANCH  28  31
ENDBRANCH  20  29
ENDBRANCH   7  20
TORSDOF 4
ENDMDL
MODEL 10
REMARK VINA RESULT:      -9.1      1.523      2.526
REMARK  Name = 44257175
REMARK  4 active torsions:
REMARK  status: ('A' for Active; 'I' for Inactive)
REMARK    1  A    between atoms: O_2  and  C_14
REMARK    2  A    between atoms: O_2  and  C_21
REMARK    3  A    between atoms: C_13  and  C_15
REMARK    4  A    between atoms: C_16  and  C_22
REMARK                            x       y       z     vdW  Elec       q    Type
REMARK                         _______ _______ _______ _____ _____    ______ ____
ROOT
ATOM      1  O   UNL     1     112.383 127.550 137.029  0.00  0.00    +0.000 OA
ATOM      2  C   UNL     1     113.048 127.235 136.657  0.00  0.00    +0.000 C 
ATOM      3  C   UNL     1     113.496 127.703 136.147  0.00  0.00    +0.000 C 
ATOM      4  C   UNL     1     113.280 128.487 136.009  0.00  0.00    +0.000 C 
ATOM      5  C   UNL     1     112.614 128.803 136.381  0.00  0.00    +0.000 A 
ATOM      6  C   UNL     1     112.166 128.334 136.891  0.00  0.00    +0.000 A 
ATOM      7  C   UNL     1     111.240 129.468 137.144  0.00  0.00    +0.000 A 
ATOM      8  C   UNL     1     111.470 128.652 137.284  0.00  0.00    +0.000 A 
ATOM      9  C   UNL     1     112.399 129.620 136.229  0.00  0.00    +0.000 A 
ATOM     10  C   UNL     1     111.707 129.955 136.613  0.00  0.00    +0.000 A 
ENDROOT
BRANCH   2  13
ATOM     11  O   UNL     1     112.636 124.341 136.477  0.00  0.00    +0.000 OA
ATOM     12  O   UNL     1     113.762 124.066 137.126  0.00  0.00    +0.000 OA
ATOM     13  C   UNL     1     113.264 126.451 136.795  0.00  0.00    +0.000 A 
ATOM     14  C   UNL     1     112.780 125.837 136.531  0.00  0.00    +0.000 A 
ATOM     15  C   UNL     1     113.963 126.280 137.198  0.00  0.00    +0.000 A 
ATOM     16  C   UNL     1     112.995 125.053 136.669  0.00  0.00    +0.000 A 
ATOM     17  C   UNL     1     113.695 124.882 137.072  0.00  0.00    +0.000 A 
ATOM     18  C   UNL     1     114.179 125.496 137.336  0.00  0.00    +0.000 A 
ATOM     19  C   UNL     1     113.108 123.733 136.759  0.00  0.00    +0.000 C 
ENDBRANCH   2  13
BRANCH   7  20
ATOM     20  O   UNL     1     110.574 129.781 137.517  0.00  0.00    +0.000 OA
BRANCH  20  29
ATOM     21  O   UNL     1     109.603 129.233 136.624  0.00  0.00    +0.000 OA
ATOM     22  O   UNL     1     108.254 131.299 136.823  0.00  0.00    +0.000 OA
ATOM     23  O   UNL     1     107.734 130.062 135.863  0.00  0.00    +0.000 OA
ATOM     24  O   UNL     1     109.675 131.158 137.650  0.00  0.00    +0.000 OA
ATOM     25  C   UNL     1     108.704 130.610 136.756  0.00  0.00    +0.000 C 
ATOM     26  C   UNL     1     108.443 129.992 136.277  0.00  0.00    +0.000 C 
ATOM     27  C   UNL     1     109.414 130.540 137.170  0.00  0.00    +0.000 C 
ATOM     28  C   UNL     1     108.893 129.304 136.210  0.00  0.00    +0.000 C 
ATOM     29  C   UNL     1     109.864 129.852 137.104  0.00  0.00    +0.000 C 
BRANCH  28  31
ATOM     30  O   UNL     1     108.492 127.941 136.058  0.00  0.00    +0.000 OA
ATOM     31  C   UNL     1     108.633 128.685 135.730  0.00  0.00    +0.000 C 
ENDBRANCH  28  31
ENDBRANCH  20  29
ENDBRANCH   7  20
TORSDOF 4
ENDMDL
