MODEL 1
REMARK VINA RESULT:     -10.6      0.000      0.000
REMARK  Name = 44260013
REMARK  9 active torsions:
REMARK  status: ('A' for Active; 'I' for Inactive)
REMARK    1  A    between atoms: O_1  and  C_19
REMARK    2  A    between atoms: O_1  and  C_22
REMARK    3  A    between atoms: O_5  and  C_24
REMARK    4  A    between atoms: O_5  and  C_31
REMARK    5  A    between atoms: O_10  and  C_29
REMARK    6  A    between atoms: O_10  and  C_34
REMARK    7  A    between atoms: O_17  and  C_45
REMARK    8  A    between atoms: C_23  and  C_29
REMARK    9  A    between atoms: C_40  and  C_42
REMARK                            x       y       z     vdW  Elec       q    Type
REMARK                         _______ _______ _______ _____ _____    ______ ____
ROOT
ATOM      1  O   UNL     1     111.296 127.246 137.646  0.00  0.00    +0.000 OA
ENDROOT
BRANCH   1   7
ATOM      2  O   UNL     1     112.149 128.620 138.134  0.00  0.00    +0.000 OA
ATOM      3  O   UNL     1     112.873 128.658 139.646  0.00  0.00    +0.000 OA
ATOM      4  O   UNL     1     111.920 125.989 140.206  0.00  0.00    +0.000 OA
ATOM      5  O   UNL     1     112.704 126.718 141.173  0.00  0.00    +0.000 OA
ATOM      6  O   UNL     1     113.536 128.066 141.640  0.00  0.00    +0.000 OA
ATOM      7  C   UNL     1     111.654 127.270 138.389  0.00  0.00    +0.000 A 
ATOM      8  C   UNL     1     112.088 127.969 138.637  0.00  0.00    +0.000 A 
ATOM      9  C   UNL     1     111.595 126.597 138.919  0.00  0.00    +0.000 A 
ATOM     10  C   UNL     1     112.458 127.985 139.413  0.00  0.00    +0.000 A 
ATOM     11  C   UNL     1     111.972 126.631 139.691  0.00  0.00    +0.000 A 
ATOM     12  C   UNL     1     112.401 127.338 139.922  0.00  0.00    +0.000 A 
ATOM     13  C   UNL     1     112.761 127.364 140.664  0.00  0.00    +0.000 A 
ATOM     14  C   UNL     1     113.232 128.685 140.388  0.00  0.00    +0.000 A 
ATOM     15  C   UNL     1     113.176 128.038 140.898  0.00  0.00    +0.000 A 
BRANCH  14  17
ATOM     16  O   UNL     1     114.894 131.378 141.321  0.00  0.00    +0.000 OA
ATOM     17  C   UNL     1     113.648 129.358 140.621  0.00  0.00    +0.000 A 
ATOM     18  C   UNL     1     113.261 129.960 141.031  0.00  0.00    +0.000 A 
ATOM     19  C   UNL     1     114.451 129.429 140.444  0.00  0.00    +0.000 A 
ATOM     20  C   UNL     1     113.677 130.634 141.265  0.00  0.00    +0.000 A 
ATOM     21  C   UNL     1     114.866 130.103 140.677  0.00  0.00    +0.000 A 
ATOM     22  C   UNL     1     114.480 130.705 141.088  0.00  0.00    +0.000 A 
BRANCH  20  23
ATOM     23  O   UNL     1     113.289 131.236 141.675  0.00  0.00    +0.000 OA
ATOM     24  C   UNL     1     112.686 131.050 142.206  0.00  0.00    +0.000 C 
ENDBRANCH  20  23
ENDBRANCH  14  17
ENDBRANCH   1   7
BRANCH   1  32
ATOM     25  O   UNL     1     112.166 126.255 137.096  0.00  0.00    +0.000 OA
ATOM     26  O   UNL     1     110.286 125.341 135.770  0.00  0.00    +0.000 OA
ATOM     27  O   UNL     1     111.783 124.655 135.661  0.00  0.00    +0.000 OA
ATOM     28  C   UNL     1     110.790 126.294 136.708  0.00  0.00    +0.000 C 
ATOM     29  C   UNL     1     110.913 125.646 136.212  0.00  0.00    +0.000 C 
ATOM     30  C   UNL     1     111.661 125.303 136.157  0.00  0.00    +0.000 C 
ATOM     31  C   UNL     1     112.287 125.607 136.599  0.00  0.00    +0.000 C 
ATOM     32  C   UNL     1     111.417 126.598 137.150  0.00  0.00    +0.000 C 
BRANCH  28  33
ATOM     33  O   UNL     1     110.043 126.637 136.762  0.00  0.00    +0.000 OA
BRANCH  33  38
ATOM     34  O   UNL     1     110.370 127.522 135.689  0.00  0.00    +0.000 OA
ATOM     35  O   UNL     1     108.526 127.282 136.831  0.00  0.00    +0.000 OA
ATOM     36  O   UNL     1     108.095 128.490 135.792  0.00  0.00    +0.000 OA
ATOM     37  O   UNL     1     109.181 129.051 134.684  0.00  0.00    +0.000 OA
ATOM     38  C   UNL     1     109.827 127.240 136.243  0.00  0.00    +0.000 C 
ATOM     39  C   UNL     1     109.068 127.564 136.277  0.00  0.00    +0.000 C 
ATOM     40  C   UNL     1     108.853 128.167 135.758  0.00  0.00    +0.000 C 
ATOM     41  C   UNL     1     109.396 128.448 135.204  0.00  0.00    +0.000 C 
ATOM     42  C   UNL     1     110.154 128.125 135.169  0.00  0.00    +0.000 C 
ATOM     43  C   UNL     1     110.698 128.406 134.615  0.00  0.00    +0.000 C 
ENDBRANCH  33  38
ENDBRANCH  28  33
BRANCH  31  44
ATOM     44  C   UNL     1     113.036 125.264 136.545  0.00  0.00    +0.000 C 
BRANCH  44  45
ATOM     45  O   UNL     1     113.706 125.704 136.741  0.00  0.00    +0.000 OA
BRANCH  45  47
ATOM     46  O   UNL     1     114.931 125.355 136.093  0.00  0.00    +0.000 OA
ATOM     47  C   UNL     1     114.447 125.340 136.761  0.00  0.00    +0.000 C 
ATOM     48  C   UNL     1     114.702 124.963 137.448  0.00  0.00    +0.000 C 
ENDBRANCH  45  47
ENDBRANCH  44  45
ENDBRANCH  31  44
ENDBRANCH   1  32
TORSDOF 9
ENDMDL
MODEL 2
REMARK VINA RESULT:     -10.5      7.842     10.115
REMARK  Name = 44260013
REMARK  9 active torsions:
REMARK  status: ('A' for Active; 'I' for Inactive)
REMARK    1  A    between atoms: O_1  and  C_19
REMARK    2  A    between atoms: O_1  and  C_22
REMARK    3  A    between atoms: O_5  and  C_24
REMARK    4  A    between atoms: O_5  and  C_31
REMARK    5  A    between atoms: O_10  and  C_29
REMARK    6  A    between atoms: O_10  and  C_34
REMARK    7  A    between atoms: O_17  and  C_45
REMARK    8  A    between atoms: C_23  and  C_29
REMARK    9  A    between atoms: C_40  and  C_42
REMARK                            x       y       z     vdW  Elec       q    Type
REMARK                         _______ _______ _______ _____ _____    ______ ____
ROOT
ATOM      1  O   UNL     1     105.145 128.343 143.248  0.00  0.00    +0.000 OA
ENDROOT
BRANCH   1   7
ATOM      2  O   UNL     1     104.244 129.763 143.411  0.00  0.00    +0.000 OA
ATOM      3  O   UNL     1     103.232 130.256 142.170  0.00  0.00    +0.000 OA
ATOM      4  O   UNL     1     103.988 127.954 140.595  0.00  0.00    +0.000 OA
ATOM      5  O   UNL     1     103.043 128.922 140.093  0.00  0.00    +0.000 OA
ATOM      6  O   UNL     1     102.168 130.311 140.264  0.00  0.00    +0.000 OA
ATOM      7  C   UNL     1     104.645 128.590 142.639  0.00  0.00    +0.000 A 
ATOM      8  C   UNL     1     104.187 129.313 142.723  0.00  0.00    +0.000 A 
ATOM      9  C   UNL     1     104.580 128.127 141.919  0.00  0.00    +0.000 A 
ATOM     10  C   UNL     1     103.669 129.562 142.084  0.00  0.00    +0.000 A 
ATOM     11  C   UNL     1     104.057 128.393 141.291  0.00  0.00    +0.000 A 
ATOM     12  C   UNL     1     103.606 129.117 141.392  0.00  0.00    +0.000 A 
ATOM     13  C   UNL     1     103.106 129.367 140.785  0.00  0.00    +0.000 A 
ATOM     14  C   UNL     1     102.731 130.505 141.563  0.00  0.00    +0.000 A 
ATOM     15  C   UNL     1     102.668 130.061 140.870  0.00  0.00    +0.000 A 
BRANCH  14  17
ATOM     16  O   UNL     1     100.981 133.282 141.904  0.00  0.00    +0.000 OA
ATOM     17  C   UNL     1     102.294 131.199 141.648  0.00  0.00    +0.000 A 
ATOM     18  C   UNL     1     102.629 131.926 141.449  0.00  0.00    +0.000 A 
ATOM     19  C   UNL     1     101.520 131.167 141.933  0.00  0.00    +0.000 A 
ATOM     20  C   UNL     1     102.192 132.620 141.534  0.00  0.00    +0.000 A 
ATOM     21  C   UNL     1     101.082 131.861 142.018  0.00  0.00    +0.000 A 
ATOM     22  C   UNL     1     101.418 132.588 141.819  0.00  0.00    +0.000 A 
BRANCH  20  23
ATOM     23  O   UNL     1     102.528 133.347 141.334  0.00  0.00    +0.000 OA
ATOM     24  C   UNL     1     103.328 133.485 141.482  0.00  0.00    +0.000 C 
ENDBRANCH  20  23
ENDBRANCH  14  17
ENDBRANCH   1   7
BRANCH   1  32
ATOM     25  O   UNL     1     106.388 128.570 142.580  0.00  0.00    +0.000 OA
ATOM     26  O   UNL     1     107.298 126.491 143.565  0.00  0.00    +0.000 OA
ATOM     27  O   UNL     1     108.237 127.411 142.569  0.00  0.00    +0.000 OA
ATOM     28  C   UNL     1     106.221 127.416 143.407  0.00  0.00    +0.000 C 
ATOM     29  C   UNL     1     106.994 127.184 143.237  0.00  0.00    +0.000 C 
ATOM     30  C   UNL     1     107.464 127.643 142.739  0.00  0.00    +0.000 C 
ATOM     31  C   UNL     1     107.160 128.337 142.410  0.00  0.00    +0.000 C 
ATOM     32  C   UNL     1     105.918 128.110 143.078  0.00  0.00    +0.000 C 
BRANCH  28  33
ATOM     33  O   UNL     1     105.752 126.957 143.905  0.00  0.00    +0.000 OA
BRANCH  33  38
ATOM     34  O   UNL     1     106.248 127.663 145.044  0.00  0.00    +0.000 OA
ATOM     35  O   UNL     1     105.019 125.866 144.902  0.00  0.00    +0.000 OA
ATOM     36  O   UNL     1     105.149 126.027 146.539  0.00  0.00    +0.000 OA
ATOM     37  O   UNL     1     106.012 127.279 147.179  0.00  0.00    +0.000 OA
ATOM     38  C   UNL     1     105.817 127.037 144.723  0.00  0.00    +0.000 C 
ATOM     39  C   UNL     1     105.450 126.491 145.223  0.00  0.00    +0.000 C 
ATOM     40  C   UNL     1     105.515 126.572 146.041  0.00  0.00    +0.000 C 
ATOM     41  C   UNL     1     105.947 127.199 146.360  0.00  0.00    +0.000 C 
ATOM     42  C   UNL     1     106.313 127.744 145.862  0.00  0.00    +0.000 C 
ATOM     43  C   UNL     1     106.745 128.371 146.181  0.00  0.00    +0.000 C 
ENDBRANCH  33  38
ENDBRANCH  28  33
BRANCH  31  44
ATOM     44  C   UNL     1     107.630 128.797 141.912  0.00  0.00    +0.000 C 
BRANCH  44  45
ATOM     45  O   UNL     1     107.460 129.598 141.808  0.00  0.00    +0.000 OA
BRANCH  45  47
ATOM     46  O   UNL     1     107.773 129.890 140.445  0.00  0.00    +0.000 OA
ATOM     47  C   UNL     1     107.877 130.039 141.249  0.00  0.00    +0.000 C 
ATOM     48  C   UNL     1     108.397 130.630 141.496  0.00  0.00    +0.000 C 
ENDBRANCH  45  47
ENDBRANCH  44  45
ENDBRANCH  31  44
ENDBRANCH   1  32
TORSDOF 9
ENDMDL
MODEL 3
REMARK VINA RESULT:     -10.4      5.550      8.867
REMARK  Name = 44260013
REMARK  9 active torsions:
REMARK  status: ('A' for Active; 'I' for Inactive)
REMARK    1  A    between atoms: O_1  and  C_19
REMARK    2  A    between atoms: O_1  and  C_22
REMARK    3  A    between atoms: O_5  and  C_24
REMARK    4  A    between atoms: O_5  and  C_31
REMARK    5  A    between atoms: O_10  and  C_29
REMARK    6  A    between atoms: O_10  and  C_34
REMARK    7  A    between atoms: O_17  and  C_45
REMARK    8  A    between atoms: C_23  and  C_29
REMARK    9  A    between atoms: C_40  and  C_42
REMARK                            x       y       z     vdW  Elec       q    Type
REMARK                         _______ _______ _______ _____ _____    ______ ____
ROOT
ATOM      1  O   UNL     1     107.329 125.566 140.311  0.00  0.00    +0.000 OA
ENDROOT
BRANCH   1   7
ATOM      2  O   UNL     1     106.226 125.399 139.042  0.00  0.00    +0.000 OA
ATOM      3  O   UNL     1     104.958 124.310 139.178  0.00  0.00    +0.000 OA
ATOM      4  O   UNL     1     105.857 123.542 141.814  0.00  0.00    +0.000 OA
ATOM      5  O   UNL     1     104.686 122.941 141.223  0.00  0.00    +0.000 OA
ATOM      6  O   UNL     1     103.614 122.787 139.977  0.00  0.00    +0.000 OA
ATOM      7  C   UNL     1     106.704 125.031 140.372  0.00  0.00    +0.000 A 
ATOM      8  C   UNL     1     106.143 124.947 139.727  0.00  0.00    +0.000 A 
ATOM      9  C   UNL     1     106.610 124.557 141.082  0.00  0.00    +0.000 A 
ATOM     10  C   UNL     1     105.494 124.387 139.801  0.00  0.00    +0.000 A 
ATOM     11  C   UNL     1     105.955 124.002 141.137  0.00  0.00    +0.000 A 
ATOM     12  C   UNL     1     105.403 123.931 140.482  0.00  0.00    +0.000 A 
ATOM     13  C   UNL     1     104.777 123.397 140.541  0.00  0.00    +0.000 A 
ATOM     14  C   UNL     1     104.332 123.777 139.237  0.00  0.00    +0.000 A 
ATOM     15  C   UNL     1     104.241 123.320 139.919  0.00  0.00    +0.000 A 
BRANCH  14  17
ATOM     16  O   UNL     1     102.188 123.466 136.748  0.00  0.00    +0.000 OA
ATOM     17  C   UNL     1     103.796 123.699 138.615  0.00  0.00    +0.000 A 
ATOM     18  C   UNL     1     104.009 123.280 137.937  0.00  0.00    +0.000 A 
ATOM     19  C   UNL     1     103.047 124.040 138.671  0.00  0.00    +0.000 A 
ATOM     20  C   UNL     1     103.473 123.203 137.314  0.00  0.00    +0.000 A 
ATOM     21  C   UNL     1     102.511 123.963 138.048  0.00  0.00    +0.000 A 
ATOM     22  C   UNL     1     102.724 123.544 137.370  0.00  0.00    +0.000 A 
BRANCH  20  23
ATOM     23  O   UNL     1     103.687 122.783 136.636  0.00  0.00    +0.000 OA
ATOM     24  C   UNL     1     104.385 122.971 136.239  0.00  0.00    +0.000 C 
ENDBRANCH  20  23
ENDBRANCH  14  17
ENDBRANCH   1   7
BRANCH   1  32
ATOM     25  O   UNL     1     106.843 126.541 141.235  0.00  0.00    +0.000 OA
ATOM     26  O   UNL     1     109.141 126.874 142.091  0.00  0.00    +0.000 OA
ATOM     27  O   UNL     1     107.889 127.739 142.730  0.00  0.00    +0.000 OA
ATOM     28  C   UNL     1     108.236 126.220 141.201  0.00  0.00    +0.000 C 
ATOM     29  C   UNL     1     108.375 126.763 141.806  0.00  0.00    +0.000 C 
ATOM     30  C   UNL     1     107.750 127.195 142.125  0.00  0.00    +0.000 C 
ATOM     31  C   UNL     1     106.984 127.084 141.840  0.00  0.00    +0.000 C 
ATOM     32  C   UNL     1     107.470 126.109 140.915  0.00  0.00    +0.000 C 
BRANCH  28  33
ATOM     33  O   UNL     1     108.861 125.788 140.882  0.00  0.00    +0.000 OA
BRANCH  33  38
ATOM     34  O   UNL     1     109.155 126.867 139.992  0.00  0.00    +0.000 OA
ATOM     35  O   UNL     1     110.166 124.959 140.304  0.00  0.00    +0.000 OA
ATOM     36  O   UNL     1     111.111 125.623 139.126  0.00  0.00    +0.000 OA
ATOM     37  O   UNL     1     110.751 127.117 138.526  0.00  0.00    +0.000 OA
ATOM     38  C   UNL     1     109.334 126.120 140.293  0.00  0.00    +0.000 C 
ATOM     39  C   UNL     1     109.987 125.705 140.004  0.00  0.00    +0.000 C 
ATOM     40  C   UNL     1     110.459 126.038 139.415  0.00  0.00    +0.000 C 
ATOM     41  C   UNL     1     110.279 126.785 139.115  0.00  0.00    +0.000 C 
ATOM     42  C   UNL     1     109.627 127.199 139.403  0.00  0.00    +0.000 C 
ATOM     43  C   UNL     1     109.447 127.947 139.103  0.00  0.00    +0.000 C 
ENDBRANCH  33  38
ENDBRANCH  28  33
BRANCH  31  44
ATOM     44  C   UNL     1     106.357 127.517 142.159  0.00  0.00    +0.000 C 
BRANCH  44  45
ATOM     45  O   UNL     1     105.636 127.552 141.760  0.00  0.00    +0.000 OA
BRANCH  45  47
ATOM     46  O   UNL     1     104.715 127.702 142.844  0.00  0.00    +0.000 OA
ATOM     47  C   UNL     1     104.994 127.941 142.104  0.00  0.00    +0.000 C 
ATOM     48  C   UNL     1     104.631 128.567 141.709  0.00  0.00    +0.000 C 
ENDBRANCH  45  47
ENDBRANCH  44  45
ENDBRANCH  31  44
ENDBRANCH   1  32
TORSDOF 9
ENDMDL
MODEL 4
REMARK VINA RESULT:     -10.2      2.430      5.792
REMARK  Name = 44260013
REMARK  9 active torsions:
REMARK  status: ('A' for Active; 'I' for Inactive)
REMARK    1  A    between atoms: O_1  and  C_19
REMARK    2  A    between atoms: O_1  and  C_22
REMARK    3  A    between atoms: O_5  and  C_24
REMARK    4  A    between atoms: O_5  and  C_31
REMARK    5  A    between atoms: O_10  and  C_29
REMARK    6  A    between atoms: O_10  and  C_34
REMARK    7  A    between atoms: O_17  and  C_45
REMARK    8  A    between atoms: C_23  and  C_29
REMARK    9  A    between atoms: C_40  and  C_42
REMARK                            x       y       z     vdW  Elec       q    Type
REMARK                         _______ _______ _______ _____ _____    ______ ____
ROOT
ATOM      1  O   UNL     1     111.008 129.593 138.826  0.00  0.00    +0.000 OA
ENDROOT
BRANCH   1   7
ATOM      2  O   UNL     1     111.360 127.941 138.777  0.00  0.00    +0.000 OA
ATOM      3  O   UNL     1     112.520 127.366 137.712  0.00  0.00    +0.000 OA
ATOM      4  O   UNL     1     112.996 130.043 136.736  0.00  0.00    +0.000 OA
ATOM      5  O   UNL     1     113.726 128.917 136.207  0.00  0.00    +0.000 OA
ATOM      6  O   UNL     1     114.061 127.301 136.168  0.00  0.00    +0.000 OA
ATOM      7  C   UNL     1     111.578 129.305 138.304  0.00  0.00    +0.000 A 
ATOM      8  C   UNL     1     111.757 128.464 138.279  0.00  0.00    +0.000 A 
ATOM      9  C   UNL     1     111.997 129.843 137.782  0.00  0.00    +0.000 A 
ATOM     10  C   UNL     1     112.353 128.174 137.731  0.00  0.00    +0.000 A 
ATOM     11  C   UNL     1     112.589 129.533 137.241  0.00  0.00    +0.000 A 
ATOM     12  C   UNL     1     112.755 128.691 137.230  0.00  0.00    +0.000 A 
ATOM     13  C   UNL     1     113.324 128.400 136.708  0.00  0.00    +0.000 A 
ATOM     14  C   UNL     1     113.089 127.076 137.191  0.00  0.00    +0.000 A 
ATOM     15  C   UNL     1     113.492 127.592 136.689  0.00  0.00    +0.000 A 
BRANCH  14  17
ATOM     16  O   UNL     1     113.759 123.846 137.112  0.00  0.00    +0.000 OA
ATOM     17  C   UNL     1     113.257 126.268 137.171  0.00  0.00    +0.000 A 
ATOM     18  C   UNL     1     112.778 125.758 136.735  0.00  0.00    +0.000 A 
ATOM     19  C   UNL     1     113.903 125.971 137.589  0.00  0.00    +0.000 A 
ATOM     20  C   UNL     1     112.945 124.950 136.715  0.00  0.00    +0.000 A 
ATOM     21  C   UNL     1     114.071 125.163 137.569  0.00  0.00    +0.000 A 
ATOM     22  C   UNL     1     113.592 124.653 137.132  0.00  0.00    +0.000 A 
BRANCH  20  23
ATOM     23  O   UNL     1     112.465 124.440 136.278  0.00  0.00    +0.000 OA
ATOM     24  C   UNL     1     111.644 124.507 136.323  0.00  0.00    +0.000 C 
ENDBRANCH  20  23
ENDBRANCH  14  17
ENDBRANCH   1   7
BRANCH   1  32
ATOM     25  O   UNL     1     109.978 129.723 137.844  0.00  0.00    +0.000 OA
ATOM     26  O   UNL     1     109.081 131.691 139.048  0.00  0.00    +0.000 OA
ATOM     27  O   UNL     1     108.350 131.166 137.665  0.00  0.00    +0.000 OA
ATOM     28  C   UNL     1     110.045 130.642 138.938  0.00  0.00    +0.000 C 
ATOM     29  C   UNL     1     109.380 131.035 138.647  0.00  0.00    +0.000 C 
ATOM     30  C   UNL     1     109.015 130.773 137.956  0.00  0.00    +0.000 C 
ATOM     31  C   UNL     1     109.314 130.117 137.555  0.00  0.00    +0.000 C 
ATOM     32  C   UNL     1     110.344 129.986 138.537  0.00  0.00    +0.000 C 
BRANCH  28  33
ATOM     33  O   UNL     1     110.410 130.904 139.629  0.00  0.00    +0.000 OA
BRANCH  33  38
ATOM     34  O   UNL     1     109.572 130.061 140.422  0.00  0.00    +0.000 OA
ATOM     35  O   UNL     1     110.868 131.724 140.985  0.00  0.00    +0.000 OA
ATOM     36  O   UNL     1     110.258 131.291 142.456  0.00  0.00    +0.000 OA
ATOM     37  O   UNL     1     109.191 130.037 142.570  0.00  0.00    +0.000 OA
ATOM     38  C   UNL     1     110.105 130.688 140.364  0.00  0.00    +0.000 C 
ATOM     39  C   UNL     1     110.334 131.098 141.043  0.00  0.00    +0.000 C 
ATOM     40  C   UNL     1     110.030 130.881 141.778  0.00  0.00    +0.000 C 
ATOM     41  C   UNL     1     109.496 130.254 141.835  0.00  0.00    +0.000 C 
ATOM     42  C   UNL     1     109.267 129.844 141.157  0.00  0.00    +0.000 C 
ATOM     43  C   UNL     1     108.733 129.218 141.213  0.00  0.00    +0.000 C 
ENDBRANCH  33  38
ENDBRANCH  28  33
BRANCH  31  44
ATOM     44  C   UNL     1     108.948 129.854 136.863  0.00  0.00    +0.000 C 
BRANCH  44  45
ATOM     45  O   UNL     1     108.947 129.050 136.677  0.00  0.00    +0.000 OA
BRANCH  45  47
ATOM     46  O   UNL     1     107.920 128.778 135.721  0.00  0.00    +0.000 OA
ATOM     47  C   UNL     1     108.719 128.801 135.924  0.00  0.00    +0.000 C 
ATOM     48  C   UNL     1     109.291 128.576 135.374  0.00  0.00    +0.000 C 
ENDBRANCH  45  47
ENDBRANCH  44  45
ENDBRANCH  31  44
ENDBRANCH   1  32
TORSDOF 9
ENDMDL
MODEL 5
REMARK VINA RESULT:     -10.1      2.572      4.918
REMARK  Name = 44260013
REMARK  9 active torsions:
REMARK  status: ('A' for Active; 'I' for Inactive)
REMARK    1  A    between atoms: O_1  and  C_19
REMARK    2  A    between atoms: O_1  and  C_22
REMARK    3  A    between atoms: O_5  and  C_24
REMARK    4  A    between atoms: O_5  and  C_31
REMARK    5  A    between atoms: O_10  and  C_29
REMARK    6  A    between atoms: O_10  and  C_34
REMARK    7  A    between atoms: O_17  and  C_45
REMARK    8  A    between atoms: C_23  and  C_29
REMARK    9  A    between atoms: C_40  and  C_42
REMARK                            x       y       z     vdW  Elec       q    Type
REMARK                         _______ _______ _______ _____ _____    ______ ____
ROOT
ATOM      1  O   UNL     1     110.648 129.619 137.278  0.00  0.00    +0.000 OA
ENDROOT
BRANCH   1   7
ATOM      2  O   UNL     1     110.990 128.118 136.582  0.00  0.00    +0.000 OA
ATOM      3  O   UNL     1     111.630 126.889 137.525  0.00  0.00    +0.000 OA
ATOM      4  O   UNL     1     111.601 128.609 139.846  0.00  0.00    +0.000 OA
ATOM      5  O   UNL     1     112.080 127.251 139.932  0.00  0.00    +0.000 OA
ATOM      6  O   UNL     1     112.411 125.788 139.241  0.00  0.00    +0.000 OA
ATOM      7  C   UNL     1     110.963 129.011 137.737  0.00  0.00    +0.000 A 
ATOM      8  C   UNL     1     111.137 128.247 137.383  0.00  0.00    +0.000 A 
ATOM      9  C   UNL     1     111.119 129.137 138.572  0.00  0.00    +0.000 A 
ATOM     10  C   UNL     1     111.465 127.619 137.870  0.00  0.00    +0.000 A 
ATOM     11  C   UNL     1     111.448 128.496 139.043  0.00  0.00    +0.000 A 
ATOM     12  C   UNL     1     111.615 127.740 138.672  0.00  0.00    +0.000 A 
ATOM     13  C   UNL     1     111.930 127.130 139.130  0.00  0.00    +0.000 A 
ATOM     14  C   UNL     1     111.945 126.279 137.982  0.00  0.00    +0.000 A 
ATOM     15  C   UNL     1     112.096 126.399 138.785  0.00  0.00    +0.000 A 
BRANCH  14  17
ATOM     16  O   UNL     1     112.607 123.355 136.603  0.00  0.00    +0.000 OA
ATOM     17  C   UNL     1     112.111 125.548 137.637  0.00  0.00    +0.000 A 
ATOM     18  C   UNL     1     112.849 125.410 137.296  0.00  0.00    +0.000 A 
ATOM     19  C   UNL     1     111.538 124.954 137.634  0.00  0.00    +0.000 A 
ATOM     20  C   UNL     1     113.014 124.679 136.951  0.00  0.00    +0.000 A 
ATOM     21  C   UNL     1     111.703 124.223 137.289  0.00  0.00    +0.000 A 
ATOM     22  C   UNL     1     112.441 124.085 136.948  0.00  0.00    +0.000 A 
BRANCH  20  23
ATOM     23  O   UNL     1     113.753 124.542 136.609  0.00  0.00    +0.000 OA
ATOM     24  C   UNL     1     114.288 125.164 136.523  0.00  0.00    +0.000 C 
ENDBRANCH  20  23
ENDBRANCH  14  17
ENDBRANCH   1   7
BRANCH   1  32
ATOM     25  O   UNL     1     111.865 130.339 137.068  0.00  0.00    +0.000 OA
ATOM     26  O   UNL     1     110.636 132.477 137.281  0.00  0.00    +0.000 OA
ATOM     27  O   UNL     1     112.262 132.484 137.000  0.00  0.00    +0.000 OA
ATOM     28  C   UNL     1     110.641 131.048 137.279  0.00  0.00    +0.000 C 
ATOM     29  C   UNL     1     111.046 131.764 137.210  0.00  0.00    +0.000 C 
ATOM     30  C   UNL     1     111.858 131.768 137.070  0.00  0.00    +0.000 C 
ATOM     31  C   UNL     1     112.268 131.055 136.999  0.00  0.00    +0.000 C 
ATOM     32  C   UNL     1     111.051 130.336 137.208  0.00  0.00    +0.000 C 
BRANCH  28  33
ATOM     33  O   UNL     1     109.829 131.044 137.419  0.00  0.00    +0.000 OA
BRANCH  33  38
ATOM     34  O   UNL     1     109.560 131.037 136.016  0.00  0.00    +0.000 OA
ATOM     35  O   UNL     1     108.258 131.450 137.717  0.00  0.00    +0.000 OA
ATOM     36  O   UNL     1     107.204 131.646 136.463  0.00  0.00    +0.000 OA
ATOM     37  O   UNL     1     107.721 131.435 134.910  0.00  0.00    +0.000 OA
ATOM     38  C   UNL     1     109.302 131.142 136.792  0.00  0.00    +0.000 C 
ATOM     39  C   UNL     1     108.516 131.345 136.941  0.00  0.00    +0.000 C 
ATOM     40  C   UNL     1     107.989 131.443 136.314  0.00  0.00    +0.000 C 
ATOM     41  C   UNL     1     108.248 131.337 135.537  0.00  0.00    +0.000 C 
ATOM     42  C   UNL     1     109.033 131.134 135.388  0.00  0.00    +0.000 C 
ATOM     43  C   UNL     1     109.293 131.029 134.612  0.00  0.00    +0.000 C 
ENDBRANCH  33  38
ENDBRANCH  28  33
BRANCH  31  44
ATOM     44  C   UNL     1     113.081 131.059 136.859  0.00  0.00    +0.000 C 
BRANCH  44  45
ATOM     45  O   UNL     1     113.415 130.496 136.357  0.00  0.00    +0.000 OA
BRANCH  45  47
ATOM     46  O   UNL     1     114.733 130.608 136.898  0.00  0.00    +0.000 OA
ATOM     47  C   UNL     1     114.234 130.467 136.257  0.00  0.00    +0.000 C 
ATOM     48  C   UNL     1     114.552 130.296 135.515  0.00  0.00    +0.000 C 
ENDBRANCH  45  47
ENDBRANCH  44  45
ENDBRANCH  31  44
ENDBRANCH   1  32
TORSDOF 9
ENDMDL
MODEL 6
REMARK VINA RESULT:     -10.1      2.009      6.049
REMARK  Name = 44260013
REMARK  9 active torsions:
REMARK  status: ('A' for Active; 'I' for Inactive)
REMARK    1  A    between atoms: O_1  and  C_19
REMARK    2  A    between atoms: O_1  and  C_22
REMARK    3  A    between atoms: O_5  and  C_24
REMARK    4  A    between atoms: O_5  and  C_31
REMARK    5  A    between atoms: O_10  and  C_29
REMARK    6  A    between atoms: O_10  and  C_34
REMARK    7  A    between atoms: O_17  and  C_45
REMARK    8  A    between atoms: C_23  and  C_29
REMARK    9  A    between atoms: C_40  and  C_42
REMARK                            x       y       z     vdW  Elec       q    Type
REMARK                         _______ _______ _______ _____ _____    ______ ____
ROOT
ATOM      1  O   UNL     1     112.958 129.275 138.938  0.00  0.00    +0.000 OA
ENDROOT
BRANCH   1   7
ATOM      2  O   UNL     1     111.471 129.951 138.506  0.00  0.00    +0.000 OA
ATOM      3  O   UNL     1     110.911 129.797 136.934  0.00  0.00    +0.000 OA
ATOM      4  O   UNL     1     113.276 128.307 136.202  0.00  0.00    +0.000 OA
ATOM      5  O   UNL     1     112.242 128.584 135.235  0.00  0.00    +0.000 OA
ATOM      6  O   UNL     1     110.788 129.249 134.824  0.00  0.00    +0.000 OA
ATOM      7  C   UNL     1     112.678 129.202 138.166  0.00  0.00    +0.000 A 
ATOM      8  C   UNL     1     111.921 129.546 137.946  0.00  0.00    +0.000 A 
ATOM      9  C   UNL     1     113.139 128.781 137.577  0.00  0.00    +0.000 A 
ATOM     10  C   UNL     1     111.637 129.464 137.139  0.00  0.00    +0.000 A 
ATOM     11  C   UNL     1     112.839 128.710 136.774  0.00  0.00    +0.000 A 
ATOM     12  C   UNL     1     112.081 129.060 136.573  0.00  0.00    +0.000 A 
ATOM     13  C   UNL     1     111.798 128.988 135.801  0.00  0.00    +0.000 A 
ATOM     14  C   UNL     1     110.628 129.725 136.162  0.00  0.00    +0.000 A 
ATOM     15  C   UNL     1     111.072 129.321 135.595  0.00  0.00    +0.000 A 
BRANCH  14  17
ATOM     16  O   UNL     1     107.722 131.054 135.339  0.00  0.00    +0.000 OA
ATOM     17  C   UNL     1     109.901 130.057 135.956  0.00  0.00    +0.000 A 
ATOM     18  C   UNL     1     109.857 130.853 135.743  0.00  0.00    +0.000 A 
ATOM     19  C   UNL     1     109.219 129.594 135.964  0.00  0.00    +0.000 A 
ATOM     20  C   UNL     1     109.131 131.185 135.538  0.00  0.00    +0.000 A 
ATOM     21  C   UNL     1     108.492 129.926 135.758  0.00  0.00    +0.000 A 
ATOM     22  C   UNL     1     108.448 130.722 135.545  0.00  0.00    +0.000 A 
BRANCH  20  23
ATOM     23  O   UNL     1     109.087 131.982 135.325  0.00  0.00    +0.000 OA
ATOM     24  C   UNL     1     109.496 132.548 135.763  0.00  0.00    +0.000 C 
ENDBRANCH  20  23
ENDBRANCH  14  17
ENDBRANCH   1   7
BRANCH   1  32
ATOM     25  O   UNL     1     112.574 127.957 139.333  0.00  0.00    +0.000 OA
ATOM     26  O   UNL     1     114.488 127.868 140.900  0.00  0.00    +0.000 OA
ATOM     27  O   UNL     1     113.466 126.579 140.773  0.00  0.00    +0.000 OA
ATOM     28  C   UNL     1     113.724 128.572 139.919  0.00  0.00    +0.000 C 
ATOM     29  C   UNL     1     113.850 127.897 140.378  0.00  0.00    +0.000 C 
ATOM     30  C   UNL     1     113.339 127.253 140.314  0.00  0.00    +0.000 C 
ATOM     31  C   UNL     1     112.701 127.283 139.792  0.00  0.00    +0.000 C 
ATOM     32  C   UNL     1     113.085 128.601 139.397  0.00  0.00    +0.000 C 
BRANCH  28  33
ATOM     33  O   UNL     1     114.234 129.216 139.982  0.00  0.00    +0.000 OA
BRANCH  33  38
ATOM     34  O   UNL     1     113.413 129.767 141.014  0.00  0.00    +0.000 OA
ATOM     35  O   UNL     1     115.298 130.464 140.163  0.00  0.00    +0.000 OA
ATOM     36  O   UNL     1     115.009 131.639 141.285  0.00  0.00    +0.000 OA
ATOM     37  O   UNL     1     113.656 131.565 142.226  0.00  0.00    +0.000 OA
ATOM     38  C   UNL     1     114.090 129.803 140.543  0.00  0.00    +0.000 C 
ATOM     39  C   UNL     1     114.622 130.428 140.634  0.00  0.00    +0.000 C 
ATOM     40  C   UNL     1     114.477 131.015 141.195  0.00  0.00    +0.000 C 
ATOM     41  C   UNL     1     113.801 130.978 141.665  0.00  0.00    +0.000 C 
ATOM     42  C   UNL     1     113.269 130.354 141.575  0.00  0.00    +0.000 C 
ATOM     43  C   UNL     1     112.592 130.317 142.046  0.00  0.00    +0.000 C 
ENDBRANCH  33  38
ENDBRANCH  28  33
BRANCH  31  44
ATOM     44  C   UNL     1     112.189 126.638 139.729  0.00  0.00    +0.000 C 
BRANCH  44  45
ATOM     45  O   UNL     1     111.401 126.757 139.517  0.00  0.00    +0.000 OA
BRANCH  45  47
ATOM     46  O   UNL     1     110.550 125.721 140.013  0.00  0.00    +0.000 OA
ATOM     47  C   UNL     1     110.909 126.109 139.379  0.00  0.00    +0.000 C 
ATOM     48  C   UNL     1     110.776 125.850 138.607  0.00  0.00    +0.000 C 
ENDBRANCH  45  47
ENDBRANCH  44  45
ENDBRANCH  31  44
ENDBRANCH   1  32
TORSDOF 9
ENDMDL
MODEL 7
REMARK VINA RESULT:     -10.1      2.383      5.131
REMARK  Name = 44260013
REMARK  9 active torsions:
REMARK  status: ('A' for Active; 'I' for Inactive)
REMARK    1  A    between atoms: O_1  and  C_19
REMARK    2  A    between atoms: O_1  and  C_22
REMARK    3  A    between atoms: O_5  and  C_24
REMARK    4  A    between atoms: O_5  and  C_31
REMARK    5  A    between atoms: O_10  and  C_29
REMARK    6  A    between atoms: O_10  and  C_34
REMARK    7  A    between atoms: O_17  and  C_45
REMARK    8  A    between atoms: C_23  and  C_29
REMARK    9  A    between atoms: C_40  and  C_42
REMARK                            x       y       z     vdW  Elec       q    Type
REMARK                         _______ _______ _______ _____ _____    ______ ____
ROOT
ATOM      1  O   UNL     1     111.495 127.769 138.061  0.00  0.00    +0.000 OA
ENDROOT
BRANCH   1   7
ATOM      2  O   UNL     1     111.269 128.940 136.865  0.00  0.00    +0.000 OA
ATOM      3  O   UNL     1     110.053 130.081 137.034  0.00  0.00    +0.000 OA
ATOM      4  O   UNL     1     109.272 128.922 139.563  0.00  0.00    +0.000 OA
ATOM      5  O   UNL     1     108.580 130.067 139.024  0.00  0.00    +0.000 OA
ATOM      6  O   UNL     1     108.369 131.207 137.848  0.00  0.00    +0.000 OA
ATOM      7  C   UNL     1     110.898 128.332 138.140  0.00  0.00    +0.000 A 
ATOM      8  C   UNL     1     110.783 128.928 137.531  0.00  0.00    +0.000 A 
ATOM      9  C   UNL     1     110.387 128.327 138.830  0.00  0.00    +0.000 A 
ATOM     10  C   UNL     1     110.158 129.512 137.622  0.00  0.00    +0.000 A 
ATOM     11  C   UNL     1     109.767 128.919 138.903  0.00  0.00    +0.000 A 
ATOM     12  C   UNL     1     109.667 129.507 138.285  0.00  0.00    +0.000 A 
ATOM     13  C   UNL     1     109.071 130.072 138.361  0.00  0.00    +0.000 A 
ATOM     14  C   UNL     1     109.456 130.645 137.110  0.00  0.00    +0.000 A 
ATOM     15  C   UNL     1     108.965 130.641 137.773  0.00  0.00    +0.000 A 
BRANCH  14  17
ATOM     16  O   UNL     1     109.034 132.924 134.761  0.00  0.00    +0.000 OA
ATOM     17  C   UNL     1     109.351 131.215 136.523  0.00  0.00    +0.000 A 
ATOM     18  C   UNL     1     109.736 131.942 136.579  0.00  0.00    +0.000 A 
ATOM     19  C   UNL     1     108.859 131.058 135.879  0.00  0.00    +0.000 A 
ATOM     20  C   UNL     1     109.630 132.512 135.992  0.00  0.00    +0.000 A 
ATOM     21  C   UNL     1     108.754 131.627 135.291  0.00  0.00    +0.000 A 
ATOM     22  C   UNL     1     109.139 132.355 135.348  0.00  0.00    +0.000 A 
BRANCH  20  23
ATOM     23  O   UNL     1     110.016 133.240 136.049  0.00  0.00    +0.000 OA
ATOM     24  C   UNL     1     110.620 133.343 136.602  0.00  0.00    +0.000 C 
ENDBRANCH  20  23
ENDBRANCH  14  17
ENDBRANCH   1   7
BRANCH   1  32
ATOM     25  O   UNL     1     112.443 128.342 138.964  0.00  0.00    +0.000 OA
ATOM     26  O   UNL     1     112.986 126.087 139.827  0.00  0.00    +0.000 OA
ATOM     27  O   UNL     1     113.753 127.413 140.442  0.00  0.00    +0.000 OA
ATOM     28  C   UNL     1     112.240 126.927 138.944  0.00  0.00    +0.000 C 
ATOM     29  C   UNL     1     112.805 126.839 139.539  0.00  0.00    +0.000 C 
ATOM     30  C   UNL     1     113.188 127.501 139.847  0.00  0.00    +0.000 C 
ATOM     31  C   UNL     1     113.007 128.253 139.559  0.00  0.00    +0.000 C 
ATOM     32  C   UNL     1     112.059 127.679 138.656  0.00  0.00    +0.000 C 
BRANCH  28  33
ATOM     33  O   UNL     1     111.857 126.265 138.637  0.00  0.00    +0.000 OA
BRANCH  33  38
ATOM     34  O   UNL     1     112.893 126.098 137.667  0.00  0.00    +0.000 OA
ATOM     35  O   UNL     1     111.243 124.788 138.234  0.00  0.00    +0.000 OA
ATOM     36  O   UNL     1     111.972 123.882 137.063  0.00  0.00    +0.000 OA
ATOM     37  O   UNL     1     113.316 124.455 136.295  0.00  0.00    +0.000 OA
ATOM     38  C   UNL     1     112.222 125.813 138.051  0.00  0.00    +0.000 C 
ATOM     39  C   UNL     1     111.914 125.073 137.850  0.00  0.00    +0.000 C 
ATOM     40  C   UNL     1     112.279 124.621 137.264  0.00  0.00    +0.000 C 
ATOM     41  C   UNL     1     112.951 124.907 136.880  0.00  0.00    +0.000 C 
ATOM     42  C   UNL     1     113.258 125.645 137.082  0.00  0.00    +0.000 C 
ATOM     43  C   UNL     1     113.930 125.932 136.698  0.00  0.00    +0.000 C 
ENDBRANCH  33  38
ENDBRANCH  28  33
BRANCH  31  44
ATOM     44  C   UNL     1     113.390 128.916 139.867  0.00  0.00    +0.000 C 
BRANCH  44  45
ATOM     45  O   UNL     1     113.536 129.569 139.383  0.00  0.00    +0.000 OA
BRANCH  45  47
ATOM     46  O   UNL     1     113.380 130.661 140.292  0.00  0.00    +0.000 OA
ATOM     47  C   UNL     1     113.819 130.271 139.713  0.00  0.00    +0.000 C 
ATOM     48  C   UNL     1     114.541 130.581 139.463  0.00  0.00    +0.000 C 
ENDBRANCH  45  47
ENDBRANCH  44  45
ENDBRANCH  31  44
ENDBRANCH   1  32
TORSDOF 9
ENDMDL
MODEL 8
REMARK VINA RESULT:     -10.0      2.686      5.728
REMARK  Name = 44260013
REMARK  9 active torsions:
REMARK  status: ('A' for Active; 'I' for Inactive)
REMARK    1  A    between atoms: O_1  and  C_19
REMARK    2  A    between atoms: O_1  and  C_22
REMARK    3  A    between atoms: O_5  and  C_24
REMARK    4  A    between atoms: O_5  and  C_31
REMARK    5  A    between atoms: O_10  and  C_29
REMARK    6  A    between atoms: O_10  and  C_34
REMARK    7  A    between atoms: O_17  and  C_45
REMARK    8  A    between atoms: C_23  and  C_29
REMARK    9  A    between atoms: C_40  and  C_42
REMARK                            x       y       z     vdW  Elec       q    Type
REMARK                         _______ _______ _______ _____ _____    ______ ____
ROOT
ATOM      1  O   UNL     1     110.632 129.378 137.709  0.00  0.00    +0.000 OA
ENDROOT
BRANCH   1   7
ATOM      2  O   UNL     1     111.356 127.895 138.068  0.00  0.00    +0.000 OA
ATOM      3  O   UNL     1     111.416 126.693 136.901  0.00  0.00    +0.000 OA
ATOM      4  O   UNL     1     110.049 128.406 135.019  0.00  0.00    +0.000 OA
ATOM      5  O   UNL     1     110.452 127.070 134.653  0.00  0.00    +0.000 OA
ATOM      6  O   UNL     1     111.162 125.624 135.014  0.00  0.00    +0.000 OA
ATOM      7  C   UNL     1     110.664 128.783 137.139  0.00  0.00    +0.000 A 
ATOM      8  C   UNL     1     111.033 128.029 137.321  0.00  0.00    +0.000 A 
ATOM      9  C   UNL     1     110.330 128.915 136.359  0.00  0.00    +0.000 A 
ATOM     10  C   UNL     1     111.061 127.415 136.720  0.00  0.00    +0.000 A 
ATOM     11  C   UNL     1     110.368 128.289 135.770  0.00  0.00    +0.000 A 
ATOM     12  C   UNL     1     110.740 127.541 135.971  0.00  0.00    +0.000 A 
ATOM     13  C   UNL     1     110.774 126.944 135.402  0.00  0.00    +0.000 A 
ATOM     14  C   UNL     1     111.450 126.096 136.332  0.00  0.00    +0.000 A 
ATOM     15  C   UNL     1     111.128 126.221 135.582  0.00  0.00    +0.000 A 
BRANCH  14  17
ATOM     16  O   UNL     1     112.869 123.206 137.054  0.00  0.00    +0.000 OA
ATOM     17  C   UNL     1     111.804 125.373 136.513  0.00  0.00    +0.000 A 
ATOM     18  C   UNL     1     112.613 125.269 136.389  0.00  0.00    +0.000 A 
ATOM     19  C   UNL     1     111.350 124.755 136.817  0.00  0.00    +0.000 A 
ATOM     20  C   UNL     1     112.968 124.546 136.570  0.00  0.00    +0.000 A 
ATOM     21  C   UNL     1     111.705 124.033 136.997  0.00  0.00    +0.000 A 
ATOM     22  C   UNL     1     112.514 123.928 136.874  0.00  0.00    +0.000 A 
BRANCH  20  23
ATOM     23  O   UNL     1     113.778 124.442 136.446  0.00  0.00    +0.000 OA
ATOM     24  C   UNL     1     114.311 125.015 136.707  0.00  0.00    +0.000 C 
ENDBRANCH  20  23
ENDBRANCH  14  17
ENDBRANCH   1   7
BRANCH   1  32
ATOM     25  O   UNL     1     111.752 130.142 137.257  0.00  0.00    +0.000 OA
ATOM     26  O   UNL     1     110.524 132.234 137.746  0.00  0.00    +0.000 OA
ATOM     27  O   UNL     1     112.053 132.300 137.130  0.00  0.00    +0.000 OA
ATOM     28  C   UNL     1     110.577 130.806 137.728  0.00  0.00    +0.000 C 
ATOM     29  C   UNL     1     110.933 131.537 137.583  0.00  0.00    +0.000 C 
ATOM     30  C   UNL     1     111.697 131.570 137.275  0.00  0.00    +0.000 C 
ATOM     31  C   UNL     1     112.107 130.872 137.112  0.00  0.00    +0.000 C 
ATOM     32  C   UNL     1     110.987 130.109 137.565  0.00  0.00    +0.000 C 
BRANCH  28  33
ATOM     33  O   UNL     1     109.813 130.773 138.036  0.00  0.00    +0.000 OA
BRANCH  33  38
ATOM     34  O   UNL     1     110.338 130.800 139.365  0.00  0.00    +0.000 OA
ATOM     35  O   UNL     1     108.286 130.947 138.636  0.00  0.00    +0.000 OA
ATOM     36  O   UNL     1     108.048 131.061 140.265  0.00  0.00    +0.000 OA
ATOM     37  O   UNL     1     109.336 131.001 141.293  0.00  0.00    +0.000 OA
ATOM     38  C   UNL     1     109.694 130.830 138.850  0.00  0.00    +0.000 C 
ATOM     39  C   UNL     1     108.930 130.917 139.151  0.00  0.00    +0.000 C 
ATOM     40  C   UNL     1     108.811 130.974 139.965  0.00  0.00    +0.000 C 
ATOM     41  C   UNL     1     109.456 130.944 140.479  0.00  0.00    +0.000 C 
ATOM     42  C   UNL     1     110.219 130.857 140.179  0.00  0.00    +0.000 C 
ATOM     43  C   UNL     1     110.864 130.827 140.693  0.00  0.00    +0.000 C 
ENDBRANCH  33  38
ENDBRANCH  28  33
BRANCH  31  44
ATOM     44  C   UNL     1     112.872 130.905 136.804  0.00  0.00    +0.000 C 
BRANCH  44  45
ATOM     45  O   UNL     1     113.358 130.240 136.838  0.00  0.00    +0.000 OA
BRANCH  45  47
ATOM     46  O   UNL     1     114.725 130.657 136.797  0.00  0.00    +0.000 OA
ATOM     47  C   UNL     1     114.093 130.247 136.461  0.00  0.00    +0.000 C 
ATOM     48  C   UNL     1     114.195 129.844 135.749  0.00  0.00    +0.000 C 
ENDBRANCH  45  47
ENDBRANCH  44  45
ENDBRANCH  31  44
ENDBRANCH   1  32
TORSDOF 9
ENDMDL
MODEL 9
REMARK VINA RESULT:      -9.9      6.957      8.512
REMARK  Name = 44260013
REMARK  9 active torsions:
REMARK  status: ('A' for Active; 'I' for Inactive)
REMARK    1  A    between atoms: O_1  and  C_19
REMARK    2  A    between atoms: O_1  and  C_22
REMARK    3  A    between atoms: O_5  and  C_24
REMARK    4  A    between atoms: O_5  and  C_31
REMARK    5  A    between atoms: O_10  and  C_29
REMARK    6  A    between atoms: O_10  and  C_34
REMARK    7  A    between atoms: O_17  and  C_45
REMARK    8  A    between atoms: C_23  and  C_29
REMARK    9  A    between atoms: C_40  and  C_42
REMARK                            x       y       z     vdW  Elec       q    Type
REMARK                         _______ _______ _______ _____ _____    ______ ____
ROOT
ATOM      1  O   UNL     1     105.476 126.735 141.626  0.00  0.00    +0.000 OA
ENDROOT
BRANCH   1   7
ATOM      2  O   UNL     1     104.555 128.000 140.989  0.00  0.00    +0.000 OA
ATOM      3  O   UNL     1     104.084 129.269 141.979  0.00  0.00    +0.000 OA
ATOM      4  O   UNL     1     105.425 128.053 144.230  0.00  0.00    +0.000 OA
ATOM      5  O   UNL     1     104.727 129.308 144.369  0.00  0.00    +0.000 OA
ATOM      6  O   UNL     1     103.827 130.539 143.736  0.00  0.00    +0.000 OA
ATOM      7  C   UNL     1     105.241 127.362 142.109  0.00  0.00    +0.000 A 
ATOM      8  C   UNL     1     104.773 128.005 141.784  0.00  0.00    +0.000 A 
ATOM      9  C   UNL     1     105.464 127.375 142.938  0.00  0.00    +0.000 A 
ATOM     10  C   UNL     1     104.534 128.654 142.295  0.00  0.00    +0.000 A 
ATOM     11  C   UNL     1     105.216 128.033 143.433  0.00  0.00    +0.000 A 
ATOM     12  C   UNL     1     104.748 128.667 143.092  0.00  0.00    +0.000 A 
ATOM     13  C   UNL     1     104.513 129.295 143.572  0.00  0.00    +0.000 A 
ATOM     14  C   UNL     1     103.849 129.897 142.459  0.00  0.00    +0.000 A 
ATOM     15  C   UNL     1     104.063 129.910 143.256  0.00  0.00    +0.000 A 
BRANCH  14  17
ATOM     16  O   UNL     1     102.052 132.358 141.194  0.00  0.00    +0.000 OA
ATOM     17  C   UNL     1     103.399 130.512 142.143  0.00  0.00    +0.000 A 
ATOM     18  C   UNL     1     103.773 131.183 141.840  0.00  0.00    +0.000 A 
ATOM     19  C   UNL     1     102.576 130.458 142.130  0.00  0.00    +0.000 A 
ATOM     20  C   UNL     1     103.323 131.798 141.523  0.00  0.00    +0.000 A 
ATOM     21  C   UNL     1     102.127 131.073 141.814  0.00  0.00    +0.000 A 
ATOM     22  C   UNL     1     102.500 131.743 141.510  0.00  0.00    +0.000 A 
BRANCH  20  23
ATOM     23  O   UNL     1     103.698 132.468 141.220  0.00  0.00    +0.000 OA
ATOM     24  C   UNL     1     104.378 132.387 140.760  0.00  0.00    +0.000 C 
ENDBRANCH  20  23
ENDBRANCH  14  17
ENDBRANCH   1   7
BRANCH   1  32
ATOM     25  O   UNL     1     106.848 127.097 141.458  0.00  0.00    +0.000 OA
ATOM     26  O   UNL     1     107.504 124.724 141.716  0.00  0.00    +0.000 OA
ATOM     27  O   UNL     1     108.658 125.877 141.462  0.00  0.00    +0.000 OA
ATOM     28  C   UNL     1     106.490 125.729 141.671  0.00  0.00    +0.000 C 
ATOM     29  C   UNL     1     107.285 125.515 141.630  0.00  0.00    +0.000 C 
ATOM     30  C   UNL     1     107.862 126.091 141.503  0.00  0.00    +0.000 C 
ATOM     31  C   UNL     1     107.643 126.881 141.417  0.00  0.00    +0.000 C 
ATOM     32  C   UNL     1     106.271 126.520 141.585  0.00  0.00    +0.000 C 
BRANCH  28  33
ATOM     33  O   UNL     1     105.913 125.153 141.797  0.00  0.00    +0.000 OA
BRANCH  33  38
ATOM     34  O   UNL     1     105.728 124.956 140.394  0.00  0.00    +0.000 OA
ATOM     35  O   UNL     1     105.240 123.676 142.093  0.00  0.00    +0.000 OA
ATOM     36  O   UNL     1     104.719 122.741 140.838  0.00  0.00    +0.000 OA
ATOM     37  O   UNL     1     104.871 123.283 139.287  0.00  0.00    +0.000 OA
ATOM     38  C   UNL     1     105.653 124.686 141.170  0.00  0.00    +0.000 C 
ATOM     39  C   UNL     1     105.316 123.946 141.318  0.00  0.00    +0.000 C 
ATOM     40  C   UNL     1     105.055 123.479 140.690  0.00  0.00    +0.000 C 
ATOM     41  C   UNL     1     105.131 123.750 139.915  0.00  0.00    +0.000 C 
ATOM     42  C   UNL     1     105.467 124.488 139.767  0.00  0.00    +0.000 C 
ATOM     43  C   UNL     1     105.543 124.760 138.991  0.00  0.00    +0.000 C 
ENDBRANCH  33  38
ENDBRANCH  28  33
BRANCH  31  44
ATOM     44  C   UNL     1     108.220 127.458 141.290  0.00  0.00    +0.000 C 
BRANCH  44  45
ATOM     45  O   UNL     1     108.006 128.195 140.987  0.00  0.00    +0.000 OA
BRANCH  45  47
ATOM     46  O   UNL     1     108.978 128.832 140.154  0.00  0.00    +0.000 OA
ATOM     47  C   UNL     1     108.581 128.777 140.875  0.00  0.00    +0.000 C 
ATOM     48  C   UNL     1     108.757 129.304 141.485  0.00  0.00    +0.000 C 
ENDBRANCH  45  47
ENDBRANCH  44  45
ENDBRANCH  31  44
ENDBRANCH   1  32
TORSDOF 9
ENDMDL
MODEL 10
REMARK VINA RESULT:      -9.9      2.606      5.280
REMARK  Name = 44260013
REMARK  9 active torsions:
REMARK  status: ('A' for Active; 'I' for Inactive)
REMARK    1  A    between atoms: O_1  and  C_19
REMARK    2  A    between atoms: O_1  and  C_22
REMARK    3  A    between atoms: O_5  and  C_24
REMARK    4  A    between atoms: O_5  and  C_31
REMARK    5  A    between atoms: O_10  and  C_29
REMARK    6  A    between atoms: O_10  and  C_34
REMARK    7  A    between atoms: O_17  and  C_45
REMARK    8  A    between atoms: C_23  and  C_29
REMARK    9  A    between atoms: C_40  and  C_42
REMARK                            x       y       z     vdW  Elec       q    Type
REMARK                         _______ _______ _______ _____ _____    ______ ____
ROOT
ATOM      1  O   UNL     1     110.923 127.061 137.266  0.00  0.00    +0.000 OA
ENDROOT
BRANCH   1   7
ATOM      2  O   UNL     1     111.198 128.727 137.230  0.00  0.00    +0.000 OA
ATOM      3  O   UNL     1     110.035 129.750 136.589  0.00  0.00    +0.000 OA
ATOM      4  O   UNL     1     108.321 127.497 136.016  0.00  0.00    +0.000 OA
ATOM      5  O   UNL     1     107.913 128.842 135.694  0.00  0.00    +0.000 OA
ATOM      6  O   UNL     1     108.193 130.469 135.664  0.00  0.00    +0.000 OA
ATOM      7  C   UNL     1     110.354 127.569 136.952  0.00  0.00    +0.000 A 
ATOM      8  C   UNL     1     110.494 128.416 136.934  0.00  0.00    +0.000 A 
ATOM      9  C   UNL     1     109.618 127.254 136.642  0.00  0.00    +0.000 A 
ATOM     10  C   UNL     1     109.895 128.938 136.604  0.00  0.00    +0.000 A 
ATOM     11  C   UNL     1     109.030 127.791 136.316  0.00  0.00    +0.000 A 
ATOM     12  C   UNL     1     109.188 128.635 136.306  0.00  0.00    +0.000 A 
ATOM     13  C   UNL     1     108.620 129.145 135.993  0.00  0.00    +0.000 A 
ATOM     14  C   UNL     1     109.468 130.261 136.276  0.00  0.00    +0.000 A 
ATOM     15  C   UNL     1     108.760 129.958 135.977  0.00  0.00    +0.000 A 
BRANCH  14  17
ATOM     16  O   UNL     1     110.026 133.512 136.215  0.00  0.00    +0.000 OA
ATOM     17  C   UNL     1     109.607 131.074 136.261  0.00  0.00    +0.000 A 
ATOM     18  C   UNL     1     109.573 131.511 136.959  0.00  0.00    +0.000 A 
ATOM     19  C   UNL     1     109.780 131.449 135.547  0.00  0.00    +0.000 A 
ATOM     20  C   UNL     1     109.713 132.324 136.944  0.00  0.00    +0.000 A 
ATOM     21  C   UNL     1     109.920 132.262 135.531  0.00  0.00    +0.000 A 
ATOM     22  C   UNL     1     109.886 132.700 136.230  0.00  0.00    +0.000 A 
BRANCH  20  23
ATOM     23  O   UNL     1     109.679 132.761 137.643  0.00  0.00    +0.000 OA
ATOM     24  C   UNL     1     109.949 132.430 138.349  0.00  0.00    +0.000 C 
ENDBRANCH  20  23
ENDBRANCH  14  17
ENDBRANCH   1   7
BRANCH   1  32
ATOM     25  O   UNL     1     110.324 126.913 138.555  0.00  0.00    +0.000 OA
ATOM     26  O   UNL     1     111.033 124.542 138.612  0.00  0.00    +0.000 OA
ATOM     27  O   UNL     1     110.198 125.184 139.882  0.00  0.00    +0.000 OA
ATOM     28  C   UNL     1     110.979 125.801 137.939  0.00  0.00    +0.000 C 
ATOM     29  C   UNL     1     110.797 125.332 138.593  0.00  0.00    +0.000 C 
ATOM     30  C   UNL     1     110.380 125.653 139.228  0.00  0.00    +0.000 C 
ATOM     31  C   UNL     1     110.143 126.443 139.209  0.00  0.00    +0.000 C 
ATOM     32  C   UNL     1     110.742 126.591 137.920  0.00  0.00    +0.000 C 
BRANCH  28  33
ATOM     33  O   UNL     1     111.396 125.480 137.304  0.00  0.00    +0.000 OA
BRANCH  33  38
ATOM     34  O   UNL     1     112.638 125.806 137.932  0.00  0.00    +0.000 OA
ATOM     35  O   UNL     1     112.195 124.533 136.215  0.00  0.00    +0.000 OA
ATOM     36  O   UNL     1     113.836 124.384 136.298  0.00  0.00    +0.000 OA
ATOM     37  O   UNL     1     114.678 125.184 137.470  0.00  0.00    +0.000 OA
ATOM     38  C   UNL     1     112.216 125.406 137.346  0.00  0.00    +0.000 C 
ATOM     39  C   UNL     1     112.616 124.932 136.801  0.00  0.00    +0.000 C 
ATOM     40  C   UNL     1     113.437 124.858 136.842  0.00  0.00    +0.000 C 
ATOM     41  C   UNL     1     113.858 125.258 137.429  0.00  0.00    +0.000 C 
ATOM     42  C   UNL     1     113.459 125.731 137.973  0.00  0.00    +0.000 C 
ATOM     43  C   UNL     1     113.879 126.131 138.560  0.00  0.00    +0.000 C 
ENDBRANCH  33  38
ENDBRANCH  28  33
BRANCH  31  44
ATOM     44  C   UNL     1     109.725 126.765 139.844  0.00  0.00    +0.000 C 
BRANCH  44  45
ATOM     45  O   UNL     1     109.844 127.552 140.059  0.00  0.00    +0.000 OA
BRANCH  45  47
ATOM     46  O   UNL     1     108.548 127.958 140.506  0.00  0.00    +0.000 OA
ATOM     47  C   UNL     1     109.362 127.901 140.631  0.00  0.00    +0.000 C 
ATOM     48  C   UNL     1     109.694 128.191 141.328  0.00  0.00    +0.000 C 
ENDBRANCH  45  47
ENDBRANCH  44  45
ENDBRANCH  31  44
ENDBRANCH   1  32
TORSDOF 9
ENDMDL
