MODEL 1
REMARK VINA RESULT:      -8.5      0.000      0.000
REMARK  Name = 131834457
REMARK  7 active torsions:
REMARK  status: ('A' for Active; 'I' for Inactive)
REMARK    1  A    between atoms: O_2  and  C_14
REMARK    2  A    between atoms: O_2  and  C_17
REMARK    3  A    between atoms: C_15  and  C_16
REMARK    4  A    between atoms: C_18  and  C_20
REMARK    5  A    between atoms: C_20  and  C_21
REMARK    6  A    between atoms: C_21  and  C_23
REMARK    7  A    between atoms: C_23  and  C_26
REMARK                            x       y       z     vdW  Elec       q    Type
REMARK                         _______ _______ _______ _____ _____    ______ ____
ROOT
ATOM      1  O   UNL     1     112.858 123.752 136.975  0.00  0.00    +0.000 OA
ATOM      2  O   UNL     1     115.232 125.187 137.657  0.00  0.00    +0.000 OA
ATOM      3  C   UNL     1     113.133 125.777 137.741  0.00  0.00    +0.000 A 
ATOM      4  C   UNL     1     112.767 125.091 137.464  0.00  0.00    +0.000 A 
ATOM      5  C   UNL     1     113.955 125.809 137.805  0.00  0.00    +0.000 A 
ATOM      6  C   UNL     1     113.223 124.437 137.252  0.00  0.00    +0.000 A 
ATOM      7  C   UNL     1     114.411 125.155 137.592  0.00  0.00    +0.000 A 
ATOM      8  C   UNL     1     114.045 124.469 137.316  0.00  0.00    +0.000 A 
ENDROOT
BRANCH   4  10
ATOM      9  O   UNL     1     111.494 124.756 138.020  0.00  0.00    +0.000 OA
ATOM     10  C   UNL     1     111.946 125.059 137.400  0.00  0.00    +0.000 C 
BRANCH  10  11
ATOM     11  C   UNL     1     111.575 125.332 136.714  0.00  0.00    +0.000 C 
BRANCH  11  12
ATOM     12  C   UNL     1     110.756 125.270 136.637  0.00  0.00    +0.000 C 
BRANCH  12  13
ATOM     13  C   UNL     1     110.371 125.650 136.013  0.00  0.00    +0.000 A 
ATOM     14  C   UNL     1     109.893 126.306 136.161  0.00  0.00    +0.000 A 
ATOM     15  C   UNL     1     110.465 125.374 135.241  0.00  0.00    +0.000 A 
ATOM     16  C   UNL     1     109.510 126.686 135.538  0.00  0.00    +0.000 A 
ATOM     17  C   UNL     1     110.081 125.754 134.617  0.00  0.00    +0.000 A 
ATOM     18  C   UNL     1     109.603 126.410 134.766  0.00  0.00    +0.000 A 
ENDBRANCH  12  13
ENDBRANCH  11  12
ENDBRANCH  10  11
ENDBRANCH   4  10
BRANCH   3  19
ATOM     19  O   UNL     1     112.677 126.431 137.953  0.00  0.00    +0.000 OA
BRANCH  19  27
ATOM     20  O   UNL     1     113.119 126.670 139.290  0.00  0.00    +0.000 OA
ATOM     21  O   UNL     1     113.412 129.071 138.764  0.00  0.00    +0.000 OA
ATOM     22  O   UNL     1     112.873 128.032 137.602  0.00  0.00    +0.000 OA
ATOM     23  O   UNL     1     113.755 128.510 140.277  0.00  0.00    +0.000 OA
ATOM     24  C   UNL     1     113.314 128.271 138.939  0.00  0.00    +0.000 C 
ATOM     25  C   UNL     1     113.044 127.751 138.358  0.00  0.00    +0.000 C 
ATOM     26  C   UNL     1     113.486 127.990 139.696  0.00  0.00    +0.000 C 
ATOM     27  C   UNL     1     112.947 126.950 138.534  0.00  0.00    +0.000 C 
ATOM     28  C   UNL     1     113.388 127.189 139.872  0.00  0.00    +0.000 C 
BRANCH  28  31
ATOM     29  O   UNL     1     112.948 126.725 141.149  0.00  0.00    +0.000 OA
ATOM     30  O   UNL     1     114.345 126.813 140.863  0.00  0.00    +0.000 OA
ATOM     31  C   UNL     1     113.560 126.909 140.628  0.00  0.00    +0.000 C 
ENDBRANCH  28  31
ENDBRANCH  19  27
ENDBRANCH   3  19
TORSDOF 7
ENDMDL
MODEL 2
REMARK VINA RESULT:      -8.5      2.849      4.608
REMARK  Name = 131834457
REMARK  7 active torsions:
REMARK  status: ('A' for Active; 'I' for Inactive)
REMARK    1  A    between atoms: O_2  and  C_14
REMARK    2  A    between atoms: O_2  and  C_17
REMARK    3  A    between atoms: C_15  and  C_16
REMARK    4  A    between atoms: C_18  and  C_20
REMARK    5  A    between atoms: C_20  and  C_21
REMARK    6  A    between atoms: C_21  and  C_23
REMARK    7  A    between atoms: C_23  and  C_26
REMARK                            x       y       z     vdW  Elec       q    Type
REMARK                         _______ _______ _______ _____ _____    ______ ____
ROOT
ATOM      1  O   UNL     1     114.534 128.621 134.821  0.00  0.00    +0.000 OA
ATOM      2  O   UNL     1     114.922 131.173 136.045  0.00  0.00    +0.000 OA
ATOM      3  C   UNL     1     113.696 129.472 136.648  0.00  0.00    +0.000 A 
ATOM      4  C   UNL     1     113.858 128.940 136.038  0.00  0.00    +0.000 A 
ATOM      5  C   UNL     1     114.052 130.216 136.650  0.00  0.00    +0.000 A 
ATOM      6  C   UNL     1     114.374 129.153 135.430  0.00  0.00    +0.000 A 
ATOM      7  C   UNL     1     114.568 130.429 136.042  0.00  0.00    +0.000 A 
ATOM      8  C   UNL     1     114.728 129.898 135.433  0.00  0.00    +0.000 A 
ENDROOT
BRANCH   4  10
ATOM      9  O   UNL     1     112.767 128.090 135.678  0.00  0.00    +0.000 OA
ATOM     10  C   UNL     1     113.502 128.195 136.036  0.00  0.00    +0.000 C 
BRANCH  10  11
ATOM     11  C   UNL     1     113.884 127.556 136.393  0.00  0.00    +0.000 C 
BRANCH  11  12
ATOM     12  C   UNL     1     113.530 126.811 136.389  0.00  0.00    +0.000 C 
BRANCH  12  13
ATOM     13  C   UNL     1     113.906 126.174 136.755  0.00  0.00    +0.000 A 
ATOM     14  C   UNL     1     114.403 125.681 136.317  0.00  0.00    +0.000 A 
ATOM     15  C   UNL     1     113.786 126.030 137.558  0.00  0.00    +0.000 A 
ATOM     16  C   UNL     1     114.779 125.045 136.683  0.00  0.00    +0.000 A 
ATOM     17  C   UNL     1     114.162 125.393 137.924  0.00  0.00    +0.000 A 
ATOM     18  C   UNL     1     114.659 124.900 137.486  0.00  0.00    +0.000 A 
ENDBRANCH  12  13
ENDBRANCH  11  12
ENDBRANCH  10  11
ENDBRANCH   4  10
BRANCH   3  19
ATOM     19  O   UNL     1     113.181 129.259 137.256  0.00  0.00    +0.000 OA
BRANCH  19  27
ATOM     20  O   UNL     1     112.191 130.284 137.153  0.00  0.00    +0.000 OA
ATOM     21  O   UNL     1     112.305 130.640 139.599  0.00  0.00    +0.000 OA
ATOM     22  O   UNL     1     113.257 129.496 138.887  0.00  0.00    +0.000 OA
ATOM     23  O   UNL     1     111.277 131.546 138.681  0.00  0.00    +0.000 OA
ATOM     24  C   UNL     1     112.267 130.521 138.784  0.00  0.00    +0.000 C 
ATOM     25  C   UNL     1     112.743 129.949 138.427  0.00  0.00    +0.000 C 
ATOM     26  C   UNL     1     111.753 130.975 138.324  0.00  0.00    +0.000 C 
ATOM     27  C   UNL     1     112.705 129.831 137.611  0.00  0.00    +0.000 C 
ATOM     28  C   UNL     1     111.715 130.856 137.508  0.00  0.00    +0.000 C 
BRANCH  28  31
ATOM     29  O   UNL     1     111.397 132.087 136.856  0.00  0.00    +0.000 OA
ATOM     30  O   UNL     1     110.491 130.985 136.784  0.00  0.00    +0.000 OA
ATOM     31  C   UNL     1     111.201 131.309 137.050  0.00  0.00    +0.000 C 
ENDBRANCH  28  31
ENDBRANCH  19  27
ENDBRANCH   3  19
TORSDOF 7
ENDMDL
MODEL 3
REMARK VINA RESULT:      -8.5      2.286      3.956
REMARK  Name = 131834457
REMARK  7 active torsions:
REMARK  status: ('A' for Active; 'I' for Inactive)
REMARK    1  A    between atoms: O_2  and  C_14
REMARK    2  A    between atoms: O_2  and  C_17
REMARK    3  A    between atoms: C_15  and  C_16
REMARK    4  A    between atoms: C_18  and  C_20
REMARK    5  A    between atoms: C_20  and  C_21
REMARK    6  A    between atoms: C_21  and  C_23
REMARK    7  A    between atoms: C_23  and  C_26
REMARK                            x       y       z     vdW  Elec       q    Type
REMARK                         _______ _______ _______ _____ _____    ______ ____
ROOT
ATOM      1  O   UNL     1     110.523 125.320 136.109  0.00  0.00    +0.000 OA
ATOM      2  O   UNL     1     109.097 127.412 137.433  0.00  0.00    +0.000 OA
ATOM      3  C   UNL     1     110.663 126.074 138.153  0.00  0.00    +0.000 A 
ATOM      4  C   UNL     1     110.807 125.624 137.476  0.00  0.00    +0.000 A 
ATOM      5  C   UNL     1     110.093 126.670 138.138  0.00  0.00    +0.000 A 
ATOM      6  C   UNL     1     110.380 125.770 136.785  0.00  0.00    +0.000 A 
ATOM      7  C   UNL     1     109.666 126.816 137.447  0.00  0.00    +0.000 A 
ATOM      8  C   UNL     1     109.810 126.367 136.771  0.00  0.00    +0.000 A 
ENDROOT
BRANCH   4  10
ATOM      9  O   UNL     1     111.174 124.268 137.740  0.00  0.00    +0.000 OA
ATOM     10  C   UNL     1     111.377 125.028 137.491  0.00  0.00    +0.000 C 
BRANCH  10  11
ATOM     11  C   UNL     1     112.151 125.192 137.255  0.00  0.00    +0.000 C 
BRANCH  11  12
ATOM     12  C   UNL     1     112.713 124.589 137.238  0.00  0.00    +0.000 C 
BRANCH  12  13
ATOM     13  C   UNL     1     113.500 124.764 137.061  0.00  0.00    +0.000 A 
ATOM     14  C   UNL     1     113.752 124.786 136.276  0.00  0.00    +0.000 A 
ATOM     15  C   UNL     1     114.035 124.916 137.671  0.00  0.00    +0.000 A 
ATOM     16  C   UNL     1     114.538 124.961 136.100  0.00  0.00    +0.000 A 
ATOM     17  C   UNL     1     114.822 125.091 137.494  0.00  0.00    +0.000 A 
ATOM     18  C   UNL     1     115.074 125.113 136.709  0.00  0.00    +0.000 A 
ENDBRANCH  12  13
ENDBRANCH  11  12
ENDBRANCH  10  11
ENDBRANCH   4  10
BRANCH   3  19
ATOM     19  O   UNL     1     111.090 125.927 138.844  0.00  0.00    +0.000 OA
BRANCH  19  27
ATOM     20  O   UNL     1     110.052 125.650 139.785  0.00  0.00    +0.000 OA
ATOM     21  O   UNL     1     111.067 127.252 141.376  0.00  0.00    +0.000 OA
ATOM     22  O   UNL     1     111.767 126.995 139.904  0.00  0.00    +0.000 OA
ATOM     23  O   UNL     1     109.691 126.441 141.787  0.00  0.00    +0.000 OA
ATOM     24  C   UNL     1     110.729 126.718 140.845  0.00  0.00    +0.000 C 
ATOM     25  C   UNL     1     111.078 126.589 140.109  0.00  0.00    +0.000 C 
ATOM     26  C   UNL     1     110.040 126.312 141.051  0.00  0.00    +0.000 C 
ATOM     27  C   UNL     1     110.740 126.055 139.579  0.00  0.00    +0.000 C 
ATOM     28  C   UNL     1     109.702 125.778 140.521  0.00  0.00    +0.000 C 
BRANCH  28  31
ATOM     29  O   UNL     1     109.061 124.615 141.050  0.00  0.00    +0.000 OA
ATOM     30  O   UNL     1     108.277 125.725 140.609  0.00  0.00    +0.000 OA
ATOM     31  C   UNL     1     109.014 125.373 140.726  0.00  0.00    +0.000 C 
ENDBRANCH  28  31
ENDBRANCH  19  27
ENDBRANCH   3  19
TORSDOF 7
ENDMDL
MODEL 4
REMARK VINA RESULT:      -8.5     11.394     12.926
REMARK  Name = 131834457
REMARK  7 active torsions:
REMARK  status: ('A' for Active; 'I' for Inactive)
REMARK    1  A    between atoms: O_2  and  C_14
REMARK    2  A    between atoms: O_2  and  C_17
REMARK    3  A    between atoms: C_15  and  C_16
REMARK    4  A    between atoms: C_18  and  C_20
REMARK    5  A    between atoms: C_20  and  C_21
REMARK    6  A    between atoms: C_21  and  C_23
REMARK    7  A    between atoms: C_23  and  C_26
REMARK                            x       y       z     vdW  Elec       q    Type
REMARK                         _______ _______ _______ _____ _____    ______ ____
ROOT
ATOM      1  O   UNL     1     102.506 126.045 148.283  0.00  0.00    +0.000 OA
ATOM      2  O   UNL     1     104.783 127.719 148.702  0.00  0.00    +0.000 OA
ATOM      3  C   UNL     1     104.617 125.550 148.532  0.00  0.00    +0.000 A 
ATOM      4  C   UNL     1     103.804 125.465 148.417  0.00  0.00    +0.000 A 
ATOM      5  C   UNL     1     104.943 126.302 148.627  0.00  0.00    +0.000 A 
ATOM      6  C   UNL     1     103.318 126.131 148.397  0.00  0.00    +0.000 A 
ATOM      7  C   UNL     1     104.457 126.968 148.607  0.00  0.00    +0.000 A 
ATOM      8  C   UNL     1     103.645 126.882 148.493  0.00  0.00    +0.000 A 
ENDROOT
BRANCH   4  10
ATOM      9  O   UNL     1     103.334 124.239 148.982  0.00  0.00    +0.000 OA
ATOM     10  C   UNL     1     103.478 124.713 148.322  0.00  0.00    +0.000 C 
BRANCH  10  11
ATOM     11  C   UNL     1     103.297 124.435 147.566  0.00  0.00    +0.000 C 
BRANCH  11  12
ATOM     12  C   UNL     1     102.951 123.692 147.472  0.00  0.00    +0.000 C 
BRANCH  12  13
ATOM     13  C   UNL     1     102.772 123.413 146.716  0.00  0.00    +0.000 A 
ATOM     14  C   UNL     1     101.987 123.382 146.463  0.00  0.00    +0.000 A 
ATOM     15  C   UNL     1     103.378 123.165 146.215  0.00  0.00    +0.000 A 
ATOM     16  C   UNL     1     101.809 123.103 145.708  0.00  0.00    +0.000 A 
ATOM     17  C   UNL     1     103.199 122.886 145.459  0.00  0.00    +0.000 A 
ATOM     18  C   UNL     1     102.415 122.855 145.205  0.00  0.00    +0.000 A 
ENDBRANCH  12  13
ENDBRANCH  11  12
ENDBRANCH  10  11
ENDBRANCH   4  10
BRANCH   3  19
ATOM     19  O   UNL     1     105.103 124.884 148.551  0.00  0.00    +0.000 OA
BRANCH  19  27
ATOM     20  O   UNL     1     106.050 125.177 147.524  0.00  0.00    +0.000 OA
ATOM     21  O   UNL     1     107.900 124.612 149.068  0.00  0.00    +0.000 OA
ATOM     22  O   UNL     1     106.337 124.507 149.581  0.00  0.00    +0.000 OA
ATOM     23  O   UNL     1     108.232 125.094 147.525  0.00  0.00    +0.000 OA
ATOM     24  C   UNL     1     107.284 124.800 148.553  0.00  0.00    +0.000 C 
ATOM     25  C   UNL     1     106.501 124.748 148.809  0.00  0.00    +0.000 C 
ATOM     26  C   UNL     1     107.449 125.041 147.781  0.00  0.00    +0.000 C 
ATOM     27  C   UNL     1     105.885 124.936 148.295  0.00  0.00    +0.000 C 
ATOM     28  C   UNL     1     106.833 125.230 147.266  0.00  0.00    +0.000 C 
BRANCH  28  31
ATOM     29  O   UNL     1     107.213 126.253 146.344  0.00  0.00    +0.000 OA
ATOM     30  O   UNL     1     106.950 124.929 145.875  0.00  0.00    +0.000 OA
ATOM     31  C   UNL     1     106.998 125.471 146.495  0.00  0.00    +0.000 C 
ENDBRANCH  28  31
ENDBRANCH  19  27
ENDBRANCH   3  19
TORSDOF 7
ENDMDL
MODEL 5
REMARK VINA RESULT:      -8.3     11.111     12.422
REMARK  Name = 131834457
REMARK  7 active torsions:
REMARK  status: ('A' for Active; 'I' for Inactive)
REMARK    1  A    between atoms: O_2  and  C_14
REMARK    2  A    between atoms: O_2  and  C_17
REMARK    3  A    between atoms: C_15  and  C_16
REMARK    4  A    between atoms: C_18  and  C_20
REMARK    5  A    between atoms: C_20  and  C_21
REMARK    6  A    between atoms: C_21  and  C_23
REMARK    7  A    between atoms: C_23  and  C_26
REMARK                            x       y       z     vdW  Elec       q    Type
REMARK                         _______ _______ _______ _____ _____    ______ ____
ROOT
ATOM      1  O   UNL     1     104.096 124.994 149.246  0.00  0.00    +0.000 OA
ATOM      2  O   UNL     1     106.762 124.414 148.398  0.00  0.00    +0.000 OA
ATOM      3  C   UNL     1     104.961 124.852 147.247  0.00  0.00    +0.000 A 
ATOM      4  C   UNL     1     104.411 124.960 147.854  0.00  0.00    +0.000 A 
ATOM      5  C   UNL     1     105.745 124.670 147.430  0.00  0.00    +0.000 A 
ATOM      6  C   UNL     1     104.646 124.886 148.641  0.00  0.00    +0.000 A 
ATOM      7  C   UNL     1     105.979 124.596 148.217  0.00  0.00    +0.000 A 
ATOM      8  C   UNL     1     105.430 124.704 148.822  0.00  0.00    +0.000 A 
ENDROOT
BRANCH   4  10
ATOM      9  O   UNL     1     103.384 125.930 147.636  0.00  0.00    +0.000 OA
ATOM     10  C   UNL     1     103.628 125.142 147.671  0.00  0.00    +0.000 C 
BRANCH  10  11
ATOM     11  C   UNL     1     103.087 124.536 147.525  0.00  0.00    +0.000 C 
BRANCH  11  12
ATOM     12  C   UNL     1     102.292 124.715 147.399  0.00  0.00    +0.000 C 
BRANCH  12  13
ATOM     13  C   UNL     1     101.764 124.117 147.182  0.00  0.00    +0.000 A 
ATOM     14  C   UNL     1     101.403 123.655 147.762  0.00  0.00    +0.000 A 
ATOM     15  C   UNL     1     101.599 123.984 146.385  0.00  0.00    +0.000 A 
ATOM     16  C   UNL     1     100.877 123.059 147.545  0.00  0.00    +0.000 A 
ATOM     17  C   UNL     1     101.071 123.387 146.168  0.00  0.00    +0.000 A 
ATOM     18  C   UNL     1     100.710 122.924 146.748  0.00  0.00    +0.000 A 
ENDBRANCH  12  13
ENDBRANCH  11  12
ENDBRANCH  10  11
ENDBRANCH   4  10
BRANCH   3  19
ATOM     19  O   UNL     1     104.727 124.926 146.460  0.00  0.00    +0.000 OA
BRANCH  19  27
ATOM     20  O   UNL     1     105.577 125.978 146.002  0.00  0.00    +0.000 OA
ATOM     21  O   UNL     1     106.177 124.630 144.015  0.00  0.00    +0.000 OA
ATOM     22  O   UNL     1     105.126 124.027 145.135  0.00  0.00    +0.000 OA
ATOM     23  O   UNL     1     106.828 126.132 144.220  0.00  0.00    +0.000 OA
ATOM     24  C   UNL     1     105.977 125.079 144.678  0.00  0.00    +0.000 C 
ATOM     25  C   UNL     1     105.452 124.778 145.238  0.00  0.00    +0.000 C 
ATOM     26  C   UNL     1     106.303 125.831 144.780  0.00  0.00    +0.000 C 
ATOM     27  C   UNL     1     105.252 125.228 145.900  0.00  0.00    +0.000 C 
ATOM     28  C   UNL     1     106.103 126.280 145.443  0.00  0.00    +0.000 C 
BRANCH  28  31
ATOM     29  O   UNL     1     107.192 127.113 145.848  0.00  0.00    +0.000 OA
ATOM     30  O   UNL     1     105.991 127.701 145.344  0.00  0.00    +0.000 OA
ATOM     31  C   UNL     1     106.429 127.031 145.545  0.00  0.00    +0.000 C 
ENDBRANCH  28  31
ENDBRANCH  19  27
ENDBRANCH   3  19
TORSDOF 7
ENDMDL
MODEL 6
REMARK VINA RESULT:      -8.2      1.640      4.693
REMARK  Name = 131834457
REMARK  7 active torsions:
REMARK  status: ('A' for Active; 'I' for Inactive)
REMARK    1  A    between atoms: O_2  and  C_14
REMARK    2  A    between atoms: O_2  and  C_17
REMARK    3  A    between atoms: C_15  and  C_16
REMARK    4  A    between atoms: C_18  and  C_20
REMARK    5  A    between atoms: C_20  and  C_21
REMARK    6  A    between atoms: C_21  and  C_23
REMARK    7  A    between atoms: C_23  and  C_26
REMARK                            x       y       z     vdW  Elec       q    Type
REMARK                         _______ _______ _______ _____ _____    ______ ____
ROOT
ATOM      1  O   UNL     1     114.129 124.714 137.381  0.00  0.00    +0.000 OA
ATOM      2  O   UNL     1     111.773 123.299 136.602  0.00  0.00    +0.000 OA
ATOM      3  C   UNL     1     112.031 125.315 137.395  0.00  0.00    +0.000 A 
ATOM      4  C   UNL     1     112.851 125.342 137.489  0.00  0.00    +0.000 A 
ATOM      5  C   UNL     1     111.672 124.634 137.099  0.00  0.00    +0.000 A 
ATOM      6  C   UNL     1     113.310 124.687 137.287  0.00  0.00    +0.000 A 
ATOM      7  C   UNL     1     112.132 123.979 136.897  0.00  0.00    +0.000 A 
ATOM      8  C   UNL     1     112.951 124.006 136.991  0.00  0.00    +0.000 A 
ENDROOT
BRANCH   4  10
ATOM      9  O   UNL     1     113.450 126.620 137.269  0.00  0.00    +0.000 OA
ATOM     10  C   UNL     1     113.209 126.023 137.784  0.00  0.00    +0.000 C 
BRANCH  10  11
ATOM     11  C   UNL     1     113.326 126.108 138.597  0.00  0.00    +0.000 C 
BRANCH  11  12
ATOM     12  C   UNL     1     113.657 126.802 138.896  0.00  0.00    +0.000 C 
BRANCH  12  13
ATOM     13  C   UNL     1     113.770 126.888 139.709  0.00  0.00    +0.000 A 
ATOM     14  C   UNL     1     114.532 126.875 140.024  0.00  0.00    +0.000 A 
ATOM     15  C   UNL     1     113.119 126.988 140.206  0.00  0.00    +0.000 A 
ATOM     16  C   UNL     1     114.644 126.961 140.836  0.00  0.00    +0.000 A 
ATOM     17  C   UNL     1     113.231 127.075 141.020  0.00  0.00    +0.000 A 
ATOM     18  C   UNL     1     113.994 127.061 141.335  0.00  0.00    +0.000 A 
ENDBRANCH  12  13
ENDBRANCH  11  12
ENDBRANCH  10  11
ENDBRANCH   4  10
BRANCH   3  19
ATOM     19  O   UNL     1     111.571 125.970 137.597  0.00  0.00    +0.000 OA
BRANCH  19  27
ATOM     20  O   UNL     1     110.933 126.209 136.342  0.00  0.00    +0.000 OA
ATOM     21  O   UNL     1     108.775 126.552 137.504  0.00  0.00    +0.000 OA
ATOM     22  O   UNL     1     110.132 126.198 138.371  0.00  0.00    +0.000 OA
ATOM     23  O   UNL     1     108.856 126.677 135.860  0.00  0.00    +0.000 OA
ATOM     24  C   UNL     1     109.494 126.437 137.116  0.00  0.00    +0.000 C 
ATOM     25  C   UNL     1     110.173 126.261 137.550  0.00  0.00    +0.000 C 
ATOM     26  C   UNL     1     109.535 126.500 136.294  0.00  0.00    +0.000 C 
ATOM     27  C   UNL     1     110.892 126.146 137.163  0.00  0.00    +0.000 C 
ATOM     28  C   UNL     1     110.254 126.385 135.907  0.00  0.00    +0.000 C 
BRANCH  28  31
ATOM     29  O   UNL     1     110.570 127.143 134.737  0.00  0.00    +0.000 OA
ATOM     30  O   UNL     1     110.060 125.814 134.612  0.00  0.00    +0.000 OA
ATOM     31  C   UNL     1     110.294 126.448 135.086  0.00  0.00    +0.000 C 
ENDBRANCH  28  31
ENDBRANCH  19  27
ENDBRANCH   3  19
TORSDOF 7
ENDMDL
MODEL 7
REMARK VINA RESULT:      -8.2     10.453     12.326
REMARK  Name = 131834457
REMARK  7 active torsions:
REMARK  status: ('A' for Active; 'I' for Inactive)
REMARK    1  A    between atoms: O_2  and  C_14
REMARK    2  A    between atoms: O_2  and  C_17
REMARK    3  A    between atoms: C_15  and  C_16
REMARK    4  A    between atoms: C_18  and  C_20
REMARK    5  A    between atoms: C_20  and  C_21
REMARK    6  A    between atoms: C_21  and  C_23
REMARK    7  A    between atoms: C_23  and  C_26
REMARK                            x       y       z     vdW  Elec       q    Type
REMARK                         _______ _______ _______ _____ _____    ______ ____
ROOT
ATOM      1  O   UNL     1     108.318 125.726 147.577  0.00  0.00    +0.000 OA
ATOM      2  O   UNL     1     106.903 123.943 149.303  0.00  0.00    +0.000 OA
ATOM      3  C   UNL     1     106.271 124.974 147.487  0.00  0.00    +0.000 A 
ATOM      4  C   UNL     1     106.960 125.385 147.294  0.00  0.00    +0.000 A 
ATOM      5  C   UNL     1     106.252 124.493 148.157  0.00  0.00    +0.000 A 
ATOM      6  C   UNL     1     107.630 125.315 147.770  0.00  0.00    +0.000 A 
ATOM      7  C   UNL     1     106.922 124.423 148.634  0.00  0.00    +0.000 A 
ATOM      8  C   UNL     1     107.610 124.834 148.440  0.00  0.00    +0.000 A 
ENDROOT
BRANCH   4  10
ATOM      9  O   UNL     1     107.078 125.529 145.877  0.00  0.00    +0.000 OA
ATOM     10  C   UNL     1     106.978 125.865 146.623  0.00  0.00    +0.000 C 
BRANCH  10  11
ATOM     11  C   UNL     1     106.897 126.683 146.701  0.00  0.00    +0.000 C 
BRANCH  11  12
ATOM     12  C   UNL     1     106.875 127.160 146.028  0.00  0.00    +0.000 C 
BRANCH  12  13
ATOM     13  C   UNL     1     106.842 127.982 146.106  0.00  0.00    +0.000 A 
ATOM     14  C   UNL     1     107.496 128.442 145.905  0.00  0.00    +0.000 A 
ATOM     15  C   UNL     1     106.154 128.342 146.385  0.00  0.00    +0.000 A 
ATOM     16  C   UNL     1     107.463 129.262 145.983  0.00  0.00    +0.000 A 
ATOM     17  C   UNL     1     106.121 129.163 146.463  0.00  0.00    +0.000 A 
ATOM     18  C   UNL     1     106.776 129.623 146.261  0.00  0.00    +0.000 A 
ENDBRANCH  12  13
ENDBRANCH  11  12
ENDBRANCH  10  11
ENDBRANCH   4  10
BRANCH   3  19
ATOM     19  O   UNL     1     105.601 125.043 147.010  0.00  0.00    +0.000 OA
BRANCH  19  27
ATOM     20  O   UNL     1     104.622 125.566 147.909  0.00  0.00    +0.000 OA
ATOM     21  O   UNL     1     103.049 123.777 147.236  0.00  0.00    +0.000 OA
ATOM     22  O   UNL     1     104.553 123.851 146.562  0.00  0.00    +0.000 OA
ATOM     23  O   UNL     1     102.594 124.897 148.359  0.00  0.00    +0.000 OA
ATOM     24  C   UNL     1     103.573 124.374 147.460  0.00  0.00    +0.000 C 
ATOM     25  C   UNL     1     104.325 124.411 147.123  0.00  0.00    +0.000 C 
ATOM     26  C   UNL     1     103.346 124.934 148.022  0.00  0.00    +0.000 C 
ATOM     27  C   UNL     1     104.850 125.007 147.348  0.00  0.00    +0.000 C 
ATOM     28  C   UNL     1     103.870 125.530 148.247  0.00  0.00    +0.000 C 
BRANCH  28  31
ATOM     29  O   UNL     1     103.675 125.905 149.612  0.00  0.00    +0.000 OA
ATOM     30  O   UNL     1     103.381 126.833 148.566  0.00  0.00    +0.000 OA
ATOM     31  C   UNL     1     103.642 126.089 148.808  0.00  0.00    +0.000 C 
ENDBRANCH  28  31
ENDBRANCH  19  27
ENDBRANCH   3  19
TORSDOF 7
ENDMDL
MODEL 8
REMARK VINA RESULT:      -8.1      2.085      3.270
REMARK  Name = 131834457
REMARK  7 active torsions:
REMARK  status: ('A' for Active; 'I' for Inactive)
REMARK    1  A    between atoms: O_2  and  C_14
REMARK    2  A    between atoms: O_2  and  C_17
REMARK    3  A    between atoms: C_15  and  C_16
REMARK    4  A    between atoms: C_18  and  C_20
REMARK    5  A    between atoms: C_20  and  C_21
REMARK    6  A    between atoms: C_21  and  C_23
REMARK    7  A    between atoms: C_23  and  C_26
REMARK                            x       y       z     vdW  Elec       q    Type
REMARK                         _______ _______ _______ _____ _____    ______ ____
ROOT
ATOM      1  O   UNL     1     114.538 126.308 135.698  0.00  0.00    +0.000 OA
ATOM      2  O   UNL     1     114.761 124.534 137.926  0.00  0.00    +0.000 OA
ATOM      3  C   UNL     1     113.508 126.295 137.622  0.00  0.00    +0.000 A 
ATOM      4  C   UNL     1     113.738 126.520 136.862  0.00  0.00    +0.000 A 
ATOM      5  C   UNL     1     113.850 125.632 137.977  0.00  0.00    +0.000 A 
ATOM      6  C   UNL     1     114.308 126.083 136.457  0.00  0.00    +0.000 A 
ATOM      7  C   UNL     1     114.420 125.195 137.571  0.00  0.00    +0.000 A 
ATOM      8  C   UNL     1     114.649 125.421 136.812  0.00  0.00    +0.000 A 
ENDROOT
BRANCH   4  10
ATOM      9  O   UNL     1     112.650 127.127 136.162  0.00  0.00    +0.000 OA
ATOM     10  C   UNL     1     113.397 127.182 136.508  0.00  0.00    +0.000 C 
BRANCH  10  11
ATOM     11  C   UNL     1     113.803 127.901 136.500  0.00  0.00    +0.000 C 
BRANCH  11  12
ATOM     12  C   UNL     1     113.476 128.555 136.118  0.00  0.00    +0.000 C 
BRANCH  12  13
ATOM     13  C   UNL     1     113.884 129.272 136.107  0.00  0.00    +0.000 A 
ATOM     14  C   UNL     1     114.334 129.480 135.447  0.00  0.00    +0.000 A 
ATOM     15  C   UNL     1     113.842 129.780 136.755  0.00  0.00    +0.000 A 
ATOM     16  C   UNL     1     114.742 130.197 135.436  0.00  0.00    +0.000 A 
ATOM     17  C   UNL     1     114.251 130.498 136.743  0.00  0.00    +0.000 A 
ATOM     18  C   UNL     1     114.701 130.706 136.084  0.00  0.00    +0.000 A 
ENDBRANCH  12  13
ENDBRANCH  11  12
ENDBRANCH  10  11
ENDBRANCH   4  10
BRANCH   3  19
ATOM     19  O   UNL     1     112.938 126.732 138.028  0.00  0.00    +0.000 OA
BRANCH  19  27
ATOM     20  O   UNL     1     113.598 127.073 139.247  0.00  0.00    +0.000 OA
ATOM     21  O   UNL     1     111.671 126.204 140.534  0.00  0.00    +0.000 OA
ATOM     22  O   UNL     1     111.653 126.152 138.886  0.00  0.00    +0.000 OA
ATOM     23  O   UNL     1     112.974 126.836 141.325  0.00  0.00    +0.000 OA
ATOM     24  C   UNL     1     112.313 126.494 140.105  0.00  0.00    +0.000 C 
ATOM     25  C   UNL     1     112.305 126.468 139.280  0.00  0.00    +0.000 C 
ATOM     26  C   UNL     1     112.965 126.810 140.501  0.00  0.00    +0.000 C 
ATOM     27  C   UNL     1     112.947 126.758 138.851  0.00  0.00    +0.000 C 
ATOM     28  C   UNL     1     113.608 127.100 140.072  0.00  0.00    +0.000 C 
BRANCH  28  31
ATOM     29  O   UNL     1     114.327 128.232 140.564  0.00  0.00    +0.000 OA
ATOM     30  O   UNL     1     114.842 126.914 140.766  0.00  0.00    +0.000 OA
ATOM     31  C   UNL     1     114.258 127.415 140.467  0.00  0.00    +0.000 C 
ENDBRANCH  28  31
ENDBRANCH  19  27
ENDBRANCH   3  19
TORSDOF 7
ENDMDL
MODEL 9
REMARK VINA RESULT:      -8.1      2.318      4.933
REMARK  Name = 131834457
REMARK  7 active torsions:
REMARK  status: ('A' for Active; 'I' for Inactive)
REMARK    1  A    between atoms: O_2  and  C_14
REMARK    2  A    between atoms: O_2  and  C_17
REMARK    3  A    between atoms: C_15  and  C_16
REMARK    4  A    between atoms: C_18  and  C_20
REMARK    5  A    between atoms: C_20  and  C_21
REMARK    6  A    between atoms: C_21  and  C_23
REMARK    7  A    between atoms: C_23  and  C_26
REMARK                            x       y       z     vdW  Elec       q    Type
REMARK                         _______ _______ _______ _____ _____    ______ ____
ROOT
ATOM      1  O   UNL     1     113.429 128.659 138.057  0.00  0.00    +0.000 OA
ATOM      2  O   UNL     1     110.867 129.430 139.057  0.00  0.00    +0.000 OA
ATOM      3  C   UNL     1     111.418 128.099 137.418  0.00  0.00    +0.000 A 
ATOM      4  C   UNL     1     112.242 128.143 137.453  0.00  0.00    +0.000 A 
ATOM      5  C   UNL     1     110.960 128.528 137.953  0.00  0.00    +0.000 A 
ATOM      6  C   UNL     1     112.607 128.615 138.022  0.00  0.00    +0.000 A 
ATOM      7  C   UNL     1     111.325 129.001 138.523  0.00  0.00    +0.000 A 
ATOM      8  C   UNL     1     112.147 129.044 138.557  0.00  0.00    +0.000 A 
ENDROOT
BRANCH   4  10
ATOM      9  O   UNL     1     112.903 128.044 136.189  0.00  0.00    +0.000 OA
ATOM     10  C   UNL     1     112.700 127.714 136.917  0.00  0.00    +0.000 C 
BRANCH  10  11
ATOM     11  C   UNL     1     112.955 126.953 137.111  0.00  0.00    +0.000 C 
BRANCH  11  12
ATOM     12  C   UNL     1     113.437 126.535 136.588  0.00  0.00    +0.000 C 
BRANCH  12  13
ATOM     13  C   UNL     1     113.674 125.765 136.772  0.00  0.00    +0.000 A 
ATOM     14  C   UNL     1     113.181 125.128 136.595  0.00  0.00    +0.000 A 
ATOM     15  C   UNL     1     114.405 125.634 137.131  0.00  0.00    +0.000 A 
ATOM     16  C   UNL     1     113.418 124.360 136.779  0.00  0.00    +0.000 A 
ATOM     17  C   UNL     1     114.642 124.865 137.315  0.00  0.00    +0.000 A 
ATOM     18  C   UNL     1     114.149 124.228 137.138  0.00  0.00    +0.000 A 
ENDBRANCH  12  13
ENDBRANCH  11  12
ENDBRANCH  10  11
ENDBRANCH   4  10
BRANCH   3  19
ATOM     19  O   UNL     1     111.054 127.627 136.849  0.00  0.00    +0.000 OA
BRANCH  19  27
ATOM     20  O   UNL     1     110.203 128.567 136.191  0.00  0.00    +0.000 OA
ATOM     21  O   UNL     1     108.305 126.992 136.396  0.00  0.00    +0.000 OA
ATOM     22  O   UNL     1     109.788 126.577 136.985  0.00  0.00    +0.000 OA
ATOM     23  O   UNL     1     108.087 128.458 135.669  0.00  0.00    +0.000 OA
ATOM     24  C   UNL     1     108.938 127.517 136.327  0.00  0.00    +0.000 C 
ATOM     25  C   UNL     1     109.680 127.310 136.622  0.00  0.00    +0.000 C 
ATOM     26  C   UNL     1     108.829 128.250 135.964  0.00  0.00    +0.000 C 
ATOM     27  C   UNL     1     110.312 127.835 136.554  0.00  0.00    +0.000 C 
ATOM     28  C   UNL     1     109.461 128.775 135.896  0.00  0.00    +0.000 C 
BRANCH  28  31
ATOM     29  O   UNL     1     109.033 130.137 135.960  0.00  0.00    +0.000 OA
ATOM     30  O   UNL     1     109.562 129.611 134.742  0.00  0.00    +0.000 OA
ATOM     31  C   UNL     1     109.352 129.507 135.533  0.00  0.00    +0.000 C 
ENDBRANCH  28  31
ENDBRANCH  19  27
ENDBRANCH   3  19
TORSDOF 7
ENDMDL
MODEL 10
REMARK VINA RESULT:      -8.1      2.232      4.006
REMARK  Name = 131834457
REMARK  7 active torsions:
REMARK  status: ('A' for Active; 'I' for Inactive)
REMARK    1  A    between atoms: O_2  and  C_14
REMARK    2  A    between atoms: O_2  and  C_17
REMARK    3  A    between atoms: C_15  and  C_16
REMARK    4  A    between atoms: C_18  and  C_20
REMARK    5  A    between atoms: C_20  and  C_21
REMARK    6  A    between atoms: C_21  and  C_23
REMARK    7  A    between atoms: C_23  and  C_26
REMARK                            x       y       z     vdW  Elec       q    Type
REMARK                         _______ _______ _______ _____ _____    ______ ____
ROOT
ATOM      1  O   UNL     1     113.904 126.899 140.783  0.00  0.00    +0.000 OA
ATOM      2  O   UNL     1     114.486 129.692 140.932  0.00  0.00    +0.000 OA
ATOM      3  C   UNL     1     113.414 128.535 139.424  0.00  0.00    +0.000 A 
ATOM      4  C   UNL     1     113.464 127.777 139.746  0.00  0.00    +0.000 A 
ATOM      5  C   UNL     1     113.755 129.174 139.820  0.00  0.00    +0.000 A 
ATOM      6  C   UNL     1     113.855 127.657 140.463  0.00  0.00    +0.000 A 
ATOM      7  C   UNL     1     114.146 129.054 140.537  0.00  0.00    +0.000 A 
ATOM      8  C   UNL     1     114.195 128.296 140.858  0.00  0.00    +0.000 A 
ENDROOT
BRANCH   4  10
ATOM      9  O   UNL     1     112.344 126.921 139.510  0.00  0.00    +0.000 OA
ATOM     10  C   UNL     1     113.123 127.138 139.350  0.00  0.00    +0.000 C 
BRANCH  10  11
ATOM     11  C   UNL     1     113.563 126.717 138.792  0.00  0.00    +0.000 C 
BRANCH  11  12
ATOM     12  C   UNL     1     113.241 126.047 138.435  0.00  0.00    +0.000 C 
BRANCH  12  13
ATOM     13  C   UNL     1     113.635 125.686 137.805  0.00  0.00    +0.000 A 
ATOM     14  C   UNL     1     113.299 125.690 137.051  0.00  0.00    +0.000 A 
ATOM     15  C   UNL     1     114.364 125.321 137.931  0.00  0.00    +0.000 A 
ATOM     16  C   UNL     1     113.693 125.330 136.423  0.00  0.00    +0.000 A 
ATOM     17  C   UNL     1     114.758 124.960 137.301  0.00  0.00    +0.000 A 
ATOM     18  C   UNL     1     114.423 124.964 136.547  0.00  0.00    +0.000 A 
ENDBRANCH  12  13
ENDBRANCH  11  12
ENDBRANCH  10  11
ENDBRANCH   4  10
BRANCH   3  19
ATOM     19  O   UNL     1     113.024 128.655 138.707  0.00  0.00    +0.000 OA
BRANCH  19  27
ATOM     20  O   UNL     1     112.033 129.621 139.060  0.00  0.00    +0.000 OA
ATOM     21  O   UNL     1     112.701 131.012 137.125  0.00  0.00    +0.000 OA
ATOM     22  O   UNL     1     113.469 129.583 137.417  0.00  0.00    +0.000 OA
ATOM     23  O   UNL     1     111.487 131.515 138.123  0.00  0.00    +0.000 OA
ATOM     24  C   UNL     1     112.478 130.549 137.770  0.00  0.00    +0.000 C 
ATOM     25  C   UNL     1     112.862 129.833 137.917  0.00  0.00    +0.000 C 
ATOM     26  C   UNL     1     111.871 130.800 138.270  0.00  0.00    +0.000 C 
ATOM     27  C   UNL     1     112.640 129.370 138.562  0.00  0.00    +0.000 C 
ATOM     28  C   UNL     1     111.648 130.336 138.915  0.00  0.00    +0.000 C 
BRANCH  28  31
ATOM     29  O   UNL     1     111.194 131.148 139.999  0.00  0.00    +0.000 OA
ATOM     30  O   UNL     1     110.282 130.279 139.326  0.00  0.00    +0.000 OA
ATOM     31  C   UNL     1     111.042 130.588 139.413  0.00  0.00    +0.000 C 
ENDBRANCH  28  31
ENDBRANCH  19  27
ENDBRANCH   3  19
TORSDOF 7
ENDMDL
