MODEL 1
REMARK VINA RESULT:      -9.0      0.000      0.000
REMARK  Name = 42607960
REMARK  2 active torsions:
REMARK  status: ('A' for Active; 'I' for Inactive)
REMARK    1  A    between atoms: O_5  and  C_21
REMARK    2  A    between atoms: C_6  and  C_10
REMARK                            x       y       z     vdW  Elec       q    Type
REMARK                         _______ _______ _______ _____ _____    ______ ____
ROOT
ATOM      1  O   UNL     1     105.589 124.492 147.824  0.00  0.00    +0.000 OA
ATOM      2  O   UNL     1     107.055 125.570 146.063  0.00  0.00    +0.000 OA
ATOM      3  O   UNL     1     108.162 125.519 146.986  0.00  0.00    +0.000 OA
ATOM      4  O   UNL     1     107.850 124.426 149.609  0.00  0.00    +0.000 OA
ATOM      5  C   UNL     1     105.251 124.693 147.060  0.00  0.00    +0.000 C 
ATOM      6  C   UNL     1     105.746 125.059 146.461  0.00  0.00    +0.000 C 
ATOM      7  C   UNL     1     106.418 124.660 147.978  0.00  0.00    +0.000 A 
ATOM      8  C   UNL     1     106.893 125.011 147.403  0.00  0.00    +0.000 A 
ATOM      9  C   UNL     1     106.572 125.219 146.633  0.00  0.00    +0.000 C 
ATOM     10  C   UNL     1     106.737 124.465 148.714  0.00  0.00    +0.000 A 
ATOM     11  C   UNL     1     107.687 125.167 147.562  0.00  0.00    +0.000 A 
ATOM     12  C   UNL     1     107.531 124.621 148.873  0.00  0.00    +0.000 A 
ATOM     13  C   UNL     1     108.006 124.973 148.297  0.00  0.00    +0.000 A 
ATOM     14  C   UNL     1     106.262 124.113 149.290  0.00  0.00    +0.000 C 
ENDROOT
BRANCH   5  15
ATOM     15  C   UNL     1     104.457 124.536 146.904  0.00  0.00    +0.000 A 
ATOM     16  C   UNL     1     104.246 123.864 146.474  0.00  0.00    +0.000 A 
ATOM     17  C   UNL     1     103.873 125.051 147.176  0.00  0.00    +0.000 A 
ATOM     18  C   UNL     1     103.451 123.707 146.317  0.00  0.00    +0.000 A 
ATOM     19  C   UNL     1     103.077 124.894 147.020  0.00  0.00    +0.000 A 
ATOM     20  C   UNL     1     102.867 124.222 146.590  0.00  0.00    +0.000 A 
BRANCH  20  21
ATOM     21  O   UNL     1     102.073 124.065 146.433  0.00  0.00    +0.000 OA
ATOM     22  C   UNL     1     101.498 124.235 147.000  0.00  0.00    +0.000 C 
ENDBRANCH  20  21
ENDBRANCH   5  15
TORSDOF 2
ENDMDL
MODEL 2
REMARK VINA RESULT:      -8.6      7.991      8.966
REMARK  Name = 42607960
REMARK  2 active torsions:
REMARK  status: ('A' for Active; 'I' for Inactive)
REMARK    1  A    between atoms: O_5  and  C_21
REMARK    2  A    between atoms: C_6  and  C_10
REMARK                            x       y       z     vdW  Elec       q    Type
REMARK                         _______ _______ _______ _____ _____    ______ ____
ROOT
ATOM      1  O   UNL     1     102.980 130.450 142.132  0.00  0.00    +0.000 OA
ATOM      2  O   UNL     1     102.753 129.234 139.923  0.00  0.00    +0.000 OA
ATOM      3  O   UNL     1     103.710 128.260 140.388  0.00  0.00    +0.000 OA
ATOM      4  O   UNL     1     104.885 128.464 142.985  0.00  0.00    +0.000 OA
ATOM      5  C   UNL     1     102.446 130.759 141.534  0.00  0.00    +0.000 C 
ATOM      6  C   UNL     1     102.367 130.349 140.784  0.00  0.00    +0.000 C 
ATOM      7  C   UNL     1     103.428 129.734 141.972  0.00  0.00    +0.000 A 
ATOM      8  C   UNL     1     103.352 129.340 141.251  0.00  0.00    +0.000 A 
ATOM      9  C   UNL     1     102.822 129.635 140.641  0.00  0.00    +0.000 C 
ATOM     10  C   UNL     1     103.939 129.443 142.550  0.00  0.00    +0.000 A 
ATOM     11  C   UNL     1     103.787 128.654 141.108  0.00  0.00    +0.000 A 
ATOM     12  C   UNL     1     104.374 128.756 142.406  0.00  0.00    +0.000 A 
ATOM     13  C   UNL     1     104.297 128.362 141.686  0.00  0.00    +0.000 A 
ATOM     14  C   UNL     1     104.015 129.837 143.271  0.00  0.00    +0.000 C 
ENDROOT
BRANCH   5  15
ATOM     15  C   UNL     1     102.012 131.446 141.680  0.00  0.00    +0.000 A 
ATOM     16  C   UNL     1     102.340 132.184 141.515  0.00  0.00    +0.000 A 
ATOM     17  C   UNL     1     101.250 131.394 141.990  0.00  0.00    +0.000 A 
ATOM     18  C   UNL     1     101.907 132.871 141.661  0.00  0.00    +0.000 A 
ATOM     19  C   UNL     1     100.815 132.080 142.136  0.00  0.00    +0.000 A 
ATOM     20  C   UNL     1     101.144 132.819 141.971  0.00  0.00    +0.000 A 
BRANCH  20  21
ATOM     21  O   UNL     1     100.710 133.505 142.117  0.00  0.00    +0.000 OA
ATOM     22  C   UNL     1     100.802 134.163 141.629  0.00  0.00    +0.000 C 
ENDBRANCH  20  21
ENDBRANCH   5  15
TORSDOF 2
ENDMDL
MODEL 3
REMARK VINA RESULT:      -8.3     11.977     12.794
REMARK  Name = 42607960
REMARK  2 active torsions:
REMARK  status: ('A' for Active; 'I' for Inactive)
REMARK    1  A    between atoms: O_5  and  C_21
REMARK    2  A    between atoms: C_6  and  C_10
REMARK                            x       y       z     vdW  Elec       q    Type
REMARK                         _______ _______ _______ _____ _____    ______ ____
ROOT
ATOM      1  O   UNL     1     112.061 125.863 136.390  0.00  0.00    +0.000 OA
ATOM      2  O   UNL     1     111.896 123.387 136.893  0.00  0.00    +0.000 OA
ATOM      3  O   UNL     1     113.325 123.354 137.084  0.00  0.00    +0.000 OA
ATOM      4  O   UNL     1     114.911 125.714 136.790  0.00  0.00    +0.000 OA
ATOM      5  C   UNL     1     111.293 125.480 136.372  0.00  0.00    +0.000 C 
ATOM      6  C   UNL     1     111.233 124.640 136.542  0.00  0.00    +0.000 C 
ATOM      7  C   UNL     1     112.761 125.401 136.578  0.00  0.00    +0.000 A 
ATOM      8  C   UNL     1     112.704 124.594 136.742  0.00  0.00    +0.000 A 
ATOM      9  C   UNL     1     111.943 124.194 136.728  0.00  0.00    +0.000 C 
ATOM     10  C   UNL     1     113.496 125.774 136.594  0.00  0.00    +0.000 A 
ATOM     11  C   UNL     1     113.382 124.161 136.921  0.00  0.00    +0.000 A 
ATOM     12  C   UNL     1     114.175 125.340 136.774  0.00  0.00    +0.000 A 
ATOM     13  C   UNL     1     114.117 124.534 136.937  0.00  0.00    +0.000 A 
ATOM     14  C   UNL     1     113.554 126.581 136.431  0.00  0.00    +0.000 C 
ENDROOT
BRANCH   5  15
ATOM     15  C   UNL     1     110.616 125.916 136.192  0.00  0.00    +0.000 A 
ATOM     16  C   UNL     1     110.200 126.299 136.792  0.00  0.00    +0.000 A 
ATOM     17  C   UNL     1     110.355 125.969 135.411  0.00  0.00    +0.000 A 
ATOM     18  C   UNL     1     109.523 126.735 136.613  0.00  0.00    +0.000 A 
ATOM     19  C   UNL     1     109.677 126.405 135.231  0.00  0.00    +0.000 A 
ATOM     20  C   UNL     1     109.262 126.788 135.832  0.00  0.00    +0.000 A 
BRANCH  20  21
ATOM     21  O   UNL     1     108.585 127.224 135.652  0.00  0.00    +0.000 OA
ATOM     22  C   UNL     1     108.583 128.043 135.748  0.00  0.00    +0.000 C 
ENDBRANCH  20  21
ENDBRANCH   5  15
TORSDOF 2
ENDMDL
MODEL 4
REMARK VINA RESULT:      -8.1     12.983     13.919
REMARK  Name = 42607960
REMARK  2 active torsions:
REMARK  status: ('A' for Active; 'I' for Inactive)
REMARK    1  A    between atoms: O_5  and  C_21
REMARK    2  A    between atoms: C_6  and  C_10
REMARK                            x       y       z     vdW  Elec       q    Type
REMARK                         _______ _______ _______ _____ _____    ______ ____
ROOT
ATOM      1  O   UNL     1     112.796 126.405 136.378  0.00  0.00    +0.000 OA
ATOM      2  O   UNL     1     114.737 125.177 137.443  0.00  0.00    +0.000 OA
ATOM      3  O   UNL     1     114.001 123.944 137.307  0.00  0.00    +0.000 OA
ATOM      4  O   UNL     1     111.391 123.901 136.142  0.00  0.00    +0.000 OA
ATOM      5  C   UNL     1     113.491 126.847 136.621  0.00  0.00    +0.000 C 
ATOM      6  C   UNL     1     114.152 126.433 136.982  0.00  0.00    +0.000 C 
ATOM      7  C   UNL     1     112.769 125.555 136.500  0.00  0.00    +0.000 A 
ATOM      8  C   UNL     1     113.403 125.157 136.848  0.00  0.00    +0.000 A 
ATOM      9  C   UNL     1     114.108 125.583 137.097  0.00  0.00    +0.000 C 
ATOM     10  C   UNL     1     112.099 125.136 136.265  0.00  0.00    +0.000 A 
ATOM     11  C   UNL     1     113.367 124.342 136.960  0.00  0.00    +0.000 A 
ATOM     12  C   UNL     1     112.063 124.320 136.378  0.00  0.00    +0.000 A 
ATOM     13  C   UNL     1     112.697 123.923 136.725  0.00  0.00    +0.000 A 
ATOM     14  C   UNL     1     111.465 125.534 135.918  0.00  0.00    +0.000 C 
ENDROOT
BRANCH   5  15
ATOM     15  C   UNL     1     113.525 127.664 136.507  0.00  0.00    +0.000 A 
ATOM     16  C   UNL     1     113.881 127.972 135.830  0.00  0.00    +0.000 A 
ATOM     17  C   UNL     1     113.203 128.172 137.071  0.00  0.00    +0.000 A 
ATOM     18  C   UNL     1     113.915 128.788 135.716  0.00  0.00    +0.000 A 
ATOM     19  C   UNL     1     113.237 128.989 136.958  0.00  0.00    +0.000 A 
ATOM     20  C   UNL     1     113.593 129.297 136.281  0.00  0.00    +0.000 A 
BRANCH  20  21
ATOM     21  O   UNL     1     113.627 130.113 136.167  0.00  0.00    +0.000 OA
ATOM     22  C   UNL     1     114.279 130.541 136.435  0.00  0.00    +0.000 C 
ENDBRANCH  20  21
ENDBRANCH   5  15
TORSDOF 2
ENDMDL
MODEL 5
REMARK VINA RESULT:      -8.1     12.981     13.996
REMARK  Name = 42607960
REMARK  2 active torsions:
REMARK  status: ('A' for Active; 'I' for Inactive)
REMARK    1  A    between atoms: O_5  and  C_21
REMARK    2  A    between atoms: C_6  and  C_10
REMARK                            x       y       z     vdW  Elec       q    Type
REMARK                         _______ _______ _______ _____ _____    ______ ____
ROOT
ATOM      1  O   UNL     1     113.496 126.617 136.651  0.00  0.00    +0.000 OA
ATOM      2  O   UNL     1     111.138 126.135 135.866  0.00  0.00    +0.000 OA
ATOM      3  O   UNL     1     111.354 124.738 136.150  0.00  0.00    +0.000 OA
ATOM      4  O   UNL     1     113.848 123.809 137.192  0.00  0.00    +0.000 OA
ATOM      5  C   UNL     1     113.003 127.265 136.377  0.00  0.00    +0.000 C 
ATOM      6  C   UNL     1     112.203 127.105 136.110  0.00  0.00    +0.000 C 
ATOM      7  C   UNL     1     113.182 125.817 136.655  0.00  0.00    +0.000 A 
ATOM      8  C   UNL     1     112.413 125.663 136.398  0.00  0.00    +0.000 A 
ATOM      9  C   UNL     1     111.905 126.299 136.120  0.00  0.00    +0.000 C 
ATOM     10  C   UNL     1     113.660 125.199 136.919  0.00  0.00    +0.000 A 
ATOM     11  C   UNL     1     112.123 124.892 136.406  0.00  0.00    +0.000 A 
ATOM     12  C   UNL     1     113.369 124.428 136.927  0.00  0.00    +0.000 A 
ATOM     13  C   UNL     1     112.600 124.274 136.671  0.00  0.00    +0.000 A 
ATOM     14  C   UNL     1     114.429 125.353 137.176  0.00  0.00    +0.000 C 
ENDROOT
BRANCH   5  15
ATOM     15  C   UNL     1     113.296 128.036 136.370  0.00  0.00    +0.000 A 
ATOM     16  C   UNL     1     113.184 128.526 137.024  0.00  0.00    +0.000 A 
ATOM     17  C   UNL     1     113.702 128.317 135.709  0.00  0.00    +0.000 A 
ATOM     18  C   UNL     1     113.477 129.297 137.017  0.00  0.00    +0.000 A 
ATOM     19  C   UNL     1     113.996 129.088 135.702  0.00  0.00    +0.000 A 
ATOM     20  C   UNL     1     113.883 129.578 136.356  0.00  0.00    +0.000 A 
BRANCH  20  21
ATOM     21  O   UNL     1     114.177 130.349 136.349  0.00  0.00    +0.000 OA
ATOM     22  C   UNL     1     114.925 130.504 136.040  0.00  0.00    +0.000 C 
ENDBRANCH  20  21
ENDBRANCH   5  15
TORSDOF 2
ENDMDL
MODEL 6
REMARK VINA RESULT:      -8.1      1.250      2.519
REMARK  Name = 42607960
REMARK  2 active torsions:
REMARK  status: ('A' for Active; 'I' for Inactive)
REMARK    1  A    between atoms: O_5  and  C_21
REMARK    2  A    between atoms: C_6  and  C_10
REMARK                            x       y       z     vdW  Elec       q    Type
REMARK                         _______ _______ _______ _____ _____    ______ ____
ROOT
ATOM      1  O   UNL     1     104.351 124.357 146.219  0.00  0.00    +0.000 OA
ATOM      2  O   UNL     1     104.803 124.615 148.697  0.00  0.00    +0.000 OA
ATOM      3  O   UNL     1     106.103 125.154 148.380  0.00  0.00    +0.000 OA
ATOM      4  O   UNL     1     106.963 125.442 145.670  0.00  0.00    +0.000 OA
ATOM      5  C   UNL     1     103.749 124.119 146.784  0.00  0.00    +0.000 C 
ATOM      6  C   UNL     1     103.900 124.205 147.625  0.00  0.00    +0.000 C 
ATOM      7  C   UNL     1     105.096 124.679 146.503  0.00  0.00    +0.000 A 
ATOM      8  C   UNL     1     105.240 124.761 147.311  0.00  0.00    +0.000 A 
ATOM      9  C   UNL     1     104.650 124.528 147.891  0.00  0.00    +0.000 C 
ATOM     10  C   UNL     1     105.670 124.905 145.956  0.00  0.00    +0.000 A 
ATOM     11  C   UNL     1     105.959 125.071 147.572  0.00  0.00    +0.000 A 
ATOM     12  C   UNL     1     106.388 125.215 146.217  0.00  0.00    +0.000 A 
ATOM     13  C   UNL     1     106.533 125.298 147.025  0.00  0.00    +0.000 A 
ATOM     14  C   UNL     1     105.526 124.823 145.148  0.00  0.00    +0.000 C 
ENDROOT
BRANCH   5  15
ATOM     15  C   UNL     1     103.032 123.810 146.520  0.00  0.00    +0.000 A 
ATOM     16  C   UNL     1     102.343 124.259 146.575  0.00  0.00    +0.000 A 
ATOM     17  C   UNL     1     103.003 123.049 146.200  0.00  0.00    +0.000 A 
ATOM     18  C   UNL     1     101.625 123.950 146.311  0.00  0.00    +0.000 A 
ATOM     19  C   UNL     1     102.285 122.739 145.936  0.00  0.00    +0.000 A 
ATOM     20  C   UNL     1     101.596 123.190 145.992  0.00  0.00    +0.000 A 
BRANCH  20  21
ATOM     21  O   UNL     1     100.878 122.880 145.728  0.00  0.00    +0.000 OA
ATOM     22  C   UNL     1     100.757 122.746 144.924  0.00  0.00    +0.000 C 
ENDBRANCH  20  21
ENDBRANCH   5  15
TORSDOF 2
ENDMDL
MODEL 7
REMARK VINA RESULT:      -8.0     11.996     13.240
REMARK  Name = 42607960
REMARK  2 active torsions:
REMARK  status: ('A' for Active; 'I' for Inactive)
REMARK    1  A    between atoms: O_5  and  C_21
REMARK    2  A    between atoms: C_6  and  C_10
REMARK                            x       y       z     vdW  Elec       q    Type
REMARK                         _______ _______ _______ _____ _____    ______ ____
ROOT
ATOM      1  O   UNL     1     110.618 127.236 135.680  0.00  0.00    +0.000 OA
ATOM      2  O   UNL     1     108.166 127.341 136.302  0.00  0.00    +0.000 OA
ATOM      3  O   UNL     1     108.116 128.686 135.783  0.00  0.00    +0.000 OA
ATOM      4  O   UNL     1     110.435 129.926 134.664  0.00  0.00    +0.000 OA
ATOM      5  C   UNL     1     110.248 126.555 136.050  0.00  0.00    +0.000 C 
ATOM      6  C   UNL     1     109.416 126.588 136.262  0.00  0.00    +0.000 C 
ATOM      7  C   UNL     1     110.151 127.942 135.527  0.00  0.00    +0.000 A 
ATOM      8  C   UNL     1     109.352 127.973 135.731  0.00  0.00    +0.000 A 
ATOM      9  C   UNL     1     108.965 127.301 136.102  0.00  0.00    +0.000 C 
ATOM     10  C   UNL     1     110.512 128.592 135.171  0.00  0.00    +0.000 A 
ATOM     11  C   UNL     1     108.914 128.655 135.579  0.00  0.00    +0.000 A 
ATOM     12  C   UNL     1     110.073 129.274 135.020  0.00  0.00    +0.000 A 
ATOM     13  C   UNL     1     109.275 129.306 135.224  0.00  0.00    +0.000 A 
ATOM     14  C   UNL     1     111.311 128.561 134.967  0.00  0.00    +0.000 C 
ENDROOT
BRANCH   5  15
ATOM     15  C   UNL     1     110.688 125.874 136.201  0.00  0.00    +0.000 A 
ATOM     16  C   UNL     1     111.021 125.753 136.945  0.00  0.00    +0.000 A 
ATOM     17  C   UNL     1     110.796 125.313 135.606  0.00  0.00    +0.000 A 
ATOM     18  C   UNL     1     111.461 125.072 137.096  0.00  0.00    +0.000 A 
ATOM     19  C   UNL     1     111.236 124.631 135.756  0.00  0.00    +0.000 A 
ATOM     20  C   UNL     1     111.569 124.511 136.501  0.00  0.00    +0.000 A 
BRANCH  20  21
ATOM     21  O   UNL     1     112.009 123.830 136.652  0.00  0.00    +0.000 OA
ATOM     22  C   UNL     1     112.813 123.888 136.827  0.00  0.00    +0.000 C 
ENDBRANCH  20  21
ENDBRANCH   5  15
TORSDOF 2
ENDMDL
MODEL 8
REMARK VINA RESULT:      -8.0     11.052     12.418
REMARK  Name = 42607960
REMARK  2 active torsions:
REMARK  status: ('A' for Active; 'I' for Inactive)
REMARK    1  A    between atoms: O_5  and  C_21
REMARK    2  A    between atoms: C_6  and  C_10
REMARK                            x       y       z     vdW  Elec       q    Type
REMARK                         _______ _______ _______ _____ _____    ______ ____
ROOT
ATOM      1  O   UNL     1     113.540 126.070 138.318  0.00  0.00    +0.000 OA
ATOM      2  O   UNL     1     111.090 125.437 138.408  0.00  0.00    +0.000 OA
ATOM      3  O   UNL     1     111.317 124.501 137.334  0.00  0.00    +0.000 OA
ATOM      4  O   UNL     1     113.909 124.180 136.175  0.00  0.00    +0.000 OA
ATOM      5  C   UNL     1     113.027 126.454 138.890  0.00  0.00    +0.000 C 
ATOM      6  C   UNL     1     112.195 126.241 138.924  0.00  0.00    +0.000 C 
ATOM      7  C   UNL     1     113.215 125.479 137.786  0.00  0.00    +0.000 A 
ATOM      8  C   UNL     1     112.416 125.274 137.818  0.00  0.00    +0.000 A 
ATOM      9  C   UNL     1     111.888 125.648 138.384  0.00  0.00    +0.000 C 
ATOM     10  C   UNL     1     113.713 125.114 137.239  0.00  0.00    +0.000 A 
ATOM     11  C   UNL     1     112.115 124.706 137.302  0.00  0.00    +0.000 A 
ATOM     12  C   UNL     1     113.411 124.545 136.723  0.00  0.00    +0.000 A 
ATOM     13  C   UNL     1     112.613 124.341 136.755  0.00  0.00    +0.000 A 
ATOM     14  C   UNL     1     114.511 125.319 137.207  0.00  0.00    +0.000 C 
ENDROOT
BRANCH   5  15
ATOM     15  C   UNL     1     113.331 127.022 139.405  0.00  0.00    +0.000 A 
ATOM     16  C   UNL     1     113.737 126.790 140.084  0.00  0.00    +0.000 A 
ATOM     17  C   UNL     1     113.228 127.824 139.241  0.00  0.00    +0.000 A 
ATOM     18  C   UNL     1     114.041 127.359 140.598  0.00  0.00    +0.000 A 
ATOM     19  C   UNL     1     113.531 128.394 139.755  0.00  0.00    +0.000 A 
ATOM     20  C   UNL     1     113.938 128.161 140.434  0.00  0.00    +0.000 A 
BRANCH  20  21
ATOM     21  O   UNL     1     114.242 128.730 140.949  0.00  0.00    +0.000 OA
ATOM     22  C   UNL     1     114.422 129.485 140.670  0.00  0.00    +0.000 C 
ENDBRANCH  20  21
ENDBRANCH   5  15
TORSDOF 2
ENDMDL
MODEL 9
REMARK VINA RESULT:      -7.9      1.008      4.580
REMARK  Name = 42607960
REMARK  2 active torsions:
REMARK  status: ('A' for Active; 'I' for Inactive)
REMARK    1  A    between atoms: O_5  and  C_21
REMARK    2  A    between atoms: C_6  and  C_10
REMARK                            x       y       z     vdW  Elec       q    Type
REMARK                         _______ _______ _______ _____ _____    ______ ____
ROOT
ATOM      1  O   UNL     1     104.219 124.171 146.651  0.00  0.00    +0.000 OA
ATOM      2  O   UNL     1     102.670 125.651 148.000  0.00  0.00    +0.000 OA
ATOM      3  O   UNL     1     101.547 124.909 147.481  0.00  0.00    +0.000 OA
ATOM      4  O   UNL     1     101.924 122.740 145.660  0.00  0.00    +0.000 OA
ATOM      5  C   UNL     1     104.552 124.795 147.138  0.00  0.00    +0.000 C 
ATOM      6  C   UNL     1     104.029 125.299 147.597  0.00  0.00    +0.000 C 
ATOM      7  C   UNL     1     103.367 124.059 146.629  0.00  0.00    +0.000 A 
ATOM      8  C   UNL     1     102.865 124.543 147.070  0.00  0.00    +0.000 A 
ATOM      9  C   UNL     1     103.180 125.172 147.563  0.00  0.00    +0.000 C 
ATOM     10  C   UNL     1     103.054 123.458 146.159  0.00  0.00    +0.000 A 
ATOM     11  C   UNL     1     102.049 124.425 147.040  0.00  0.00    +0.000 A 
ATOM     12  C   UNL     1     102.238 123.341 146.130  0.00  0.00    +0.000 A 
ATOM     13  C   UNL     1     101.735 123.825 146.571  0.00  0.00    +0.000 A 
ATOM     14  C   UNL     1     103.556 122.974 145.718  0.00  0.00    +0.000 C 
ENDROOT
BRANCH   5  15
ATOM     15  C   UNL     1     105.368 124.911 147.165  0.00  0.00    +0.000 A 
ATOM     16  C   UNL     1     105.750 125.305 146.550  0.00  0.00    +0.000 A 
ATOM     17  C   UNL     1     105.803 124.631 147.808  0.00  0.00    +0.000 A 
ATOM     18  C   UNL     1     106.567 125.420 146.577  0.00  0.00    +0.000 A 
ATOM     19  C   UNL     1     106.620 124.746 147.836  0.00  0.00    +0.000 A 
ATOM     20  C   UNL     1     107.001 125.140 147.220  0.00  0.00    +0.000 A 
BRANCH  20  21
ATOM     21  O   UNL     1     107.818 125.256 147.247  0.00  0.00    +0.000 OA
ATOM     22  C   UNL     1     108.236 125.085 147.937  0.00  0.00    +0.000 C 
ENDBRANCH  20  21
ENDBRANCH   5  15
TORSDOF 2
ENDMDL
MODEL 10
REMARK VINA RESULT:      -7.8     10.058     10.662
REMARK  Name = 42607960
REMARK  2 active torsions:
REMARK  status: ('A' for Active; 'I' for Inactive)
REMARK    1  A    between atoms: O_5  and  C_21
REMARK    2  A    between atoms: C_6  and  C_10
REMARK                            x       y       z     vdW  Elec       q    Type
REMARK                         _______ _______ _______ _____ _____    ______ ____
ROOT
ATOM      1  O   UNL     1     112.258 132.492 146.367  0.00  0.00    +0.000 OA
ATOM      2  O   UNL     1     110.160 133.777 146.967  0.00  0.00    +0.000 OA
ATOM      3  O   UNL     1     110.588 133.788 148.344  0.00  0.00    +0.000 OA
ATOM      4  O   UNL     1     113.041 132.556 149.139  0.00  0.00    +0.000 OA
ATOM      5  C   UNL     1     111.697 132.695 145.749  0.00  0.00    +0.000 C 
ATOM      6  C   UNL     1     110.984 133.130 145.949  0.00  0.00    +0.000 C 
ATOM      7  C   UNL     1     112.098 132.729 147.178  0.00  0.00    +0.000 A 
ATOM      8  C   UNL     1     111.414 133.147 147.371  0.00  0.00    +0.000 A 
ATOM      9  C   UNL     1     110.842 133.359 146.765  0.00  0.00    +0.000 C 
ATOM     10  C   UNL     1     112.641 132.531 147.768  0.00  0.00    +0.000 A 
ATOM     11  C   UNL     1     111.272 133.369 148.152  0.00  0.00    +0.000 A 
ATOM     12  C   UNL     1     112.498 132.753 148.549  0.00  0.00    +0.000 A 
ATOM     13  C   UNL     1     111.814 133.172 148.741  0.00  0.00    +0.000 A 
ATOM     14  C   UNL     1     113.325 132.113 147.575  0.00  0.00    +0.000 C 
ENDROOT
BRANCH   5  15
ATOM     15  C   UNL     1     111.841 132.472 144.968  0.00  0.00    +0.000 A 
ATOM     16  C   UNL     1     112.330 132.933 144.490  0.00  0.00    +0.000 A 
ATOM     17  C   UNL     1     111.497 131.786 144.664  0.00  0.00    +0.000 A 
ATOM     18  C   UNL     1     112.474 132.710 143.709  0.00  0.00    +0.000 A 
ATOM     19  C   UNL     1     111.641 131.562 143.883  0.00  0.00    +0.000 A 
ATOM     20  C   UNL     1     112.130 132.025 143.406  0.00  0.00    +0.000 A 
BRANCH  20  21
ATOM     21  O   UNL     1     112.275 131.802 142.625  0.00  0.00    +0.000 OA
ATOM     22  C   UNL     1     112.508 131.030 142.452  0.00  0.00    +0.000 C 
ENDBRANCH  20  21
ENDBRANCH   5  15
TORSDOF 2
ENDMDL
