MODEL 1
REMARK VINA RESULT:      -9.7      0.000      0.000
REMARK  Name = 44257631
REMARK  3 active torsions:
REMARK  status: ('A' for Active; 'I' for Inactive)
REMARK    1  A    between atoms: O_2  and  C_12
REMARK    2  A    between atoms: O_2  and  C_14
REMARK    3  A    between atoms: C_21  and  C_23
REMARK                            x       y       z     vdW  Elec       q    Type
REMARK                         _______ _______ _______ _____ _____    ______ ____
ROOT
ATOM      1  O   UNL     1     112.181 125.761 136.124  0.00  0.00    +0.000 OA
ATOM      2  O   UNL     1     109.642 125.643 134.703  0.00  0.00    +0.000 OA
ATOM      3  O   UNL     1     112.047 128.231 136.195  0.00  0.00    +0.000 OA
ATOM      4  C   UNL     1     110.823 127.387 135.464  0.00  0.00    +0.000 A 
ATOM      5  C   UNL     1     111.490 126.971 135.811  0.00  0.00    +0.000 A 
ATOM      6  C   UNL     1     111.535 126.148 135.787  0.00  0.00    +0.000 A 
ATOM      7  C   UNL     1     110.195 126.940 135.088  0.00  0.00    +0.000 A 
ATOM      8  C   UNL     1     112.091 127.408 136.172  0.00  0.00    +0.000 A 
ATOM      9  C   UNL     1     110.242 126.081 135.063  0.00  0.00    +0.000 A 
ATOM     10  C   UNL     1     110.916 125.683 135.415  0.00  0.00    +0.000 A 
ATOM     11  C   UNL     1     112.782 126.196 136.485  0.00  0.00    +0.000 A 
ATOM     12  C   UNL     1     112.737 127.019 136.508  0.00  0.00    +0.000 A 
ENDROOT
BRANCH  11  13
ATOM     13  C   UNL     1     113.428 125.809 136.822  0.00  0.00    +0.000 A 
ATOM     14  C   UNL     1     113.988 125.443 136.339  0.00  0.00    +0.000 A 
ATOM     15  C   UNL     1     113.513 125.787 137.642  0.00  0.00    +0.000 A 
ATOM     16  C   UNL     1     114.634 125.056 136.676  0.00  0.00    +0.000 A 
ATOM     17  C   UNL     1     114.158 125.401 137.980  0.00  0.00    +0.000 A 
ATOM     18  C   UNL     1     114.719 125.035 137.497  0.00  0.00    +0.000 A 
ENDBRANCH  11  13
BRANCH   4  19
ATOM     19  O   UNL     1     110.786 128.211 135.492  0.00  0.00    +0.000 OA
BRANCH  19  27
ATOM     20  O   UNL     1     109.569 128.301 136.233  0.00  0.00    +0.000 OA
ATOM     21  O   UNL     1     108.911 130.289 134.914  0.00  0.00    +0.000 OA
ATOM     22  O   UNL     1     110.349 129.536 134.612  0.00  0.00    +0.000 OA
ATOM     23  O   UNL     1     107.913 129.716 136.096  0.00  0.00    +0.000 OA
ATOM     24  C   UNL     1     109.131 129.626 135.354  0.00  0.00    +0.000 C 
ATOM     25  C   UNL     1     109.849 129.250 135.203  0.00  0.00    +0.000 C 
ATOM     26  C   UNL     1     108.631 129.340 135.944  0.00  0.00    +0.000 C 
ATOM     27  C   UNL     1     110.068 128.587 135.643  0.00  0.00    +0.000 C 
ATOM     28  C   UNL     1     108.850 128.677 136.384  0.00  0.00    +0.000 C 
ENDBRANCH  19  27
ENDBRANCH   4  19
TORSDOF 3
ENDMDL
MODEL 2
REMARK VINA RESULT:      -9.3      2.315      3.044
REMARK  Name = 44257631
REMARK  3 active torsions:
REMARK  status: ('A' for Active; 'I' for Inactive)
REMARK    1  A    between atoms: O_2  and  C_12
REMARK    2  A    between atoms: O_2  and  C_14
REMARK    3  A    between atoms: C_21  and  C_23
REMARK                            x       y       z     vdW  Elec       q    Type
REMARK                         _______ _______ _______ _____ _____    ______ ____
ROOT
ATOM      1  O   UNL     1     113.870 127.205 136.292  0.00  0.00    +0.000 OA
ATOM      2  O   UNL     1     114.270 129.775 134.983  0.00  0.00    +0.000 OA
ATOM      3  O   UNL     1     112.459 128.283 138.016  0.00  0.00    +0.000 OA
ATOM      4  C   UNL     1     113.107 129.222 136.815  0.00  0.00    +0.000 A 
ATOM      5  C   UNL     1     113.260 128.377 136.836  0.00  0.00    +0.000 A 
ATOM      6  C   UNL     1     113.731 128.017 136.261  0.00  0.00    +0.000 A 
ATOM      7  C   UNL     1     113.448 129.699 136.188  0.00  0.00    +0.000 A 
ATOM      8  C   UNL     1     112.929 127.923 137.441  0.00  0.00    +0.000 A 
ATOM      9  C   UNL     1     113.938 129.324 135.589  0.00  0.00    +0.000 A 
ATOM     10  C   UNL     1     114.080 128.478 135.626  0.00  0.00    +0.000 A 
ATOM     11  C   UNL     1     113.540 126.752 136.897  0.00  0.00    +0.000 A 
ATOM     12  C   UNL     1     113.069 127.111 137.471  0.00  0.00    +0.000 A 
ENDROOT
BRANCH  11  13
ATOM     13  C   UNL     1     113.680 125.939 136.928  0.00  0.00    +0.000 A 
ATOM     14  C   UNL     1     113.151 125.415 136.573  0.00  0.00    +0.000 A 
ATOM     15  C   UNL     1     114.349 125.651 137.315  0.00  0.00    +0.000 A 
ATOM     16  C   UNL     1     113.291 124.603 136.604  0.00  0.00    +0.000 A 
ATOM     17  C   UNL     1     114.489 124.838 137.346  0.00  0.00    +0.000 A 
ATOM     18  C   UNL     1     113.960 124.314 136.990  0.00  0.00    +0.000 A 
ENDBRANCH  11  13
BRANCH   4  19
ATOM     19  O   UNL     1     112.635 129.573 137.394  0.00  0.00    +0.000 OA
BRANCH  19  27
ATOM     20  O   UNL     1     111.544 129.965 136.560  0.00  0.00    +0.000 OA
ATOM     21  O   UNL     1     111.385 132.115 137.778  0.00  0.00    +0.000 OA
ATOM     22  O   UNL     1     112.530 131.005 138.206  0.00  0.00    +0.000 OA
ATOM     23  O   UNL     1     110.346 131.790 136.538  0.00  0.00    +0.000 OA
ATOM     24  C   UNL     1     111.438 131.398 137.372  0.00  0.00    +0.000 C 
ATOM     25  C   UNL     1     112.010 130.844 137.586  0.00  0.00    +0.000 C 
ATOM     26  C   UNL     1     110.919 131.236 136.752  0.00  0.00    +0.000 C 
ATOM     27  C   UNL     1     112.063 130.127 137.180  0.00  0.00    +0.000 C 
ATOM     28  C   UNL     1     110.971 130.520 136.346  0.00  0.00    +0.000 C 
ENDBRANCH  19  27
ENDBRANCH   4  19
TORSDOF 3
ENDMDL
MODEL 3
REMARK VINA RESULT:      -9.2      3.718      5.088
REMARK  Name = 44257631
REMARK  3 active torsions:
REMARK  status: ('A' for Active; 'I' for Inactive)
REMARK    1  A    between atoms: O_2  and  C_12
REMARK    2  A    between atoms: O_2  and  C_14
REMARK    3  A    between atoms: C_21  and  C_23
REMARK                            x       y       z     vdW  Elec       q    Type
REMARK                         _______ _______ _______ _____ _____    ______ ____
ROOT
ATOM      1  O   UNL     1     113.225 127.121 137.715  0.00  0.00    +0.000 OA
ATOM      2  O   UNL     1     112.528 129.940 137.505  0.00  0.00    +0.000 OA
ATOM      3  O   UNL     1     113.617 127.381 140.145  0.00  0.00    +0.000 OA
ATOM      4  C   UNL     1     113.144 128.704 139.267  0.00  0.00    +0.000 A 
ATOM      5  C   UNL     1     113.250 127.944 138.882  0.00  0.00    +0.000 A 
ATOM      6  C   UNL     1     113.120 127.857 138.072  0.00  0.00    +0.000 A 
ATOM      7  C   UNL     1     112.899 129.384 138.803  0.00  0.00    +0.000 A 
ATOM      8  C   UNL     1     113.486 127.295 139.335  0.00  0.00    +0.000 A 
ATOM      9  C   UNL     1     112.763 129.293 137.959  0.00  0.00    +0.000 A 
ATOM     10  C   UNL     1     112.874 128.525 137.591  0.00  0.00    +0.000 A 
ATOM     11  C   UNL     1     113.461 126.472 138.166  0.00  0.00    +0.000 A 
ATOM     12  C   UNL     1     113.591 126.559 138.976  0.00  0.00    +0.000 A 
ENDROOT
BRANCH  11  13
ATOM     13  C   UNL     1     113.566 125.736 137.808  0.00  0.00    +0.000 A 
ATOM     14  C   UNL     1     112.911 125.278 137.605  0.00  0.00    +0.000 A 
ATOM     15  C   UNL     1     114.327 125.458 137.654  0.00  0.00    +0.000 A 
ATOM     16  C   UNL     1     113.017 124.542 137.247  0.00  0.00    +0.000 A 
ATOM     17  C   UNL     1     114.434 124.723 137.296  0.00  0.00    +0.000 A 
ATOM     18  C   UNL     1     113.778 124.265 137.093  0.00  0.00    +0.000 A 
ENDBRANCH  11  13
BRANCH   4  19
ATOM     19  O   UNL     1     113.277 128.782 140.078  0.00  0.00    +0.000 OA
BRANCH  19  27
ATOM     20  O   UNL     1     114.410 129.652 140.054  0.00  0.00    +0.000 OA
ATOM     21  O   UNL     1     113.414 131.001 141.875  0.00  0.00    +0.000 OA
ATOM     22  O   UNL     1     112.612 129.681 141.291  0.00  0.00    +0.000 OA
ATOM     23  O   UNL     1     114.879 131.421 141.243  0.00  0.00    +0.000 OA
ATOM     24  C   UNL     1     113.745 130.551 141.268  0.00  0.00    +0.000 C 
ATOM     25  C   UNL     1     113.345 129.892 140.976  0.00  0.00    +0.000 C 
ATOM     26  C   UNL     1     114.478 130.761 140.953  0.00  0.00    +0.000 C 
ATOM     27  C   UNL     1     113.677 129.442 140.369  0.00  0.00    +0.000 C 
ATOM     28  C   UNL     1     114.811 130.312 140.346  0.00  0.00    +0.000 C 
ENDBRANCH  19  27
ENDBRANCH   4  19
TORSDOF 3
ENDMDL
MODEL 4
REMARK VINA RESULT:      -9.2      1.104      1.947
REMARK  Name = 44257631
REMARK  3 active torsions:
REMARK  status: ('A' for Active; 'I' for Inactive)
REMARK    1  A    between atoms: O_2  and  C_12
REMARK    2  A    between atoms: O_2  and  C_14
REMARK    3  A    between atoms: C_21  and  C_23
REMARK                            x       y       z     vdW  Elec       q    Type
REMARK                         _______ _______ _______ _____ _____    ______ ____
ROOT
ATOM      1  O   UNL     1     113.547 127.401 136.594  0.00  0.00    +0.000 OA
ATOM      2  O   UNL     1     113.032 130.216 136.054  0.00  0.00    +0.000 OA
ATOM      3  O   UNL     1     111.183 126.857 136.101  0.00  0.00    +0.000 OA
ATOM      4  C   UNL     1     111.678 128.434 135.989  0.00  0.00    +0.000 A 
ATOM      5  C   UNL     1     112.234 127.820 136.214  0.00  0.00    +0.000 A 
ATOM      6  C   UNL     1     113.022 128.001 136.379  0.00  0.00    +0.000 A 
ATOM      7  C   UNL     1     111.945 129.248 135.934  0.00  0.00    +0.000 A 
ATOM      8  C   UNL     1     111.971 127.039 136.266  0.00  0.00    +0.000 A 
ATOM      9  C   UNL     1     112.766 129.437 136.105  0.00  0.00    +0.000 A 
ATOM     10  C   UNL     1     113.308 128.809 136.329  0.00  0.00    +0.000 A 
ATOM     11  C   UNL     1     113.284 126.622 136.646  0.00  0.00    +0.000 A 
ATOM     12  C   UNL     1     112.496 126.440 136.481  0.00  0.00    +0.000 A 
ENDROOT
BRANCH  11  13
ATOM     13  C   UNL     1     113.809 126.022 136.861  0.00  0.00    +0.000 A 
ATOM     14  C   UNL     1     114.253 125.635 136.285  0.00  0.00    +0.000 A 
ATOM     15  C   UNL     1     113.888 125.810 137.654  0.00  0.00    +0.000 A 
ATOM     16  C   UNL     1     114.777 125.036 136.500  0.00  0.00    +0.000 A 
ATOM     17  C   UNL     1     114.412 125.211 137.871  0.00  0.00    +0.000 A 
ATOM     18  C   UNL     1     114.857 124.824 137.293  0.00  0.00    +0.000 A 
ENDBRANCH  11  13
BRANCH   4  19
ATOM     19  O   UNL     1     110.892 128.244 135.826  0.00  0.00    +0.000 OA
BRANCH  19  27
ATOM     20  O   UNL     1     110.293 128.902 136.943  0.00  0.00    +0.000 OA
ATOM     21  O   UNL     1     108.432 129.663 135.499  0.00  0.00    +0.000 OA
ATOM     22  O   UNL     1     109.652 128.751 134.862  0.00  0.00    +0.000 OA
ATOM     23  O   UNL     1     108.454 130.067 137.099  0.00  0.00    +0.000 OA
ATOM     24  C   UNL     1     109.053 129.409 135.980  0.00  0.00    +0.000 C 
ATOM     25  C   UNL     1     109.662 128.953 135.663  0.00  0.00    +0.000 C 
ATOM     26  C   UNL     1     109.063 129.611 136.780  0.00  0.00    +0.000 C 
ATOM     27  C   UNL     1     110.282 128.700 136.144  0.00  0.00    +0.000 C 
ATOM     28  C   UNL     1     109.683 129.358 137.262  0.00  0.00    +0.000 C 
ENDBRANCH  19  27
ENDBRANCH   4  19
TORSDOF 3
ENDMDL
MODEL 5
REMARK VINA RESULT:      -9.1      3.700      4.781
REMARK  Name = 44257631
REMARK  3 active torsions:
REMARK  status: ('A' for Active; 'I' for Inactive)
REMARK    1  A    between atoms: O_2  and  C_12
REMARK    2  A    between atoms: O_2  and  C_14
REMARK    3  A    between atoms: C_21  and  C_23
REMARK                            x       y       z     vdW  Elec       q    Type
REMARK                         _______ _______ _______ _____ _____    ______ ____
ROOT
ATOM      1  O   UNL     1     113.738 126.409 138.819  0.00  0.00    +0.000 OA
ATOM      2  O   UNL     1     113.420 127.742 141.389  0.00  0.00    +0.000 OA
ATOM      3  O   UNL     1     111.402 125.598 138.931  0.00  0.00    +0.000 OA
ATOM      4  C   UNL     1     111.986 126.521 140.177  0.00  0.00    +0.000 A 
ATOM      5  C   UNL     1     112.488 126.330 139.506  0.00  0.00    +0.000 A 
ATOM      6  C   UNL     1     113.266 126.600 139.469  0.00  0.00    +0.000 A 
ATOM      7  C   UNL     1     112.299 126.999 140.817  0.00  0.00    +0.000 A 
ATOM      8  C   UNL     1     112.181 125.869 138.894  0.00  0.00    +0.000 A 
ATOM      9  C   UNL     1     113.111 127.281 140.778  0.00  0.00    +0.000 A 
ATOM     10  C   UNL     1     113.597 127.080 140.099  0.00  0.00    +0.000 A 
ATOM     11  C   UNL     1     113.431 125.949 138.207  0.00  0.00    +0.000 A 
ATOM     12  C   UNL     1     112.653 125.679 138.245  0.00  0.00    +0.000 A 
ENDROOT
BRANCH  11  13
ATOM     13  C   UNL     1     113.903 125.759 137.557  0.00  0.00    +0.000 A 
ATOM     14  C   UNL     1     114.399 125.101 137.585  0.00  0.00    +0.000 A 
ATOM     15  C   UNL     1     113.878 126.227 136.879  0.00  0.00    +0.000 A 
ATOM     16  C   UNL     1     114.870 124.910 136.936  0.00  0.00    +0.000 A 
ATOM     17  C   UNL     1     114.349 126.038 136.229  0.00  0.00    +0.000 A 
ATOM     18  C   UNL     1     114.845 125.379 136.257  0.00  0.00    +0.000 A 
ENDBRANCH  11  13
BRANCH   4  19
ATOM     19  O   UNL     1     111.209 126.246 140.206  0.00  0.00    +0.000 OA
BRANCH  19  27
ATOM     20  O   UNL     1     110.517 127.495 140.185  0.00  0.00    +0.000 OA
ATOM     21  O   UNL     1     108.990 126.681 141.955  0.00  0.00    +0.000 OA
ATOM     22  O   UNL     1     110.191 125.702 141.386  0.00  0.00    +0.000 OA
ATOM     23  O   UNL     1     108.807 128.203 141.343  0.00  0.00    +0.000 OA
ATOM     24  C   UNL     1     109.499 126.952 141.365  0.00  0.00    +0.000 C 
ATOM     25  C   UNL     1     110.099 126.464 141.081  0.00  0.00    +0.000 C 
ATOM     26  C   UNL     1     109.408 127.713 141.059  0.00  0.00    +0.000 C 
ATOM     27  C   UNL     1     110.609 126.735 140.491  0.00  0.00    +0.000 C 
ATOM     28  C   UNL     1     109.916 127.985 140.469  0.00  0.00    +0.000 C 
ENDBRANCH  19  27
ENDBRANCH   4  19
TORSDOF 3
ENDMDL
MODEL 6
REMARK VINA RESULT:      -9.0     10.264     11.276
REMARK  Name = 44257631
REMARK  3 active torsions:
REMARK  status: ('A' for Active; 'I' for Inactive)
REMARK    1  A    between atoms: O_2  and  C_12
REMARK    2  A    between atoms: O_2  and  C_14
REMARK    3  A    between atoms: C_21  and  C_23
REMARK                            x       y       z     vdW  Elec       q    Type
REMARK                         _______ _______ _______ _____ _____    ______ ____
ROOT
ATOM      1  O   UNL     1     106.673 126.205 147.528  0.00  0.00    +0.000 OA
ATOM      2  O   UNL     1     105.901 128.650 146.147  0.00  0.00    +0.000 OA
ATOM      3  O   UNL     1     106.588 124.953 145.395  0.00  0.00    +0.000 OA
ATOM      4  C   UNL     1     106.230 126.570 145.385  0.00  0.00    +0.000 A 
ATOM      5  C   UNL     1     106.440 126.177 146.119  0.00  0.00    +0.000 A 
ATOM      6  C   UNL     1     106.469 126.595 146.830  0.00  0.00    +0.000 A 
ATOM      7  C   UNL     1     106.046 127.409 145.391  0.00  0.00    +0.000 A 
ATOM      8  C   UNL     1     106.616 125.370 146.106  0.00  0.00    +0.000 A 
ATOM      9  C   UNL     1     106.076 127.844 146.132  0.00  0.00    +0.000 A 
ATOM     10  C   UNL     1     106.289 127.434 146.856  0.00  0.00    +0.000 A 
ATOM     11  C   UNL     1     106.848 125.400 147.516  0.00  0.00    +0.000 A 
ATOM     12  C   UNL     1     106.820 124.982 146.805  0.00  0.00    +0.000 A 
ENDROOT
BRANCH  11  13
ATOM     13  C   UNL     1     107.052 125.011 148.215  0.00  0.00    +0.000 A 
ATOM     14  C   UNL     1     107.840 124.980 148.456  0.00  0.00    +0.000 A 
ATOM     15  C   UNL     1     106.467 124.652 148.672  0.00  0.00    +0.000 A 
ATOM     16  C   UNL     1     108.043 124.591 149.154  0.00  0.00    +0.000 A 
ATOM     17  C   UNL     1     106.669 124.262 149.371  0.00  0.00    +0.000 A 
ATOM     18  C   UNL     1     107.458 124.232 149.612  0.00  0.00    +0.000 A 
ENDBRANCH  11  13
BRANCH   4  19
ATOM     19  O   UNL     1     106.204 126.145 144.678  0.00  0.00    +0.000 OA
BRANCH  19  27
ATOM     20  O   UNL     1     107.175 126.891 143.943  0.00  0.00    +0.000 OA
ATOM     21  O   UNL     1     105.744 126.769 141.927  0.00  0.00    +0.000 OA
ATOM     22  O   UNL     1     105.249 126.063 143.335  0.00  0.00    +0.000 OA
ATOM     23  O   UNL     1     107.193 127.555 141.864  0.00  0.00    +0.000 OA
ATOM     24  C   UNL     1     106.221 126.809 142.599  0.00  0.00    +0.000 C 
ATOM     25  C   UNL     1     105.974 126.457 143.302  0.00  0.00    +0.000 C 
ATOM     26  C   UNL     1     106.945 127.202 142.567  0.00  0.00    +0.000 C 
ATOM     27  C   UNL     1     106.451 126.497 143.975  0.00  0.00    +0.000 C 
ATOM     28  C   UNL     1     107.423 127.243 143.239  0.00  0.00    +0.000 C 
ENDBRANCH  19  27
ENDBRANCH   4  19
TORSDOF 3
ENDMDL
MODEL 7
REMARK VINA RESULT:      -8.9     13.209     14.251
REMARK  Name = 44257631
REMARK  3 active torsions:
REMARK  status: ('A' for Active; 'I' for Inactive)
REMARK    1  A    between atoms: O_2  and  C_12
REMARK    2  A    between atoms: O_2  and  C_14
REMARK    3  A    between atoms: C_21  and  C_23
REMARK                            x       y       z     vdW  Elec       q    Type
REMARK                         _______ _______ _______ _____ _____    ______ ____
ROOT
ATOM      1  O   UNL     1     105.673 125.561 148.367  0.00  0.00    +0.000 OA
ATOM      2  O   UNL     1     103.120 126.861 148.889  0.00  0.00    +0.000 OA
ATOM      3  O   UNL     1     104.556 123.925 146.884  0.00  0.00    +0.000 OA
ATOM      4  C   UNL     1     103.638 125.093 147.616  0.00  0.00    +0.000 A 
ATOM      5  C   UNL     1     104.486 125.059 147.751  0.00  0.00    +0.000 A 
ATOM      6  C   UNL     1     104.858 125.605 148.246  0.00  0.00    +0.000 A 
ATOM      7  C   UNL     1     103.172 125.703 148.000  0.00  0.00    +0.000 A 
ATOM      8  C   UNL     1     104.928 124.470 147.378  0.00  0.00    +0.000 A 
ATOM      9  C   UNL     1     103.560 126.271 148.516  0.00  0.00    +0.000 A 
ATOM     10  C   UNL     1     104.408 126.222 148.639  0.00  0.00    +0.000 A 
ATOM     11  C   UNL     1     106.115 124.973 147.995  0.00  0.00    +0.000 A 
ATOM     12  C   UNL     1     105.743 124.428 147.501  0.00  0.00    +0.000 A 
ENDROOT
BRANCH  11  13
ATOM     13  C   UNL     1     106.930 124.930 148.117  0.00  0.00    +0.000 A 
ATOM     14  C   UNL     1     107.448 125.269 147.572  0.00  0.00    +0.000 A 
ATOM     15  C   UNL     1     107.227 124.547 148.784  0.00  0.00    +0.000 A 
ATOM     16  C   UNL     1     108.263 125.226 147.694  0.00  0.00    +0.000 A 
ATOM     17  C   UNL     1     108.042 124.503 148.907  0.00  0.00    +0.000 A 
ATOM     18  C   UNL     1     108.560 124.843 148.361  0.00  0.00    +0.000 A 
ENDBRANCH  11  13
BRANCH   4  19
ATOM     19  O   UNL     1     103.274 124.543 147.120  0.00  0.00    +0.000 OA
BRANCH  19  27
ATOM     20  O   UNL     1     102.633 123.809 148.164  0.00  0.00    +0.000 OA
ATOM     21  O   UNL     1     100.711 123.361 146.670  0.00  0.00    +0.000 OA
ATOM     22  O   UNL     1     101.993 124.246 146.124  0.00  0.00    +0.000 OA
ATOM     23  O   UNL     1     100.711 122.775 148.213  0.00  0.00    +0.000 OA
ATOM     24  C   UNL     1     101.352 123.510 147.168  0.00  0.00    +0.000 C 
ATOM     25  C   UNL     1     101.992 123.952 146.895  0.00  0.00    +0.000 C 
ATOM     26  C   UNL     1     101.352 123.218 147.939  0.00  0.00    +0.000 C 
ATOM     27  C   UNL     1     102.633 124.102 147.393  0.00  0.00    +0.000 C 
ATOM     28  C   UNL     1     101.992 123.366 148.437  0.00  0.00    +0.000 C 
ENDBRANCH  19  27
ENDBRANCH   4  19
TORSDOF 3
ENDMDL
MODEL 8
REMARK VINA RESULT:      -8.9      2.344      4.331
REMARK  Name = 44257631
REMARK  3 active torsions:
REMARK  status: ('A' for Active; 'I' for Inactive)
REMARK    1  A    between atoms: O_2  and  C_12
REMARK    2  A    between atoms: O_2  and  C_14
REMARK    3  A    between atoms: C_21  and  C_23
REMARK                            x       y       z     vdW  Elec       q    Type
REMARK                         _______ _______ _______ _____ _____    ______ ____
ROOT
ATOM      1  O   UNL     1     112.996 128.949 135.284  0.00  0.00    +0.000 OA
ATOM      2  O   UNL     1     110.463 127.578 134.857  0.00  0.00    +0.000 OA
ATOM      3  O   UNL     1     113.518 127.433 137.169  0.00  0.00    +0.000 OA
ATOM      4  C   UNL     1     112.089 127.231 136.357  0.00  0.00    +0.000 A 
ATOM      5  C   UNL     1     112.636 127.852 136.125  0.00  0.00    +0.000 A 
ATOM      6  C   UNL     1     112.462 128.357 135.497  0.00  0.00    +0.000 A 
ATOM      7  C   UNL     1     111.351 127.136 135.929  0.00  0.00    +0.000 A 
ATOM      8  C   UNL     1     113.344 127.938 136.541  0.00  0.00    +0.000 A 
ATOM      9  C   UNL     1     111.170 127.663 135.274  0.00  0.00    +0.000 A 
ATOM     10  C   UNL     1     111.729 128.277 135.057  0.00  0.00    +0.000 A 
ATOM     11  C   UNL     1     113.703 129.036 135.699  0.00  0.00    +0.000 A 
ATOM     12  C   UNL     1     113.877 128.530 136.328  0.00  0.00    +0.000 A 
ENDROOT
BRANCH  11  13
ATOM     13  C   UNL     1     114.237 129.628 135.487  0.00  0.00    +0.000 A 
ATOM     14  C   UNL     1     114.273 130.328 135.921  0.00  0.00    +0.000 A 
ATOM     15  C   UNL     1     114.736 129.519 134.839  0.00  0.00    +0.000 A 
ATOM     16  C   UNL     1     114.807 130.920 135.709  0.00  0.00    +0.000 A 
ATOM     17  C   UNL     1     115.271 130.111 134.625  0.00  0.00    +0.000 A 
ATOM     18  C   UNL     1     115.306 130.811 135.061  0.00  0.00    +0.000 A 
ENDBRANCH  11  13
BRANCH   4  19
ATOM     19  O   UNL     1     112.271 126.730 136.986  0.00  0.00    +0.000 OA
BRANCH  19  27
ATOM     20  O   UNL     1     112.415 125.524 136.235  0.00  0.00    +0.000 OA
ATOM     21  O   UNL     1     111.302 124.259 138.048  0.00  0.00    +0.000 OA
ATOM     22  O   UNL     1     111.529 125.888 138.196  0.00  0.00    +0.000 OA
ATOM     23  O   UNL     1     111.818 123.475 136.691  0.00  0.00    +0.000 OA
ATOM     24  C   UNL     1     111.673 124.681 137.444  0.00  0.00    +0.000 C 
ATOM     25  C   UNL     1     111.787 125.495 137.517  0.00  0.00    +0.000 C 
ATOM     26  C   UNL     1     111.931 124.289 136.766  0.00  0.00    +0.000 C 
ATOM     27  C   UNL     1     112.158 125.917 136.913  0.00  0.00    +0.000 C 
ATOM     28  C   UNL     1     112.302 124.710 136.161  0.00  0.00    +0.000 C 
ENDBRANCH  19  27
ENDBRANCH   4  19
TORSDOF 3
ENDMDL
MODEL 9
REMARK VINA RESULT:      -8.2     12.716     14.201
REMARK  Name = 44257631
REMARK  3 active torsions:
REMARK  status: ('A' for Active; 'I' for Inactive)
REMARK    1  A    between atoms: O_2  and  C_12
REMARK    2  A    between atoms: O_2  and  C_14
REMARK    3  A    between atoms: C_21  and  C_23
REMARK                            x       y       z     vdW  Elec       q    Type
REMARK                         _______ _______ _______ _____ _____    ______ ____
ROOT
ATOM      1  O   UNL     1     102.783 124.600 147.143  0.00  0.00    +0.000 OA
ATOM      2  O   UNL     1     104.139 126.809 148.470  0.00  0.00    +0.000 OA
ATOM      3  O   UNL     1     104.959 123.697 146.384  0.00  0.00    +0.000 OA
ATOM      4  C   UNL     1     104.943 125.086 147.287  0.00  0.00    +0.000 A 
ATOM      5  C   UNL     1     104.208 124.689 147.088  0.00  0.00    +0.000 A 
ATOM      6  C   UNL     1     103.482 124.990 147.341  0.00  0.00    +0.000 A 
ATOM      7  C   UNL     1     104.923 125.805 147.756  0.00  0.00    +0.000 A 
ATOM      8  C   UNL     1     104.233 123.998 146.637  0.00  0.00    +0.000 A 
ATOM      9  C   UNL     1     104.167 126.118 148.019  0.00  0.00    +0.000 A 
ATOM     10  C   UNL     1     103.442 125.708 147.810  0.00  0.00    +0.000 A 
ATOM     11  C   UNL     1     102.808 123.910 146.693  0.00  0.00    +0.000 A 
ATOM     12  C   UNL     1     103.533 123.609 146.440  0.00  0.00    +0.000 A 
ENDROOT
BRANCH  11  13
ATOM     13  C   UNL     1     102.109 123.519 146.495  0.00  0.00    +0.000 A 
ATOM     14  C   UNL     1     101.666 123.143 147.079  0.00  0.00    +0.000 A 
ATOM     15  C   UNL     1     101.852 123.506 145.710  0.00  0.00    +0.000 A 
ATOM     16  C   UNL     1     100.966 122.753 146.881  0.00  0.00    +0.000 A 
ATOM     17  C   UNL     1     101.153 123.116 145.511  0.00  0.00    +0.000 A 
ATOM     18  C   UNL     1     100.710 122.739 146.097  0.00  0.00    +0.000 A 
ENDBRANCH  11  13
BRANCH   4  19
ATOM     19  O   UNL     1     105.664 124.778 147.030  0.00  0.00    +0.000 OA
BRANCH  19  27
ATOM     20  O   UNL     1     106.214 124.417 148.298  0.00  0.00    +0.000 OA
ATOM     21  O   UNL     1     108.418 125.294 147.594  0.00  0.00    +0.000 OA
ATOM     22  O   UNL     1     107.133 125.363 146.560  0.00  0.00    +0.000 OA
ATOM     23  O   UNL     1     108.232 124.640 149.097  0.00  0.00    +0.000 OA
ATOM     24  C   UNL     1     107.683 125.002 147.828  0.00  0.00    +0.000 C 
ATOM     25  C   UNL     1     107.041 125.036 147.312  0.00  0.00    +0.000 C 
ATOM     26  C   UNL     1     107.591 124.675 148.580  0.00  0.00    +0.000 C 
ATOM     27  C   UNL     1     106.306 124.744 147.546  0.00  0.00    +0.000 C 
ATOM     28  C   UNL     1     106.856 124.382 148.815  0.00  0.00    +0.000 C 
ENDBRANCH  19  27
ENDBRANCH   4  19
TORSDOF 3
ENDMDL
