MODEL 1
REMARK VINA RESULT:      -8.2      0.000      0.000
REMARK  Name = 13871369
REMARK  4 active torsions:
REMARK  status: ('A' for Active; 'I' for Inactive)
REMARK    1  A    between atoms: O_2  and  C_14
REMARK    2  A    between atoms: O_5  and  C_18
REMARK    3  A    between atoms: O_6  and  C_22
REMARK    4  A    between atoms: C_8  and  C_11
REMARK                            x       y       z     vdW  Elec       q    Type
REMARK                         _______ _______ _______ _____ _____    ______ ____
ROOT
ATOM      1  O   UNL     1     104.810 124.393 147.422  0.00  0.00    +0.000 OA
ATOM      2  O   UNL     1     105.945 125.327 145.360  0.00  0.00    +0.000 OA
ATOM      3  O   UNL     1     107.156 125.489 146.128  0.00  0.00    +0.000 OA
ATOM      4  C   UNL     1     104.365 124.460 146.690  0.00  0.00    +0.000 C 
ATOM      5  C   UNL     1     104.747 124.777 145.988  0.00  0.00    +0.000 C 
ATOM      6  C   UNL     1     105.999 124.948 146.768  0.00  0.00    +0.000 A 
ATOM      7  C   UNL     1     105.632 124.644 147.443  0.00  0.00    +0.000 A 
ATOM      8  C   UNL     1     105.570 125.022 146.029  0.00  0.00    +0.000 C 
ATOM      9  C   UNL     1     106.055 124.577 148.148  0.00  0.00    +0.000 A 
ATOM     10  C   UNL     1     106.789 125.185 146.801  0.00  0.00    +0.000 A 
ATOM     11  C   UNL     1     106.843 124.814 148.180  0.00  0.00    +0.000 A 
ATOM     12  C   UNL     1     107.211 125.119 147.506  0.00  0.00    +0.000 A 
ENDROOT
BRANCH   4  14
ATOM     13  O   UNL     1     101.616 124.922 147.319  0.00  0.00    +0.000 OA
ATOM     14  C   UNL     1     103.575 124.222 146.660  0.00  0.00    +0.000 A 
ATOM     15  C   UNL     1     102.990 124.691 147.004  0.00  0.00    +0.000 A 
ATOM     16  C   UNL     1     103.371 123.515 146.287  0.00  0.00    +0.000 A 
ATOM     17  C   UNL     1     102.201 124.454 146.975  0.00  0.00    +0.000 A 
ATOM     18  C   UNL     1     102.581 123.278 146.258  0.00  0.00    +0.000 A 
ATOM     19  C   UNL     1     101.997 123.746 146.602  0.00  0.00    +0.000 A 
BRANCH  19  20
ATOM     20  O   UNL     1     101.207 123.509 146.573  0.00  0.00    +0.000 OA
ATOM     21  C   UNL     1     100.996 122.833 146.150  0.00  0.00    +0.000 C 
ENDBRANCH  19  20
ENDBRANCH   4  14
BRANCH   9  22
ATOM     22  O   UNL     1     105.687 124.273 148.821  0.00  0.00    +0.000 OA
ATOM     23  C   UNL     1     105.517 124.770 149.457  0.00  0.00    +0.000 C 
ENDBRANCH   9  22
BRANCH  11  24
ATOM     24  O   UNL     1     107.266 124.748 148.886  0.00  0.00    +0.000 OA
ATOM     25  C   UNL     1     108.085 124.652 148.869  0.00  0.00    +0.000 C 
ENDBRANCH  11  24
TORSDOF 4
ENDMDL
MODEL 2
REMARK VINA RESULT:      -8.0      0.870      4.699
REMARK  Name = 13871369
REMARK  4 active torsions:
REMARK  status: ('A' for Active; 'I' for Inactive)
REMARK    1  A    between atoms: O_2  and  C_14
REMARK    2  A    between atoms: O_5  and  C_18
REMARK    3  A    between atoms: O_6  and  C_22
REMARK    4  A    between atoms: C_8  and  C_11
REMARK                            x       y       z     vdW  Elec       q    Type
REMARK                         _______ _______ _______ _____ _____    ______ ____
ROOT
ATOM      1  O   UNL     1     104.268 124.105 146.902  0.00  0.00    +0.000 OA
ATOM      2  O   UNL     1     102.675 125.757 147.973  0.00  0.00    +0.000 OA
ATOM      3  O   UNL     1     101.571 125.047 147.371  0.00  0.00    +0.000 OA
ATOM      4  C   UNL     1     104.583 124.741 147.388  0.00  0.00    +0.000 C 
ATOM      5  C   UNL     1     104.045 125.303 147.753  0.00  0.00    +0.000 C 
ATOM      6  C   UNL     1     102.902 124.581 147.139  0.00  0.00    +0.000 A 
ATOM      7  C   UNL     1     103.419 124.041 146.788  0.00  0.00    +0.000 A 
ATOM      8  C   UNL     1     103.199 125.221 147.626  0.00  0.00    +0.000 C 
ATOM      9  C   UNL     1     103.122 123.429 146.321  0.00  0.00    +0.000 A 
ATOM     10  C   UNL     1     102.088 124.508 147.021  0.00  0.00    +0.000 A 
ATOM     11  C   UNL     1     102.309 123.356 146.204  0.00  0.00    +0.000 A 
ATOM     12  C   UNL     1     101.792 123.896 146.555  0.00  0.00    +0.000 A 
ENDROOT
BRANCH   4  14
ATOM     13  O   UNL     1     107.176 125.402 146.386  0.00  0.00    +0.000 OA
ATOM     14  C   UNL     1     105.397 124.811 147.503  0.00  0.00    +0.000 A 
ATOM     15  C   UNL     1     105.880 125.072 146.887  0.00  0.00    +0.000 A 
ATOM     16  C   UNL     1     105.728 124.621 148.235  0.00  0.00    +0.000 A 
ATOM     17  C   UNL     1     106.693 125.142 147.002  0.00  0.00    +0.000 A 
ATOM     18  C   UNL     1     106.543 124.691 148.349  0.00  0.00    +0.000 A 
ATOM     19  C   UNL     1     107.025 124.951 147.734  0.00  0.00    +0.000 A 
BRANCH  19  20
ATOM     20  O   UNL     1     107.839 125.022 147.848  0.00  0.00    +0.000 OA
ATOM     21  C   UNL     1     108.187 124.713 148.529  0.00  0.00    +0.000 C 
ENDBRANCH  19  20
ENDBRANCH   4  14
BRANCH   9  22
ATOM     22  O   UNL     1     103.639 122.889 145.971  0.00  0.00    +0.000 OA
ATOM     23  C   UNL     1     103.713 122.863 145.151  0.00  0.00    +0.000 C 
ENDBRANCH   9  22
BRANCH  11  24
ATOM     24  O   UNL     1     102.012 122.744 145.737  0.00  0.00    +0.000 OA
ATOM     25  C   UNL     1     101.216 122.739 145.520  0.00  0.00    +0.000 C 
ENDBRANCH  11  24
TORSDOF 4
ENDMDL
MODEL 3
REMARK VINA RESULT:      -7.7     11.555     12.962
REMARK  Name = 13871369
REMARK  4 active torsions:
REMARK  status: ('A' for Active; 'I' for Inactive)
REMARK    1  A    between atoms: O_2  and  C_14
REMARK    2  A    between atoms: O_5  and  C_18
REMARK    3  A    between atoms: O_6  and  C_22
REMARK    4  A    between atoms: C_8  and  C_11
REMARK                            x       y       z     vdW  Elec       q    Type
REMARK                         _______ _______ _______ _____ _____    ______ ____
ROOT
ATOM      1  O   UNL     1     110.535 127.452 136.346  0.00  0.00    +0.000 OA
ATOM      2  O   UNL     1     108.032 127.303 135.992  0.00  0.00    +0.000 OA
ATOM      3  O   UNL     1     108.011 128.718 135.708  0.00  0.00    +0.000 OA
ATOM      4  C   UNL     1     110.141 126.693 136.436  0.00  0.00    +0.000 C 
ATOM      5  C   UNL     1     109.291 126.640 136.317  0.00  0.00    +0.000 C 
ATOM      6  C   UNL     1     109.258 128.095 136.023  0.00  0.00    +0.000 A 
ATOM      7  C   UNL     1     110.074 128.146 136.137  0.00  0.00    +0.000 A 
ATOM      8  C   UNL     1     108.848 127.346 136.109  0.00  0.00    +0.000 C 
ATOM      9  C   UNL     1     110.457 128.872 136.052  0.00  0.00    +0.000 A 
ATOM     10  C   UNL     1     108.826 128.769 135.822  0.00  0.00    +0.000 A 
ATOM     11  C   UNL     1     110.026 129.546 135.852  0.00  0.00    +0.000 A 
ATOM     12  C   UNL     1     109.210 129.494 135.737  0.00  0.00    +0.000 A 
ENDROOT
BRANCH   4  14
ATOM     13  O   UNL     1     111.269 124.977 138.423  0.00  0.00    +0.000 OA
ATOM     14  C   UNL     1     110.575 126.021 136.636  0.00  0.00    +0.000 A 
ATOM     15  C   UNL     1     110.705 125.835 137.430  0.00  0.00    +0.000 A 
ATOM     16  C   UNL     1     110.879 125.534 136.043  0.00  0.00    +0.000 A 
ATOM     17  C   UNL     1     111.139 125.163 137.630  0.00  0.00    +0.000 A 
ATOM     18  C   UNL     1     111.314 124.862 136.244  0.00  0.00    +0.000 A 
ATOM     19  C   UNL     1     111.444 124.676 137.037  0.00  0.00    +0.000 A 
BRANCH  19  20
ATOM     20  O   UNL     1     111.877 124.004 137.238  0.00  0.00    +0.000 OA
ATOM     21  C   UNL     1     112.220 123.543 136.646  0.00  0.00    +0.000 C 
ENDBRANCH  19  20
ENDBRANCH   4  14
BRANCH   9  22
ATOM     22  O   UNL     1     111.273 128.924 136.166  0.00  0.00    +0.000 OA
ATOM     23  C   UNL     1     111.773 129.042 135.521  0.00  0.00    +0.000 C 
ENDBRANCH   9  22
BRANCH  11  24
ATOM     24  O   UNL     1     110.409 130.272 135.766  0.00  0.00    +0.000 OA
ATOM     25  C   UNL     1     109.980 130.973 135.817  0.00  0.00    +0.000 C 
ENDBRANCH  11  24
TORSDOF 4
ENDMDL
MODEL 4
REMARK VINA RESULT:      -7.6     12.816     14.154
REMARK  Name = 13871369
REMARK  4 active torsions:
REMARK  status: ('A' for Active; 'I' for Inactive)
REMARK    1  A    between atoms: O_2  and  C_14
REMARK    2  A    between atoms: O_5  and  C_18
REMARK    3  A    between atoms: O_6  and  C_22
REMARK    4  A    between atoms: C_8  and  C_11
REMARK                            x       y       z     vdW  Elec       q    Type
REMARK                         _______ _______ _______ _____ _____    ______ ____
ROOT
ATOM      1  O   UNL     1     112.877 126.679 136.514  0.00  0.00    +0.000 OA
ATOM      2  O   UNL     1     110.628 126.729 135.353  0.00  0.00    +0.000 OA
ATOM      3  O   UNL     1     110.514 125.305 135.562  0.00  0.00    +0.000 OA
ATOM      4  C   UNL     1     112.573 127.426 136.218  0.00  0.00    +0.000 C 
ATOM      5  C   UNL     1     111.809 127.446 135.823  0.00  0.00    +0.000 C 
ATOM      6  C   UNL     1     111.681 125.982 136.033  0.00  0.00    +0.000 A 
ATOM      7  C   UNL     1     112.415 125.963 136.412  0.00  0.00    +0.000 A 
ATOM      8  C   UNL     1     111.361 126.719 135.730  0.00  0.00    +0.000 C 
ATOM      9  C   UNL     1     112.712 125.248 136.699  0.00  0.00    +0.000 A 
ATOM     10  C   UNL     1     111.247 125.286 135.941  0.00  0.00    +0.000 A 
ATOM     11  C   UNL     1     112.277 124.554 136.607  0.00  0.00    +0.000 A 
ATOM     12  C   UNL     1     111.544 124.573 136.228  0.00  0.00    +0.000 A 
ENDROOT
BRANCH   4  14
ATOM     13  O   UNL     1     113.328 129.680 137.804  0.00  0.00    +0.000 OA
ATOM     14  C   UNL     1     113.010 128.120 136.311  0.00  0.00    +0.000 A 
ATOM     15  C   UNL     1     112.951 128.553 137.011  0.00  0.00    +0.000 A 
ATOM     16  C   UNL     1     113.506 128.379 135.705  0.00  0.00    +0.000 A 
ATOM     17  C   UNL     1     113.387 129.246 137.104  0.00  0.00    +0.000 A 
ATOM     18  C   UNL     1     113.943 129.073 135.799  0.00  0.00    +0.000 A 
ATOM     19  C   UNL     1     113.884 129.506 136.498  0.00  0.00    +0.000 A 
BRANCH  19  20
ATOM     20  O   UNL     1     114.321 130.200 136.593  0.00  0.00    +0.000 OA
ATOM     21  C   UNL     1     114.812 130.463 135.984  0.00  0.00    +0.000 C 
ENDBRANCH  19  20
ENDBRANCH   4  14
BRANCH   9  22
ATOM     22  O   UNL     1     113.444 125.229 137.078  0.00  0.00    +0.000 OA
ATOM     23  C   UNL     1     114.094 124.888 136.702  0.00  0.00    +0.000 C 
ENDBRANCH   9  22
BRANCH  11  24
ATOM     24  O   UNL     1     112.574 123.839 136.894  0.00  0.00    +0.000 OA
ATOM     25  C   UNL     1     112.060 123.218 137.066  0.00  0.00    +0.000 C 
ENDBRANCH  11  24
TORSDOF 4
ENDMDL
MODEL 5
REMARK VINA RESULT:      -7.6      8.925     10.254
REMARK  Name = 13871369
REMARK  4 active torsions:
REMARK  status: ('A' for Active; 'I' for Inactive)
REMARK    1  A    between atoms: O_2  and  C_14
REMARK    2  A    between atoms: O_5  and  C_18
REMARK    3  A    between atoms: O_6  and  C_22
REMARK    4  A    between atoms: C_8  and  C_11
REMARK                            x       y       z     vdW  Elec       q    Type
REMARK                         _______ _______ _______ _____ _____    ______ ____
ROOT
ATOM      1  O   UNL     1     102.973 132.027 141.199  0.00  0.00    +0.000 OA
ATOM      2  O   UNL     1     100.713 132.305 142.308  0.00  0.00    +0.000 OA
ATOM      3  O   UNL     1     100.809 133.729 142.095  0.00  0.00    +0.000 OA
ATOM      4  C   UNL     1     102.557 131.332 141.489  0.00  0.00    +0.000 C 
ATOM      5  C   UNL     1     101.790 131.423 141.866  0.00  0.00    +0.000 C 
ATOM      6  C   UNL     1     101.878 132.890 141.652  0.00  0.00    +0.000 A 
ATOM      7  C   UNL     1     102.615 132.802 141.290  0.00  0.00    +0.000 A 
ATOM      8  C   UNL     1     101.449 132.208 141.948  0.00  0.00    +0.000 C 
ATOM      9  C   UNL     1     103.018 133.466 141.009  0.00  0.00    +0.000 A 
ATOM     10  C   UNL     1     101.546 133.641 141.733  0.00  0.00    +0.000 A 
ATOM     11  C   UNL     1     102.686 134.216 141.090  0.00  0.00    +0.000 A 
ATOM     12  C   UNL     1     101.949 134.303 141.453  0.00  0.00    +0.000 A 
ENDROOT
BRANCH   4  14
ATOM     13  O   UNL     1     102.929 128.942 139.968  0.00  0.00    +0.000 OA
ATOM     14  C   UNL     1     102.893 130.583 141.407  0.00  0.00    +0.000 A 
ATOM     15  C   UNL     1     102.744 130.137 140.729  0.00  0.00    +0.000 A 
ATOM     16  C   UNL     1     103.377 130.279 142.002  0.00  0.00    +0.000 A 
ATOM     17  C   UNL     1     103.078 129.388 140.646  0.00  0.00    +0.000 A 
ATOM     18  C   UNL     1     103.712 129.530 141.919  0.00  0.00    +0.000 A 
ATOM     19  C   UNL     1     103.563 129.084 141.242  0.00  0.00    +0.000 A 
BRANCH  19  20
ATOM     20  O   UNL     1     103.898 128.335 141.158  0.00  0.00    +0.000 OA
ATOM     21  C   UNL     1     104.525 128.108 141.643  0.00  0.00    +0.000 C 
ENDBRANCH  19  20
ENDBRANCH   4  14
BRANCH   9  22
ATOM     22  O   UNL     1     103.754 133.378 140.647  0.00  0.00    +0.000 OA
ATOM     23  C   UNL     1     103.839 133.535 139.843  0.00  0.00    +0.000 C 
ENDBRANCH   9  22
BRANCH  11  24
ATOM     24  O   UNL     1     103.089 134.879 140.810  0.00  0.00    +0.000 OA
ATOM     25  C   UNL     1     102.872 135.632 141.065  0.00  0.00    +0.000 C 
ENDBRANCH  11  24
TORSDOF 4
ENDMDL
MODEL 6
REMARK VINA RESULT:      -7.6     12.668     13.956
REMARK  Name = 13871369
REMARK  4 active torsions:
REMARK  status: ('A' for Active; 'I' for Inactive)
REMARK    1  A    between atoms: O_2  and  C_14
REMARK    2  A    between atoms: O_5  and  C_18
REMARK    3  A    between atoms: O_6  and  C_22
REMARK    4  A    between atoms: C_8  and  C_11
REMARK                            x       y       z     vdW  Elec       q    Type
REMARK                         _______ _______ _______ _____ _____    ______ ____
ROOT
ATOM      1  O   UNL     1     112.381 126.494 136.482  0.00  0.00    +0.000 OA
ATOM      2  O   UNL     1     114.839 125.910 136.652  0.00  0.00    +0.000 OA
ATOM      3  O   UNL     1     114.477 124.517 136.764  0.00  0.00    +0.000 OA
ATOM      4  C   UNL     1     112.967 127.123 136.451  0.00  0.00    +0.000 C 
ATOM      5  C   UNL     1     113.802 126.927 136.509  0.00  0.00    +0.000 C 
ATOM      6  C   UNL     1     113.441 125.492 136.625  0.00  0.00    +0.000 A 
ATOM      7  C   UNL     1     112.639 125.679 136.569  0.00  0.00    +0.000 A 
ATOM      8  C   UNL     1     114.040 126.106 136.596  0.00  0.00    +0.000 C 
ATOM      9  C   UNL     1     112.072 125.080 136.598  0.00  0.00    +0.000 A 
ATOM     10  C   UNL     1     113.675 124.705 136.709  0.00  0.00    +0.000 A 
ATOM     11  C   UNL     1     112.307 124.294 136.682  0.00  0.00    +0.000 A 
ATOM     12  C   UNL     1     113.109 124.106 136.737  0.00  0.00    +0.000 A 
ENDROOT
BRANCH   4  14
ATOM     13  O   UNL     1     112.288 129.336 134.777  0.00  0.00    +0.000 OA
ATOM     14  C   UNL     1     112.729 127.908 136.367  0.00  0.00    +0.000 A 
ATOM     15  C   UNL     1     112.627 128.230 135.614  0.00  0.00    +0.000 A 
ATOM     16  C   UNL     1     112.593 128.372 137.036  0.00  0.00    +0.000 A 
ATOM     17  C   UNL     1     112.390 129.015 135.530  0.00  0.00    +0.000 A 
ATOM     18  C   UNL     1     112.355 129.158 136.951  0.00  0.00    +0.000 A 
ATOM     19  C   UNL     1     112.254 129.479 136.199  0.00  0.00    +0.000 A 
BRANCH  19  20
ATOM     20  O   UNL     1     112.016 130.264 136.114  0.00  0.00    +0.000 OA
ATOM     21  C   UNL     1     111.910 130.737 136.782  0.00  0.00    +0.000 C 
ENDBRANCH  19  20
ENDBRANCH   4  14
BRANCH   9  22
ATOM     22  O   UNL     1     111.271 125.267 136.543  0.00  0.00    +0.000 OA
ATOM     23  C   UNL     1     110.859 125.115 135.845  0.00  0.00    +0.000 C 
ENDBRANCH   9  22
BRANCH  11  24
ATOM     24  O   UNL     1     111.741 123.694 136.711  0.00  0.00    +0.000 OA
ATOM     25  C   UNL     1     111.909 122.985 137.097  0.00  0.00    +0.000 C 
ENDBRANCH  11  24
TORSDOF 4
ENDMDL
MODEL 7
REMARK VINA RESULT:      -7.5     10.463     11.275
REMARK  Name = 13871369
REMARK  4 active torsions:
REMARK  status: ('A' for Active; 'I' for Inactive)
REMARK    1  A    between atoms: O_2  and  C_14
REMARK    2  A    between atoms: O_5  and  C_18
REMARK    3  A    between atoms: O_6  and  C_22
REMARK    4  A    between atoms: C_8  and  C_11
REMARK                            x       y       z     vdW  Elec       q    Type
REMARK                         _______ _______ _______ _____ _____    ______ ____
ROOT
ATOM      1  O   UNL     1     111.449 132.883 146.277  0.00  0.00    +0.000 OA
ATOM      2  O   UNL     1     113.550 132.101 147.453  0.00  0.00    +0.000 OA
ATOM      3  O   UNL     1     113.024 132.623 148.691  0.00  0.00    +0.000 OA
ATOM      4  C   UNL     1     112.062 132.485 145.824  0.00  0.00    +0.000 C 
ATOM      5  C   UNL     1     112.777 132.218 146.221  0.00  0.00    +0.000 C 
ATOM      6  C   UNL     1     112.245 132.752 147.501  0.00  0.00    +0.000 A 
ATOM      7  C   UNL     1     111.559 133.009 147.119  0.00  0.00    +0.000 A 
ATOM      8  C   UNL     1     112.868 132.353 147.065  0.00  0.00    +0.000 C 
ATOM      9  C   UNL     1     110.967 133.391 147.549  0.00  0.00    +0.000 A 
ATOM     10  C   UNL     1     112.338 132.879 148.311  0.00  0.00    +0.000 A 
ATOM     11  C   UNL     1     111.061 133.518 148.358  0.00  0.00    +0.000 A 
ATOM     12  C   UNL     1     111.747 133.261 148.740  0.00  0.00    +0.000 A 
ENDROOT
BRANCH   4  14
ATOM     13  O   UNL     1     111.945 133.509 143.159  0.00  0.00    +0.000 OA
ATOM     14  C   UNL     1     111.965 132.360 145.014  0.00  0.00    +0.000 A 
ATOM     15  C   UNL     1     112.003 132.997 144.491  0.00  0.00    +0.000 A 
ATOM     16  C   UNL     1     111.831 131.598 144.728  0.00  0.00    +0.000 A 
ATOM     17  C   UNL     1     111.907 132.872 143.682  0.00  0.00    +0.000 A 
ATOM     18  C   UNL     1     111.735 131.474 143.917  0.00  0.00    +0.000 A 
ATOM     19  C   UNL     1     111.773 132.110 143.395  0.00  0.00    +0.000 A 
BRANCH  19  20
ATOM     20  O   UNL     1     111.676 131.986 142.585  0.00  0.00    +0.000 OA
ATOM     21  C   UNL     1     111.560 131.222 142.297  0.00  0.00    +0.000 C 
ENDBRANCH  19  20
ENDBRANCH   4  14
BRANCH   9  22
ATOM     22  O   UNL     1     110.281 133.647 147.168  0.00  0.00    +0.000 OA
ATOM     23  C   UNL     1     109.563 133.271 147.316  0.00  0.00    +0.000 C 
ENDBRANCH   9  22
BRANCH  11  24
ATOM     24  O   UNL     1     110.469 133.900 148.788  0.00  0.00    +0.000 OA
ATOM     25  C   UNL     1     110.503 133.918 149.612  0.00  0.00    +0.000 C 
ENDBRANCH  11  24
TORSDOF 4
ENDMDL
MODEL 8
REMARK VINA RESULT:      -7.5      1.504      4.605
REMARK  Name = 13871369
REMARK  4 active torsions:
REMARK  status: ('A' for Active; 'I' for Inactive)
REMARK    1  A    between atoms: O_2  and  C_14
REMARK    2  A    between atoms: O_5  and  C_18
REMARK    3  A    between atoms: O_6  and  C_22
REMARK    4  A    between atoms: C_8  and  C_11
REMARK                            x       y       z     vdW  Elec       q    Type
REMARK                         _______ _______ _______ _____ _____    ______ ____
ROOT
ATOM      1  O   UNL     1     103.828 124.485 146.472  0.00  0.00    +0.000 OA
ATOM      2  O   UNL     1     103.727 124.856 148.975  0.00  0.00    +0.000 OA
ATOM      3  O   UNL     1     102.542 124.034 149.026  0.00  0.00    +0.000 OA
ATOM      4  C   UNL     1     104.427 124.973 146.850  0.00  0.00    +0.000 C 
ATOM      5  C   UNL     1     104.395 125.100 147.700  0.00  0.00    +0.000 C 
ATOM      6  C   UNL     1     103.176 124.255 147.764  0.00  0.00    +0.000 A 
ATOM      7  C   UNL     1     103.206 124.133 146.948  0.00  0.00    +0.000 A 
ATOM      8  C   UNL     1     103.765 124.739 148.159  0.00  0.00    +0.000 C 
ATOM      9  C   UNL     1     102.634 123.666 146.580  0.00  0.00    +0.000 A 
ATOM     10  C   UNL     1     102.573 123.911 148.211  0.00  0.00    +0.000 A 
ATOM     11  C   UNL     1     102.032 123.322 147.026  0.00  0.00    +0.000 A 
ATOM     12  C   UNL     1     102.001 123.445 147.842  0.00  0.00    +0.000 A 
ENDROOT
BRANCH   4  14
ATOM     13  O   UNL     1     107.115 124.943 145.882  0.00  0.00    +0.000 OA
ATOM     14  C   UNL     1     105.029 125.315 146.401  0.00  0.00    +0.000 A 
ATOM     15  C   UNL     1     105.771 124.958 146.366  0.00  0.00    +0.000 A 
ATOM     16  C   UNL     1     104.887 126.015 145.988  0.00  0.00    +0.000 A 
ATOM     17  C   UNL     1     106.372 125.300 145.917  0.00  0.00    +0.000 A 
ATOM     18  C   UNL     1     105.489 126.357 145.539  0.00  0.00    +0.000 A 
ATOM     19  C   UNL     1     106.231 126.001 145.504  0.00  0.00    +0.000 A 
BRANCH  19  20
ATOM     20  O   UNL     1     106.833 126.342 145.055  0.00  0.00    +0.000 OA
ATOM     21  C   UNL     1     106.686 127.033 144.628  0.00  0.00    +0.000 C 
ENDBRANCH  19  20
ENDBRANCH   4  14
BRANCH   9  22
ATOM     22  O   UNL     1     102.665 123.543 145.765  0.00  0.00    +0.000 OA
ATOM     23  C   UNL     1     102.894 122.810 145.467  0.00  0.00    +0.000 C 
ENDBRANCH   9  22
BRANCH  11  24
ATOM     24  O   UNL     1     101.460 122.855 146.658  0.00  0.00    +0.000 OA
ATOM     25  C   UNL     1     100.723 122.750 147.012  0.00  0.00    +0.000 C 
ENDBRANCH  11  24
TORSDOF 4
ENDMDL
MODEL 9
REMARK VINA RESULT:      -7.4     12.461     13.234
REMARK  Name = 13871369
REMARK  4 active torsions:
REMARK  status: ('A' for Active; 'I' for Inactive)
REMARK    1  A    between atoms: O_2  and  C_14
REMARK    2  A    between atoms: O_5  and  C_18
REMARK    3  A    between atoms: O_6  and  C_22
REMARK    4  A    between atoms: C_8  and  C_11
REMARK                            x       y       z     vdW  Elec       q    Type
REMARK                         _______ _______ _______ _____ _____    ______ ____
ROOT
ATOM      1  O   UNL     1     111.064 127.267 136.128  0.00  0.00    +0.000 OA
ATOM      2  O   UNL     1     110.240 125.109 135.090  0.00  0.00    +0.000 OA
ATOM      3  O   UNL     1     111.289 124.402 135.783  0.00  0.00    +0.000 OA
ATOM      4  C   UNL     1     110.385 127.285 135.600  0.00  0.00    +0.000 C 
ATOM      5  C   UNL     1     110.103 126.554 135.246  0.00  0.00    +0.000 C 
ATOM      6  C   UNL     1     111.180 125.816 135.954  0.00  0.00    +0.000 A 
ATOM      7  C   UNL     1     111.451 126.518 136.294  0.00  0.00    +0.000 A 
ATOM      8  C   UNL     1     110.504 125.815 135.425  0.00  0.00    +0.000 C 
ATOM      9  C   UNL     1     112.102 126.506 136.801  0.00  0.00    +0.000 A 
ATOM     10  C   UNL     1     111.560 125.103 136.122  0.00  0.00    +0.000 A 
ATOM     11  C   UNL     1     112.481 125.794 136.969  0.00  0.00    +0.000 A 
ATOM     12  C   UNL     1     112.210 125.092 136.629  0.00  0.00    +0.000 A 
ENDROOT
BRANCH   4  14
ATOM     13  O   UNL     1     108.176 129.059 135.969  0.00  0.00    +0.000 OA
ATOM     14  C   UNL     1     110.007 128.000 135.434  0.00  0.00    +0.000 A 
ATOM     15  C   UNL     1     109.280 128.173 135.784  0.00  0.00    +0.000 A 
ATOM     16  C   UNL     1     110.356 128.541 134.919  0.00  0.00    +0.000 A 
ATOM     17  C   UNL     1     108.902 128.886 135.619  0.00  0.00    +0.000 A 
ATOM     18  C   UNL     1     109.977 129.256 134.753  0.00  0.00    +0.000 A 
ATOM     19  C   UNL     1     109.251 129.428 135.103  0.00  0.00    +0.000 A 
BRANCH  19  20
ATOM     20  O   UNL     1     108.872 130.142 134.938  0.00  0.00    +0.000 OA
ATOM     21  C   UNL     1     109.299 130.769 134.614  0.00  0.00    +0.000 C 
ENDBRANCH  19  20
ENDBRANCH   4  14
BRANCH   9  22
ATOM     22  O   UNL     1     112.372 127.208 137.141  0.00  0.00    +0.000 OA
ATOM     23  C   UNL     1     112.220 127.366 137.935  0.00  0.00    +0.000 C 
ENDBRANCH   9  22
BRANCH  11  24
ATOM     24  O   UNL     1     113.132 125.782 137.476  0.00  0.00    +0.000 OA
ATOM     25  C   UNL     1     113.634 125.128 137.488  0.00  0.00    +0.000 C 
ENDBRANCH  11  24
TORSDOF 4
ENDMDL
MODEL 10
REMARK VINA RESULT:      -7.4     10.802     12.788
REMARK  Name = 13871369
REMARK  4 active torsions:
REMARK  status: ('A' for Active; 'I' for Inactive)
REMARK    1  A    between atoms: O_2  and  C_14
REMARK    2  A    between atoms: O_5  and  C_18
REMARK    3  A    between atoms: O_6  and  C_22
REMARK    4  A    between atoms: C_8  and  C_11
REMARK                            x       y       z     vdW  Elec       q    Type
REMARK                         _______ _______ _______ _____ _____    ______ ____
ROOT
ATOM      1  O   UNL     1     111.924 126.406 137.560  0.00  0.00    +0.000 OA
ATOM      2  O   UNL     1     112.042 123.918 137.105  0.00  0.00    +0.000 OA
ATOM      3  O   UNL     1     111.298 124.129 135.887  0.00  0.00    +0.000 OA
ATOM      4  C   UNL     1     112.329 125.895 138.119  0.00  0.00    +0.000 C 
ATOM      5  C   UNL     1     112.371 125.049 137.968  0.00  0.00    +0.000 C 
ATOM      6  C   UNL     1     111.606 125.254 136.711  0.00  0.00    +0.000 A 
ATOM      7  C   UNL     1     111.566 126.066 136.857  0.00  0.00    +0.000 A 
ATOM      8  C   UNL     1     112.006 124.728 137.259  0.00  0.00    +0.000 C 
ATOM      9  C   UNL     1     111.178 126.562 136.323  0.00  0.00    +0.000 A 
ATOM     10  C   UNL     1     111.258 124.940 136.032  0.00  0.00    +0.000 A 
ATOM     11  C   UNL     1     110.831 126.247 135.645  0.00  0.00    +0.000 A 
ATOM     12  C   UNL     1     110.871 125.435 135.499  0.00  0.00    +0.000 A 
ENDROOT
BRANCH   4  14
ATOM     13  O   UNL     1     112.088 126.890 140.787  0.00  0.00    +0.000 OA
ATOM     14  C   UNL     1     112.676 126.212 138.797  0.00  0.00    +0.000 A 
ATOM     15  C   UNL     1     112.209 126.393 139.453  0.00  0.00    +0.000 A 
ATOM     16  C   UNL     1     113.489 126.349 138.819  0.00  0.00    +0.000 A 
ATOM     17  C   UNL     1     112.555 126.710 140.131  0.00  0.00    +0.000 A 
ATOM     18  C   UNL     1     113.835 126.667 139.498  0.00  0.00    +0.000 A 
ATOM     19  C   UNL     1     113.369 126.847 140.153  0.00  0.00    +0.000 A 
BRANCH  19  20
ATOM     20  O   UNL     1     113.714 127.165 140.832  0.00  0.00    +0.000 OA
ATOM     21  C   UNL     1     114.536 127.202 140.896  0.00  0.00    +0.000 C 
ENDBRANCH  19  20
ENDBRANCH   4  14
BRANCH   9  22
ATOM     22  O   UNL     1     111.138 127.373 136.469  0.00  0.00    +0.000 OA
ATOM     23  C   UNL     1     111.608 127.893 136.036  0.00  0.00    +0.000 C 
ENDBRANCH   9  22
BRANCH  11  24
ATOM     24  O   UNL     1     110.443 126.743 135.111  0.00  0.00    +0.000 OA
ATOM     25  C   UNL     1     109.862 126.438 134.612  0.00  0.00    +0.000 C 
ENDBRANCH  11  24
TORSDOF 4
ENDMDL
