MODEL 1
REMARK VINA RESULT:      -9.3      0.000      0.000
REMARK  Name = 42607606
REMARK  9 active torsions:
REMARK  status: ('A' for Active; 'I' for Inactive)
REMARK    1  A    between atoms: O_3  and  C_24
REMARK    2  A    between atoms: O_3  and  C_28
REMARK    3  A    between atoms: O_4  and  C_25
REMARK    4  A    between atoms: O_4  and  C_29
REMARK    5  A    between atoms: C_21  and  C_26
REMARK    6  A    between atoms: C_23  and  C_27
REMARK    7  A    between atoms: C_31  and  C_34
REMARK    8  A    between atoms: C_34  and  C_35
REMARK    9  A    between atoms: C_36  and  C_37
REMARK                            x       y       z     vdW  Elec       q    Type
REMARK                         _______ _______ _______ _____ _____    ______ ____
ROOT
ATOM      1  O   UNL     1     113.219 125.537 138.214  0.00  0.00    +0.000 OA
ATOM      2  C   UNL     1     113.065 127.712 138.327  0.00  0.00    +0.000 A 
ATOM      3  C   UNL     1     113.226 127.185 139.645  0.00  0.00    +0.000 A 
ATOM      4  C   UNL     1     113.131 127.830 139.141  0.00  0.00    +0.000 A 
ATOM      5  C   UNL     1     113.094 126.947 138.018  0.00  0.00    +0.000 A 
ATOM      6  C   UNL     1     113.256 126.421 139.336  0.00  0.00    +0.000 A 
ATOM      7  C   UNL     1     113.190 126.302 138.522  0.00  0.00    +0.000 A 
ENDROOT
BRANCH   5   9
ATOM      8  O   UNL     1     113.691 126.908 136.720  0.00  0.00    +0.000 OA
ATOM      9  C   UNL     1     113.028 126.829 137.204  0.00  0.00    +0.000 C 
BRANCH   9  10
ATOM     10  C   UNL     1     112.297 126.631 136.874  0.00  0.00    +0.000 C 
ATOM     11  C   UNL     1     112.236 126.488 136.064  0.00  0.00    +0.000 C 
BRANCH  11  13
ATOM     12  O   UNL     1     109.315 125.700 134.746  0.00  0.00    +0.000 OA
ATOM     13  C   UNL     1     111.505 126.291 135.735  0.00  0.00    +0.000 A 
ATOM     14  C   UNL     1     111.263 125.504 135.711  0.00  0.00    +0.000 A 
ATOM     15  C   UNL     1     111.018 126.882 135.429  0.00  0.00    +0.000 A 
ATOM     16  C   UNL     1     110.533 125.306 135.382  0.00  0.00    +0.000 A 
ATOM     17  C   UNL     1     110.288 126.685 135.099  0.00  0.00    +0.000 A 
ATOM     18  C   UNL     1     110.045 125.898 135.076  0.00  0.00    +0.000 A 
ENDBRANCH  11  13
ENDBRANCH   9  10
ENDBRANCH   5   9
BRANCH   2  19
ATOM     19  O   UNL     1     112.970 128.357 137.822  0.00  0.00    +0.000 OA
BRANCH  19  28
ATOM     20  O   UNL     1     111.773 128.992 138.276  0.00  0.00    +0.000 OA
ATOM     21  O   UNL     1     112.993 131.134 138.494  0.00  0.00    +0.000 OA
ATOM     22  O   UNL     1     111.389 131.055 138.875  0.00  0.00    +0.000 OA
ATOM     23  O   UNL     1     113.782 129.786 137.968  0.00  0.00    +0.000 OA
ATOM     24  C   UNL     1     112.586 130.420 138.421  0.00  0.00    +0.000 C 
ATOM     25  C   UNL     1     111.784 130.381 138.612  0.00  0.00    +0.000 C 
ATOM     26  C   UNL     1     112.981 129.746 138.158  0.00  0.00    +0.000 C 
ATOM     27  C   UNL     1     111.377 129.666 138.539  0.00  0.00    +0.000 C 
ATOM     28  C   UNL     1     112.574 129.031 138.085  0.00  0.00    +0.000 C 
BRANCH  27  30
ATOM     29  O   UNL     1     110.099 129.044 138.392  0.00  0.00    +0.000 OA
ATOM     30  C   UNL     1     110.576 129.627 138.729  0.00  0.00    +0.000 C 
ENDBRANCH  27  30
ENDBRANCH  19  28
ENDBRANCH   2  19
BRANCH   3  31
ATOM     31  O   UNL     1     113.292 127.303 140.458  0.00  0.00    +0.000 OA
BRANCH  31  40
ATOM     32  O   UNL     1     111.965 126.914 140.814  0.00  0.00    +0.000 OA
ATOM     33  O   UNL     1     111.883 128.730 142.494  0.00  0.00    +0.000 OA
ATOM     34  O   UNL     1     110.582 127.736 142.291  0.00  0.00    +0.000 OA
ATOM     35  O   UNL     1     113.238 128.513 141.577  0.00  0.00    +0.000 OA
ATOM     36  C   UNL     1     111.910 128.125 141.934  0.00  0.00    +0.000 C 
ATOM     37  C   UNL     1     111.260 127.628 141.833  0.00  0.00    +0.000 C 
ATOM     38  C   UNL     1     112.588 128.017 141.476  0.00  0.00    +0.000 C 
ATOM     39  C   UNL     1     111.286 127.022 141.273  0.00  0.00    +0.000 C 
ATOM     40  C   UNL     1     112.615 127.412 140.916  0.00  0.00    +0.000 C 
BRANCH  39  42
ATOM     41  O   UNL     1     110.721 125.710 141.264  0.00  0.00    +0.000 OA
ATOM     42  C   UNL     1     110.636 126.525 141.171  0.00  0.00    +0.000 C 
ENDBRANCH  39  42
ENDBRANCH  31  40
ENDBRANCH   3  31
TORSDOF 9
ENDMDL
MODEL 2
REMARK VINA RESULT:      -9.2      2.019      2.889
REMARK  Name = 42607606
REMARK  9 active torsions:
REMARK  status: ('A' for Active; 'I' for Inactive)
REMARK    1  A    between atoms: O_3  and  C_24
REMARK    2  A    between atoms: O_3  and  C_28
REMARK    3  A    between atoms: O_4  and  C_25
REMARK    4  A    between atoms: O_4  and  C_29
REMARK    5  A    between atoms: C_21  and  C_26
REMARK    6  A    between atoms: C_23  and  C_27
REMARK    7  A    between atoms: C_31  and  C_34
REMARK    8  A    between atoms: C_34  and  C_35
REMARK    9  A    between atoms: C_36  and  C_37
REMARK                            x       y       z     vdW  Elec       q    Type
REMARK                         _______ _______ _______ _____ _____    ______ ____
ROOT
ATOM      1  O   UNL     1     113.859 126.631 140.620  0.00  0.00    +0.000 OA
ATOM      2  C   UNL     1     112.789 128.258 139.632  0.00  0.00    +0.000 A 
ATOM      3  C   UNL     1     113.453 128.769 140.789  0.00  0.00    +0.000 A 
ATOM      4  C   UNL     1     112.974 128.889 140.129  0.00  0.00    +0.000 A 
ATOM      5  C   UNL     1     113.084 127.504 139.796  0.00  0.00    +0.000 A 
ATOM      6  C   UNL     1     113.748 128.016 140.953  0.00  0.00    +0.000 A 
ATOM      7  C   UNL     1     113.563 127.384 140.456  0.00  0.00    +0.000 A 
ENDROOT
BRANCH   5   9
ATOM      8  O   UNL     1     112.188 126.466 139.396  0.00  0.00    +0.000 OA
ATOM      9  C   UNL     1     112.899 126.872 139.299  0.00  0.00    +0.000 C 
BRANCH   9  10
ATOM     10  C   UNL     1     113.426 126.647 138.705  0.00  0.00    +0.000 C 
ATOM     11  C   UNL     1     113.252 126.001 138.223  0.00  0.00    +0.000 C 
BRANCH  11  13
ATOM     12  O   UNL     1     115.359 125.102 135.848  0.00  0.00    +0.000 OA
ATOM     13  C   UNL     1     113.779 125.776 137.628  0.00  0.00    +0.000 A 
ATOM     14  C   UNL     1     114.269 125.123 137.739  0.00  0.00    +0.000 A 
ATOM     15  C   UNL     1     113.814 126.205 136.925  0.00  0.00    +0.000 A 
ATOM     16  C   UNL     1     114.796 124.898 137.145  0.00  0.00    +0.000 A 
ATOM     17  C   UNL     1     114.341 125.980 136.331  0.00  0.00    +0.000 A 
ATOM     18  C   UNL     1     114.832 125.327 136.441  0.00  0.00    +0.000 A 
ENDBRANCH  11  13
ENDBRANCH   9  10
ENDBRANCH   5   9
BRANCH   2  19
ATOM     19  O   UNL     1     112.309 128.378 138.972  0.00  0.00    +0.000 OA
BRANCH  19  28
ATOM     20  O   UNL     1     112.963 129.444 138.282  0.00  0.00    +0.000 OA
ATOM     21  O   UNL     1     110.831 130.697 138.197  0.00  0.00    +0.000 OA
ATOM     22  O   UNL     1     112.196 131.346 137.536  0.00  0.00    +0.000 OA
ATOM     23  O   UNL     1     110.887 129.214 138.915  0.00  0.00    +0.000 OA
ATOM     24  C   UNL     1     111.541 130.280 138.226  0.00  0.00    +0.000 C 
ATOM     25  C   UNL     1     112.224 130.605 137.895  0.00  0.00    +0.000 C 
ATOM     26  C   UNL     1     111.569 129.538 138.585  0.00  0.00    +0.000 C 
ATOM     27  C   UNL     1     112.935 130.186 137.923  0.00  0.00    +0.000 C 
ATOM     28  C   UNL     1     112.281 129.120 138.613  0.00  0.00    +0.000 C 
BRANCH  27  30
ATOM     29  O   UNL     1     114.116 130.042 137.131  0.00  0.00    +0.000 OA
ATOM     30  C   UNL     1     113.617 130.511 137.592  0.00  0.00    +0.000 C 
ENDBRANCH  27  30
ENDBRANCH  19  28
ENDBRANCH   2  19
BRANCH   3  31
ATOM     31  O   UNL     1     113.638 129.401 141.286  0.00  0.00    +0.000 OA
BRANCH  31  40
ATOM     32  O   UNL     1     112.539 129.246 142.185  0.00  0.00    +0.000 OA
ATOM     33  O   UNL     1     112.340 131.706 142.366  0.00  0.00    +0.000 OA
ATOM     34  O   UNL     1     111.307 130.732 143.204  0.00  0.00    +0.000 OA
ATOM     35  O   UNL     1     113.506 131.040 141.406  0.00  0.00    +0.000 OA
ATOM     36  C   UNL     1     112.406 130.886 142.306  0.00  0.00    +0.000 C 
ATOM     37  C   UNL     1     111.890 130.399 142.725  0.00  0.00    +0.000 C 
ATOM     38  C   UNL     1     112.990 130.553 141.825  0.00  0.00    +0.000 C 
ATOM     39  C   UNL     1     111.955 129.579 142.665  0.00  0.00    +0.000 C 
ATOM     40  C   UNL     1     113.056 129.734 141.765  0.00  0.00    +0.000 C 
BRANCH  39  42
ATOM     41  O   UNL     1     111.736 128.487 143.560  0.00  0.00    +0.000 OA
ATOM     42  C   UNL     1     111.439 129.092 143.084  0.00  0.00    +0.000 C 
ENDBRANCH  39  42
ENDBRANCH  31  40
ENDBRANCH   3  31
TORSDOF 9
ENDMDL
MODEL 3
REMARK VINA RESULT:      -9.1      2.017      3.786
REMARK  Name = 42607606
REMARK  9 active torsions:
REMARK  status: ('A' for Active; 'I' for Inactive)
REMARK    1  A    between atoms: O_3  and  C_24
REMARK    2  A    between atoms: O_3  and  C_28
REMARK    3  A    between atoms: O_4  and  C_25
REMARK    4  A    between atoms: O_4  and  C_29
REMARK    5  A    between atoms: C_21  and  C_26
REMARK    6  A    between atoms: C_23  and  C_27
REMARK    7  A    between atoms: C_31  and  C_34
REMARK    8  A    between atoms: C_34  and  C_35
REMARK    9  A    between atoms: C_36  and  C_37
REMARK                            x       y       z     vdW  Elec       q    Type
REMARK                         _______ _______ _______ _____ _____    ______ ____
ROOT
ATOM      1  O   UNL     1     111.476 128.792 135.223  0.00  0.00    +0.000 OA
ATOM      2  C   UNL     1     112.632 129.661 136.858  0.00  0.00    +0.000 A 
ATOM      3  C   UNL     1     111.600 130.573 136.478  0.00  0.00    +0.000 A 
ATOM      4  C   UNL     1     112.243 130.383 136.957  0.00  0.00    +0.000 A 
ATOM      5  C   UNL     1     112.375 129.131 136.280  0.00  0.00    +0.000 A 
ATOM      6  C   UNL     1     111.344 130.044 135.900  0.00  0.00    +0.000 A 
ATOM      7  C   UNL     1     111.732 129.322 135.801  0.00  0.00    +0.000 A 
ENDROOT
BRANCH   5   9
ATOM      8  O   UNL     1     113.481 128.379 135.775  0.00  0.00    +0.000 OA
ATOM      9  C   UNL     1     112.764 128.410 136.181  0.00  0.00    +0.000 C 
BRANCH   9  10
ATOM     10  C   UNL     1     112.433 127.719 136.489  0.00  0.00    +0.000 C 
ATOM     11  C   UNL     1     112.821 126.998 136.390  0.00  0.00    +0.000 C 
BRANCH  11  13
ATOM     12  O   UNL     1     111.502 124.234 137.620  0.00  0.00    +0.000 OA
ATOM     13  C   UNL     1     112.491 126.306 136.698  0.00  0.00    +0.000 A 
ATOM     14  C   UNL     1     112.600 126.116 137.492  0.00  0.00    +0.000 A 
ATOM     15  C   UNL     1     112.052 125.807 136.210  0.00  0.00    +0.000 A 
ATOM     16  C   UNL     1     112.271 125.425 137.800  0.00  0.00    +0.000 A 
ATOM     17  C   UNL     1     111.722 125.115 136.518  0.00  0.00    +0.000 A 
ATOM     18  C   UNL     1     111.831 124.925 137.312  0.00  0.00    +0.000 A 
ENDBRANCH  11  13
ENDBRANCH   9  10
ENDBRANCH   5   9
BRANCH   2  19
ATOM     19  O   UNL     1     113.276 129.470 137.337  0.00  0.00    +0.000 OA
BRANCH  19  28
ATOM     20  O   UNL     1     112.747 129.444 138.663  0.00  0.00    +0.000 OA
ATOM     21  O   UNL     1     114.469 131.071 139.382  0.00  0.00    +0.000 OA
ATOM     22  O   UNL     1     113.366 130.502 140.469  0.00  0.00    +0.000 OA
ATOM     23  O   UNL     1     114.424 130.554 137.816  0.00  0.00    +0.000 OA
ATOM     24  C   UNL     1     113.895 130.528 139.142  0.00  0.00    +0.000 C 
ATOM     25  C   UNL     1     113.343 130.245 139.687  0.00  0.00    +0.000 C 
ATOM     26  C   UNL     1     113.872 130.271 138.360  0.00  0.00    +0.000 C 
ATOM     27  C   UNL     1     112.769 129.702 139.447  0.00  0.00    +0.000 C 
ATOM     28  C   UNL     1     113.298 129.728 138.120  0.00  0.00    +0.000 C 
BRANCH  27  30
ATOM     29  O   UNL     1     111.807 128.719 139.836  0.00  0.00    +0.000 OA
ATOM     30  C   UNL     1     112.218 129.418 139.991  0.00  0.00    +0.000 C 
ENDBRANCH  27  30
ENDBRANCH  19  28
ENDBRANCH   2  19
BRANCH   3  31
ATOM     31  O   UNL     1     111.212 131.294 136.577  0.00  0.00    +0.000 OA
BRANCH  31  40
ATOM     32  O   UNL     1     110.125 130.803 137.363  0.00  0.00    +0.000 OA
ATOM     33  O   UNL     1     110.172 132.872 138.720  0.00  0.00    +0.000 OA
ATOM     34  O   UNL     1     109.069 131.692 139.055  0.00  0.00    +0.000 OA
ATOM     35  O   UNL     1     111.243 132.673 137.481  0.00  0.00    +0.000 OA
ATOM     36  C   UNL     1     110.156 132.183 138.269  0.00  0.00    +0.000 C 
ATOM     37  C   UNL     1     109.605 131.593 138.436  0.00  0.00    +0.000 C 
ATOM     38  C   UNL     1     110.692 132.083 137.648  0.00  0.00    +0.000 C 
ATOM     39  C   UNL     1     109.589 130.902 137.984  0.00  0.00    +0.000 C 
ATOM     40  C   UNL     1     110.676 131.394 137.197  0.00  0.00    +0.000 C 
BRANCH  39  42
ATOM     41  O   UNL     1     108.586 129.984 137.543  0.00  0.00    +0.000 OA
ATOM     42  C   UNL     1     109.038 130.312 138.151  0.00  0.00    +0.000 C 
ENDBRANCH  39  42
ENDBRANCH  31  40
ENDBRANCH   3  31
TORSDOF 9
ENDMDL
MODEL 4
REMARK VINA RESULT:      -9.0      1.700      2.435
REMARK  Name = 42607606
REMARK  9 active torsions:
REMARK  status: ('A' for Active; 'I' for Inactive)
REMARK    1  A    between atoms: O_3  and  C_24
REMARK    2  A    between atoms: O_3  and  C_28
REMARK    3  A    between atoms: O_4  and  C_25
REMARK    4  A    between atoms: O_4  and  C_29
REMARK    5  A    between atoms: C_21  and  C_26
REMARK    6  A    between atoms: C_23  and  C_27
REMARK    7  A    between atoms: C_31  and  C_34
REMARK    8  A    between atoms: C_34  and  C_35
REMARK    9  A    between atoms: C_36  and  C_37
REMARK                            x       y       z     vdW  Elec       q    Type
REMARK                         _______ _______ _______ _____ _____    ______ ____
ROOT
ATOM      1  O   UNL     1     112.119 126.414 140.410  0.00  0.00    +0.000 OA
ATOM      2  C   UNL     1     112.512 127.984 138.945  0.00  0.00    +0.000 A 
ATOM      3  C   UNL     1     113.388 128.155 140.061  0.00  0.00    +0.000 A 
ATOM      4  C   UNL     1     113.116 128.400 139.322  0.00  0.00    +0.000 A 
ATOM      5  C   UNL     1     112.179 127.321 139.308  0.00  0.00    +0.000 A 
ATOM      6  C   UNL     1     113.056 127.493 140.424  0.00  0.00    +0.000 A 
ATOM      7  C   UNL     1     112.451 127.076 140.047  0.00  0.00    +0.000 A 
ENDROOT
BRANCH   5   9
ATOM      8  O   UNL     1     110.786 127.076 139.102  0.00  0.00    +0.000 OA
ATOM      9  C   UNL     1     111.575 126.905 138.931  0.00  0.00    +0.000 C 
BRANCH   9  10
ATOM     10  C   UNL     1     111.760 126.316 138.383  0.00  0.00    +0.000 C 
ATOM     11  C   UNL     1     111.157 125.875 138.034  0.00  0.00    +0.000 C 
BRANCH  11  13
ATOM     12  O   UNL     1     111.897 123.523 135.840  0.00  0.00    +0.000 OA
ATOM     13  C   UNL     1     111.343 125.286 137.485  0.00  0.00    +0.000 A 
ATOM     14  C   UNL     1     111.627 124.557 137.743  0.00  0.00    +0.000 A 
ATOM     15  C   UNL     1     111.242 125.429 136.679  0.00  0.00    +0.000 A 
ATOM     16  C   UNL     1     111.813 123.969 137.195  0.00  0.00    +0.000 A 
ATOM     17  C   UNL     1     111.427 124.840 136.130  0.00  0.00    +0.000 A 
ATOM     18  C   UNL     1     111.712 124.111 136.388  0.00  0.00    +0.000 A 
ENDBRANCH  11  13
ENDBRANCH   9  10
ENDBRANCH   5   9
BRANCH   2  19
ATOM     19  O   UNL     1     112.240 128.229 138.206  0.00  0.00    +0.000 OA
BRANCH  19  28
ATOM     20  O   UNL     1     111.692 129.525 138.455  0.00  0.00    +0.000 OA
ATOM     21  O   UNL     1     113.090 130.464 136.641  0.00  0.00    +0.000 OA
ATOM     22  O   UNL     1     112.076 131.447 137.495  0.00  0.00    +0.000 OA
ATOM     23  O   UNL     1     113.172 128.856 136.997  0.00  0.00    +0.000 OA
ATOM     24  C   UNL     1     112.624 130.151 137.246  0.00  0.00    +0.000 C 
ATOM     25  C   UNL     1     112.118 130.643 137.672  0.00  0.00    +0.000 C 
ATOM     26  C   UNL     1     112.666 129.347 137.423  0.00  0.00    +0.000 C 
ATOM     27  C   UNL     1     111.651 130.329 138.277  0.00  0.00    +0.000 C 
ATOM     28  C   UNL     1     112.199 129.033 138.029  0.00  0.00    +0.000 C 
BRANCH  27  30
ATOM     29  O   UNL     1     110.492 130.502 139.095  0.00  0.00    +0.000 OA
ATOM     30  C   UNL     1     111.145 130.821 138.704  0.00  0.00    +0.000 C 
ENDBRANCH  27  30
ENDBRANCH  19  28
ENDBRANCH   2  19
BRANCH   3  31
ATOM     31  O   UNL     1     113.992 128.571 140.438  0.00  0.00    +0.000 OA
BRANCH  31  40
ATOM     32  O   UNL     1     113.168 129.321 141.332  0.00  0.00    +0.000 OA
ATOM     33  O   UNL     1     114.630 131.294 141.024  0.00  0.00    +0.000 OA
ATOM     34  O   UNL     1     113.320 131.387 142.020  0.00  0.00    +0.000 OA
ATOM     35  O   UNL     1     114.966 129.885 140.232  0.00  0.00    +0.000 OA
ATOM     36  C   UNL     1     114.143 130.637 141.127  0.00  0.00    +0.000 C 
ATOM     37  C   UNL     1     113.488 130.683 141.625  0.00  0.00    +0.000 C 
ATOM     38  C   UNL     1     114.311 129.932 140.730  0.00  0.00    +0.000 C 
ATOM     39  C   UNL     1     113.000 130.026 141.728  0.00  0.00    +0.000 C 
ATOM     40  C   UNL     1     113.824 129.275 140.833  0.00  0.00    +0.000 C 
BRANCH  39  42
ATOM     41  O   UNL     1     112.258 129.535 142.847  0.00  0.00    +0.000 OA
ATOM     42  C   UNL     1     112.345 130.073 142.226  0.00  0.00    +0.000 C 
ENDBRANCH  39  42
ENDBRANCH  31  40
ENDBRANCH   3  31
TORSDOF 9
ENDMDL
MODEL 5
REMARK VINA RESULT:      -9.0      2.324      4.292
REMARK  Name = 42607606
REMARK  9 active torsions:
REMARK  status: ('A' for Active; 'I' for Inactive)
REMARK    1  A    between atoms: O_3  and  C_24
REMARK    2  A    between atoms: O_3  and  C_28
REMARK    3  A    between atoms: O_4  and  C_25
REMARK    4  A    between atoms: O_4  and  C_29
REMARK    5  A    between atoms: C_21  and  C_26
REMARK    6  A    between atoms: C_23  and  C_27
REMARK    7  A    between atoms: C_31  and  C_34
REMARK    8  A    between atoms: C_34  and  C_35
REMARK    9  A    between atoms: C_36  and  C_37
REMARK                            x       y       z     vdW  Elec       q    Type
REMARK                         _______ _______ _______ _____ _____    ______ ____
ROOT
ATOM      1  O   UNL     1     113.198 129.075 138.221  0.00  0.00    +0.000 OA
ATOM      2  C   UNL     1     111.268 128.339 137.516  0.00  0.00    +0.000 A 
ATOM      3  C   UNL     1     111.057 129.226 138.616  0.00  0.00    +0.000 A 
ATOM      4  C   UNL     1     110.756 128.724 138.036  0.00  0.00    +0.000 A 
ATOM      5  C   UNL     1     112.083 128.456 137.579  0.00  0.00    +0.000 A 
ATOM      6  C   UNL     1     111.871 129.343 138.679  0.00  0.00    +0.000 A 
ATOM      7  C   UNL     1     112.384 128.958 138.159  0.00  0.00    +0.000 A 
ENDROOT
BRANCH   5   9
ATOM      8  O   UNL     1     112.854 128.453 136.376  0.00  0.00    +0.000 OA
ATOM      9  C   UNL     1     112.595 128.071 137.059  0.00  0.00    +0.000 C 
BRANCH   9  10
ATOM     10  C   UNL     1     112.848 127.303 137.224  0.00  0.00    +0.000 C 
ATOM     11  C   UNL     1     113.384 126.929 136.721  0.00  0.00    +0.000 C 
BRANCH  11  13
ATOM     12  O   UNL     1     114.395 123.857 137.380  0.00  0.00    +0.000 OA
ATOM     13  C   UNL     1     113.637 126.160 136.886  0.00  0.00    +0.000 A 
ATOM     14  C   UNL     1     113.277 125.519 136.514  0.00  0.00    +0.000 A 
ATOM     15  C   UNL     1     114.250 126.035 137.423  0.00  0.00    +0.000 A 
ATOM     16  C   UNL     1     113.529 124.751 136.678  0.00  0.00    +0.000 A 
ATOM     17  C   UNL     1     114.503 125.266 137.588  0.00  0.00    +0.000 A 
ATOM     18  C   UNL     1     114.143 124.625 137.216  0.00  0.00    +0.000 A 
ENDBRANCH  11  13
ENDBRANCH   9  10
ENDBRANCH   5   9
BRANCH   2  19
ATOM     19  O   UNL     1     110.966 127.837 136.935  0.00  0.00    +0.000 OA
BRANCH  19  28
ATOM     20  O   UNL     1     110.122 128.691 136.162  0.00  0.00    +0.000 OA
ATOM     21  O   UNL     1     108.256 127.087 136.427  0.00  0.00    +0.000 OA
ATOM     22  O   UNL     1     108.034 128.476 135.564  0.00  0.00    +0.000 OA
ATOM     23  O   UNL     1     109.722 126.768 137.112  0.00  0.00    +0.000 OA
ATOM     24  C   UNL     1     108.878 127.621 136.338  0.00  0.00    +0.000 C 
ATOM     25  C   UNL     1     108.767 128.316 135.907  0.00  0.00    +0.000 C 
ATOM     26  C   UNL     1     109.611 127.462 136.681  0.00  0.00    +0.000 C 
ATOM     27  C   UNL     1     109.389 128.851 135.818  0.00  0.00    +0.000 C 
ATOM     28  C   UNL     1     110.234 127.997 136.593  0.00  0.00    +0.000 C 
BRANCH  27  30
ATOM     29  O   UNL     1     109.904 129.870 134.958  0.00  0.00    +0.000 OA
ATOM     30  C   UNL     1     109.278 129.545 135.387  0.00  0.00    +0.000 C 
ENDBRANCH  27  30
ENDBRANCH  19  28
ENDBRANCH   2  19
BRANCH   3  31
ATOM     31  O   UNL     1     110.545 129.611 139.136  0.00  0.00    +0.000 OA
BRANCH  31  40
ATOM     32  O   UNL     1     110.598 130.904 138.530  0.00  0.00    +0.000 OA
ATOM     33  O   UNL     1     108.178 131.202 138.955  0.00  0.00    +0.000 OA
ATOM     34  O   UNL     1     109.037 132.396 138.208  0.00  0.00    +0.000 OA
ATOM     35  O   UNL     1     108.932 129.810 139.419  0.00  0.00    +0.000 OA
ATOM     36  C   UNL     1     108.984 131.103 138.813  0.00  0.00    +0.000 C 
ATOM     37  C   UNL     1     109.414 131.700 138.440  0.00  0.00    +0.000 C 
ATOM     38  C   UNL     1     109.362 130.406 139.045  0.00  0.00    +0.000 C 
ATOM     39  C   UNL     1     110.221 131.601 138.297  0.00  0.00    +0.000 C 
ATOM     40  C   UNL     1     110.168 130.307 138.904  0.00  0.00    +0.000 C 
BRANCH  39  42
ATOM     41  O   UNL     1     111.022 132.049 137.202  0.00  0.00    +0.000 OA
ATOM     42  C   UNL     1     110.650 132.197 137.924  0.00  0.00    +0.000 C 
ENDBRANCH  39  42
ENDBRANCH  31  40
ENDBRANCH   3  31
TORSDOF 9
ENDMDL
MODEL 6
REMARK VINA RESULT:      -9.0      2.159      4.410
REMARK  Name = 42607606
REMARK  9 active torsions:
REMARK  status: ('A' for Active; 'I' for Inactive)
REMARK    1  A    between atoms: O_3  and  C_24
REMARK    2  A    between atoms: O_3  and  C_28
REMARK    3  A    between atoms: O_4  and  C_25
REMARK    4  A    between atoms: O_4  and  C_29
REMARK    5  A    between atoms: C_21  and  C_26
REMARK    6  A    between atoms: C_23  and  C_27
REMARK    7  A    between atoms: C_31  and  C_34
REMARK    8  A    between atoms: C_34  and  C_35
REMARK    9  A    between atoms: C_36  and  C_37
REMARK                            x       y       z     vdW  Elec       q    Type
REMARK                         _______ _______ _______ _____ _____    ______ ____
ROOT
ATOM      1  O   UNL     1     109.893 127.467 135.209  0.00  0.00    +0.000 OA
ATOM      2  C   UNL     1     110.819 128.311 136.996  0.00  0.00    +0.000 A 
ATOM      3  C   UNL     1     109.496 128.833 136.864  0.00  0.00    +0.000 A 
ATOM      4  C   UNL     1     110.210 128.793 137.274  0.00  0.00    +0.000 A 
ATOM      5  C   UNL     1     110.713 127.868 136.307  0.00  0.00    +0.000 A 
ATOM      6  C   UNL     1     109.390 128.391 136.176  0.00  0.00    +0.000 A 
ATOM      7  C   UNL     1     109.999 127.908 135.897  0.00  0.00    +0.000 A 
ENDROOT
BRANCH   5   9
ATOM      8  O   UNL     1     111.851 127.674 135.465  0.00  0.00    +0.000 OA
ATOM      9  C   UNL     1     111.322 127.387 136.029  0.00  0.00    +0.000 C 
BRANCH   9  10
ATOM     10  C   UNL     1     111.402 126.617 136.316  0.00  0.00    +0.000 C 
ATOM     11  C   UNL     1     111.979 126.118 136.001  0.00  0.00    +0.000 C 
BRANCH  11  13
ATOM     12  O   UNL     1     112.297 123.040 137.149  0.00  0.00    +0.000 OA
ATOM     13  C   UNL     1     112.059 125.348 136.289  0.00  0.00    +0.000 A 
ATOM     14  C   UNL     1     112.681 125.159 136.795  0.00  0.00    +0.000 A 
ATOM     15  C   UNL     1     111.515 124.768 136.068  0.00  0.00    +0.000 A 
ATOM     16  C   UNL     1     112.761 124.390 137.082  0.00  0.00    +0.000 A 
ATOM     17  C   UNL     1     111.595 123.997 136.355  0.00  0.00    +0.000 A 
ATOM     18  C   UNL     1     112.217 123.809 136.861  0.00  0.00    +0.000 A 
ENDBRANCH  11  13
ENDBRANCH   9  10
ENDBRANCH   5   9
BRANCH   2  19
ATOM     19  O   UNL     1     111.534 128.271 137.406  0.00  0.00    +0.000 OA
BRANCH  19  28
ATOM     20  O   UNL     1     112.016 129.613 137.351  0.00  0.00    +0.000 OA
ATOM     21  O   UNL     1     112.337 129.600 139.805  0.00  0.00    +0.000 OA
ATOM     22  O   UNL     1     112.713 130.948 138.931  0.00  0.00    +0.000 OA
ATOM     23  O   UNL     1     111.747 128.262 139.042  0.00  0.00    +0.000 OA
ATOM     24  C   UNL     1     112.230 129.605 138.987  0.00  0.00    +0.000 C 
ATOM     25  C   UNL     1     112.418 130.279 138.550  0.00  0.00    +0.000 C 
ATOM     26  C   UNL     1     111.935 128.935 138.606  0.00  0.00    +0.000 C 
ATOM     27  C   UNL     1     112.311 130.284 137.731  0.00  0.00    +0.000 C 
ATOM     28  C   UNL     1     111.828 128.940 137.787  0.00  0.00    +0.000 C 
BRANCH  27  30
ATOM     29  O   UNL     1     112.757 130.885 136.514  0.00  0.00    +0.000 OA
ATOM     30  C   UNL     1     112.499 130.957 137.295  0.00  0.00    +0.000 C 
ENDBRANCH  27  30
ENDBRANCH  19  28
ENDBRANCH   2  19
BRANCH   3  31
ATOM     31  O   UNL     1     108.887 129.314 137.142  0.00  0.00    +0.000 OA
BRANCH  31  40
ATOM     32  O   UNL     1     109.002 130.366 136.181  0.00  0.00    +0.000 OA
ATOM     33  O   UNL     1     108.619 132.037 137.966  0.00  0.00    +0.000 OA
ATOM     34  O   UNL     1     108.862 132.533 136.412  0.00  0.00    +0.000 OA
ATOM     35  O   UNL     1     108.631 130.428 138.331  0.00  0.00    +0.000 OA
ATOM     36  C   UNL     1     108.747 131.481 137.371  0.00  0.00    +0.000 C 
ATOM     37  C   UNL     1     108.868 131.728 136.594  0.00  0.00    +0.000 C 
ATOM     38  C   UNL     1     108.753 130.675 137.554  0.00  0.00    +0.000 C 
ATOM     39  C   UNL     1     108.996 131.171 135.999  0.00  0.00    +0.000 C 
ATOM     40  C   UNL     1     108.881 130.119 136.959  0.00  0.00    +0.000 C 
BRANCH  39  42
ATOM     41  O   UNL     1     108.621 131.149 134.620  0.00  0.00    +0.000 OA
ATOM     42  C   UNL     1     109.118 131.419 135.222  0.00  0.00    +0.000 C 
ENDBRANCH  39  42
ENDBRANCH  31  40
ENDBRANCH   3  31
TORSDOF 9
ENDMDL
MODEL 7
REMARK VINA RESULT:      -8.9      1.851      5.051
REMARK  Name = 42607606
REMARK  9 active torsions:
REMARK  status: ('A' for Active; 'I' for Inactive)
REMARK    1  A    between atoms: O_3  and  C_24
REMARK    2  A    between atoms: O_3  and  C_28
REMARK    3  A    between atoms: O_4  and  C_25
REMARK    4  A    between atoms: O_4  and  C_29
REMARK    5  A    between atoms: C_21  and  C_26
REMARK    6  A    between atoms: C_23  and  C_27
REMARK    7  A    between atoms: C_31  and  C_34
REMARK    8  A    between atoms: C_34  and  C_35
REMARK    9  A    between atoms: C_36  and  C_37
REMARK                            x       y       z     vdW  Elec       q    Type
REMARK                         _______ _______ _______ _____ _____    ______ ____
ROOT
ATOM      1  O   UNL     1     113.260 128.942 136.409  0.00  0.00    +0.000 OA
ATOM      2  C   UNL     1     111.568 127.994 137.411  0.00  0.00    +0.000 A 
ATOM      3  C   UNL     1     112.003 127.159 136.337  0.00  0.00    +0.000 A 
ATOM      4  C   UNL     1     111.491 127.304 136.966  0.00  0.00    +0.000 A 
ATOM      5  C   UNL     1     112.158 128.540 137.225  0.00  0.00    +0.000 A 
ATOM      6  C   UNL     1     112.593 127.705 136.150  0.00  0.00    +0.000 A 
ATOM      7  C   UNL     1     112.670 128.396 136.595  0.00  0.00    +0.000 A 
ENDROOT
BRANCH   5   9
ATOM      8  O   UNL     1     112.745 129.249 138.318  0.00  0.00    +0.000 OA
ATOM      9  C   UNL     1     112.236 129.231 137.670  0.00  0.00    +0.000 C 
BRANCH   9  10
ATOM     10  C   UNL     1     111.802 129.903 137.466  0.00  0.00    +0.000 C 
ATOM     11  C   UNL     1     111.911 130.606 137.884  0.00  0.00    +0.000 C 
BRANCH  11  13
ATOM     12  O   UNL     1     110.179 133.294 137.067  0.00  0.00    +0.000 OA
ATOM     13  C   UNL     1     111.478 131.278 137.679  0.00  0.00    +0.000 A 
ATOM     14  C   UNL     1     110.773 131.449 138.071  0.00  0.00    +0.000 A 
ATOM     15  C   UNL     1     111.750 131.778 137.083  0.00  0.00    +0.000 A 
ATOM     16  C   UNL     1     110.340 132.121 137.868  0.00  0.00    +0.000 A 
ATOM     17  C   UNL     1     111.317 132.451 136.879  0.00  0.00    +0.000 A 
ATOM     18  C   UNL     1     110.613 132.622 137.271  0.00  0.00    +0.000 A 
ENDBRANCH  11  13
ENDBRANCH   9  10
ENDBRANCH   5   9
BRANCH   2  19
ATOM     19  O   UNL     1     111.056 128.138 138.041  0.00  0.00    +0.000 OA
BRANCH  19  28
ATOM     20  O   UNL     1     111.343 127.082 138.959  0.00  0.00    +0.000 OA
ATOM     21  O   UNL     1     108.938 126.506 139.049  0.00  0.00    +0.000 OA
ATOM     22  O   UNL     1     110.027 125.641 139.936  0.00  0.00    +0.000 OA
ATOM     23  O   UNL     1     109.452 127.754 138.102  0.00  0.00    +0.000 OA
ATOM     24  C   UNL     1     109.740 126.698 139.019  0.00  0.00    +0.000 C 
ATOM     25  C   UNL     1     110.284 126.265 139.463  0.00  0.00    +0.000 C 
ATOM     26  C   UNL     1     109.996 127.322 138.545  0.00  0.00    +0.000 C 
ATOM     27  C   UNL     1     111.087 126.457 139.433  0.00  0.00    +0.000 C 
ATOM     28  C   UNL     1     110.799 127.514 138.515  0.00  0.00    +0.000 C 
BRANCH  27  30
ATOM     29  O   UNL     1     112.368 126.349 140.056  0.00  0.00    +0.000 OA
ATOM     30  C   UNL     1     111.631 126.025 139.876  0.00  0.00    +0.000 C 
ENDBRANCH  27  30
ENDBRANCH  19  28
ENDBRANCH   2  19
BRANCH   3  31
ATOM     31  O   UNL     1     111.926 126.469 135.892  0.00  0.00    +0.000 OA
BRANCH  31  40
ATOM     32  O   UNL     1     113.023 125.742 136.448  0.00  0.00    +0.000 OA
ATOM     33  O   UNL     1     111.659 123.677 136.439  0.00  0.00    +0.000 OA
ATOM     34  O   UNL     1     113.209 123.638 136.999  0.00  0.00    +0.000 OA
ATOM     35  O   UNL     1     111.017 125.093 135.885  0.00  0.00    +0.000 OA
ATOM     36  C   UNL     1     112.113 124.365 136.442  0.00  0.00    +0.000 C 
ATOM     37  C   UNL     1     112.888 124.345 136.722  0.00  0.00    +0.000 C 
ATOM     38  C   UNL     1     111.792 125.073 136.165  0.00  0.00    +0.000 C 
ATOM     39  C   UNL     1     113.344 125.034 136.726  0.00  0.00    +0.000 C 
ATOM     40  C   UNL     1     112.247 125.761 136.168  0.00  0.00    +0.000 C 
BRANCH  39  42
ATOM     41  O   UNL     1     114.737 125.288 136.531  0.00  0.00    +0.000 OA
ATOM     42  C   UNL     1     114.119 125.014 137.005  0.00  0.00    +0.000 C 
ENDBRANCH  39  42
ENDBRANCH  31  40
ENDBRANCH   3  31
TORSDOF 9
ENDMDL
MODEL 8
REMARK VINA RESULT:      -8.9      1.856      5.199
REMARK  Name = 42607606
REMARK  9 active torsions:
REMARK  status: ('A' for Active; 'I' for Inactive)
REMARK    1  A    between atoms: O_3  and  C_24
REMARK    2  A    between atoms: O_3  and  C_28
REMARK    3  A    between atoms: O_4  and  C_25
REMARK    4  A    between atoms: O_4  and  C_29
REMARK    5  A    between atoms: C_21  and  C_26
REMARK    6  A    between atoms: C_23  and  C_27
REMARK    7  A    between atoms: C_31  and  C_34
REMARK    8  A    between atoms: C_34  and  C_35
REMARK    9  A    between atoms: C_36  and  C_37
REMARK                            x       y       z     vdW  Elec       q    Type
REMARK                         _______ _______ _______ _____ _____    ______ ____
ROOT
ATOM      1  O   UNL     1     113.189 128.793 136.272  0.00  0.00    +0.000 OA
ATOM      2  C   UNL     1     111.529 127.835 137.316  0.00  0.00    +0.000 A 
ATOM      3  C   UNL     1     112.019 126.950 136.308  0.00  0.00    +0.000 A 
ATOM      4  C   UNL     1     111.492 127.113 136.919  0.00  0.00    +0.000 A 
ATOM      5  C   UNL     1     112.095 128.395 137.100  0.00  0.00    +0.000 A 
ATOM      6  C   UNL     1     112.585 127.510 136.091  0.00  0.00    +0.000 A 
ATOM      7  C   UNL     1     112.623 128.233 136.488  0.00  0.00    +0.000 A 
ENDROOT
BRANCH   5   9
ATOM      8  O   UNL     1     111.594 129.716 137.316  0.00  0.00    +0.000 OA
ATOM      9  C   UNL     1     112.132 129.118 137.496  0.00  0.00    +0.000 C 
BRANCH   9  10
ATOM     10  C   UNL     1     112.708 129.241 138.075  0.00  0.00    +0.000 C 
ATOM     11  C   UNL     1     112.741 129.961 138.476  0.00  0.00    +0.000 C 
BRANCH  11  13
ATOM     12  O   UNL     1     115.044 130.454 140.787  0.00  0.00    +0.000 OA
ATOM     13  C   UNL     1     113.317 130.085 139.054  0.00  0.00    +0.000 A 
ATOM     14  C   UNL     1     114.000 130.509 138.872  0.00  0.00    +0.000 A 
ATOM     15  C   UNL     1     113.209 129.783 139.814  0.00  0.00    +0.000 A 
ATOM     16  C   UNL     1     114.576 130.632 139.449  0.00  0.00    +0.000 A 
ATOM     17  C   UNL     1     113.786 129.907 140.393  0.00  0.00    +0.000 A 
ATOM     18  C   UNL     1     114.468 130.331 140.210  0.00  0.00    +0.000 A 
ENDBRANCH  11  13
ENDBRANCH   9  10
ENDBRANCH   5   9
BRANCH   2  19
ATOM     19  O   UNL     1     111.000 127.997 137.928  0.00  0.00    +0.000 OA
BRANCH  19  28
ATOM     20  O   UNL     1     111.274 126.991 138.904  0.00  0.00    +0.000 OA
ATOM     21  O   UNL     1     108.882 126.359 138.924  0.00  0.00    +0.000 OA
ATOM     22  O   UNL     1     109.954 125.563 139.894  0.00  0.00    +0.000 OA
ATOM     23  O   UNL     1     109.405 127.576 137.942  0.00  0.00    +0.000 OA
ATOM     24  C   UNL     1     109.679 126.570 138.917  0.00  0.00    +0.000 C 
ATOM     25  C   UNL     1     110.215 126.171 139.402  0.00  0.00    +0.000 C 
ATOM     26  C   UNL     1     109.940 127.178 138.426  0.00  0.00    +0.000 C 
ATOM     27  C   UNL     1     111.013 126.382 139.396  0.00  0.00    +0.000 C 
ATOM     28  C   UNL     1     110.739 127.389 138.420  0.00  0.00    +0.000 C 
BRANCH  27  30
ATOM     29  O   UNL     1     112.232 126.366 140.142  0.00  0.00    +0.000 OA
ATOM     30  C   UNL     1     111.549 125.984 139.880  0.00  0.00    +0.000 C 
ENDBRANCH  27  30
ENDBRANCH  19  28
ENDBRANCH   2  19
BRANCH   3  31
ATOM     31  O   UNL     1     111.982 126.228 135.911  0.00  0.00    +0.000 OA
BRANCH  31  40
ATOM     32  O   UNL     1     113.112 125.603 136.522  0.00  0.00    +0.000 OA
ATOM     33  O   UNL     1     111.865 123.468 136.642  0.00  0.00    +0.000 OA
ATOM     34  O   UNL     1     113.410 123.553 137.213  0.00  0.00    +0.000 OA
ATOM     35  O   UNL     1     111.151 124.806 135.991  0.00  0.00    +0.000 OA
ATOM     36  C   UNL     1     112.280 124.179 136.602  0.00  0.00    +0.000 C 
ATOM     37  C   UNL     1     113.053 124.222 136.887  0.00  0.00    +0.000 C 
ATOM     38  C   UNL     1     111.923 124.849 136.276  0.00  0.00    +0.000 C 
ATOM     39  C   UNL     1     113.469 124.933 136.848  0.00  0.00    +0.000 C 
ATOM     40  C   UNL     1     112.339 125.559 136.236  0.00  0.00    +0.000 C 
BRANCH  39  42
ATOM     41  O   UNL     1     114.409 125.420 137.808  0.00  0.00    +0.000 OA
ATOM     42  C   UNL     1     114.242 124.976 137.133  0.00  0.00    +0.000 C 
ENDBRANCH  39  42
ENDBRANCH  31  40
ENDBRANCH   3  31
TORSDOF 9
ENDMDL
MODEL 9
REMARK VINA RESULT:      -8.8      2.176      4.315
REMARK  Name = 42607606
REMARK  9 active torsions:
REMARK  status: ('A' for Active; 'I' for Inactive)
REMARK    1  A    between atoms: O_3  and  C_24
REMARK    2  A    between atoms: O_3  and  C_28
REMARK    3  A    between atoms: O_4  and  C_25
REMARK    4  A    between atoms: O_4  and  C_29
REMARK    5  A    between atoms: C_21  and  C_26
REMARK    6  A    between atoms: C_23  and  C_27
REMARK    7  A    between atoms: C_31  and  C_34
REMARK    8  A    between atoms: C_34  and  C_35
REMARK    9  A    between atoms: C_36  and  C_37
REMARK                            x       y       z     vdW  Elec       q    Type
REMARK                         _______ _______ _______ _____ _____    ______ ____
ROOT
ATOM      1  O   UNL     1     112.860 128.382 134.743  0.00  0.00    +0.000 OA
ATOM      2  C   UNL     1     112.436 129.388 136.634  0.00  0.00    +0.000 A 
ATOM      3  C   UNL     1     111.479 129.804 135.658  0.00  0.00    +0.000 A 
ATOM      4  C   UNL     1     111.777 129.838 136.425  0.00  0.00    +0.000 A 
ATOM      5  C   UNL     1     112.797 128.902 136.072  0.00  0.00    +0.000 A 
ATOM      6  C   UNL     1     111.840 129.318 135.097  0.00  0.00    +0.000 A 
ATOM      7  C   UNL     1     112.499 128.867 135.305  0.00  0.00    +0.000 A 
ENDROOT
BRANCH   5   9
ATOM      8  O   UNL     1     114.197 128.810 136.347  0.00  0.00    +0.000 OA
ATOM      9  C   UNL     1     113.456 128.452 136.280  0.00  0.00    +0.000 C 
BRANCH   9  10
ATOM     10  C   UNL     1     113.374 127.643 136.422  0.00  0.00    +0.000 C 
ATOM     11  C   UNL     1     114.032 127.194 136.640  0.00  0.00    +0.000 C 
BRANCH  11  13
ATOM     12  O   UNL     1     113.705 123.960 137.206  0.00  0.00    +0.000 OA
ATOM     13  C   UNL     1     113.950 126.385 136.782  0.00  0.00    +0.000 A 
ATOM     14  C   UNL     1     113.463 126.121 137.392  0.00  0.00    +0.000 A 
ATOM     15  C   UNL     1     114.355 125.842 136.312  0.00  0.00    +0.000 A 
ATOM     16  C   UNL     1     113.381 125.312 137.534  0.00  0.00    +0.000 A 
ATOM     17  C   UNL     1     114.274 125.032 136.454  0.00  0.00    +0.000 A 
ATOM     18  C   UNL     1     113.787 124.768 137.064  0.00  0.00    +0.000 A 
ENDBRANCH  11  13
ENDBRANCH   9  10
ENDBRANCH   5   9
BRANCH   2  19
ATOM     19  O   UNL     1     112.734 129.423 137.402  0.00  0.00    +0.000 OA
BRANCH  19  28
ATOM     20  O   UNL     1     111.643 128.989 138.215  0.00  0.00    +0.000 OA
ATOM     21  O   UNL     1     111.850 131.038 139.588  0.00  0.00    +0.000 OA
ATOM     22  O   UNL     1     110.689 129.920 139.943  0.00  0.00    +0.000 OA
ATOM     23  O   UNL     1     112.872 130.789 138.317  0.00  0.00    +0.000 OA
ATOM     24  C   UNL     1     111.781 130.355 139.130  0.00  0.00    +0.000 C 
ATOM     25  C   UNL     1     111.200 129.796 139.308  0.00  0.00    +0.000 C 
ATOM     26  C   UNL     1     112.292 130.231 138.495  0.00  0.00    +0.000 C 
ATOM     27  C   UNL     1     111.131 129.112 138.850  0.00  0.00    +0.000 C 
ATOM     28  C   UNL     1     112.223 129.547 138.037  0.00  0.00    +0.000 C 
BRANCH  27  30
ATOM     29  O   UNL     1     110.709 127.749 138.933  0.00  0.00    +0.000 OA
ATOM     30  C   UNL     1     110.552 128.554 139.028  0.00  0.00    +0.000 C 
ENDBRANCH  27  30
ENDBRANCH  19  28
ENDBRANCH   2  19
BRANCH   3  31
ATOM     31  O   UNL     1     110.820 130.254 135.450  0.00  0.00    +0.000 OA
BRANCH  31  40
ATOM     32  O   UNL     1     109.869 129.188 135.473  0.00  0.00    +0.000 OA
ATOM     33  O   UNL     1     108.170 130.725 136.409  0.00  0.00    +0.000 OA
ATOM     34  O   UNL     1     107.784 129.148 136.120  0.00  0.00    +0.000 OA
ATOM     35  O   UNL     1     109.688 131.278 136.074  0.00  0.00    +0.000 OA
ATOM     36  C   UNL     1     108.736 130.213 136.097  0.00  0.00    +0.000 C 
ATOM     37  C   UNL     1     108.543 129.424 135.953  0.00  0.00    +0.000 C 
ATOM     38  C   UNL     1     109.496 130.489 135.929  0.00  0.00    +0.000 C 
ATOM     39  C   UNL     1     109.109 128.911 135.640  0.00  0.00    +0.000 C 
ATOM     40  C   UNL     1     110.061 129.977 135.617  0.00  0.00    +0.000 C 
BRANCH  39  42
ATOM     41  O   UNL     1     109.236 127.526 135.968  0.00  0.00    +0.000 OA
ATOM     42  C   UNL     1     108.917 128.123 135.496  0.00  0.00    +0.000 C 
ENDBRANCH  39  42
ENDBRANCH  31  40
ENDBRANCH   3  31
TORSDOF 9
ENDMDL
MODEL 10
REMARK VINA RESULT:      -8.8      1.906      2.856
REMARK  Name = 42607606
REMARK  9 active torsions:
REMARK  status: ('A' for Active; 'I' for Inactive)
REMARK    1  A    between atoms: O_3  and  C_24
REMARK    2  A    between atoms: O_3  and  C_28
REMARK    3  A    between atoms: O_4  and  C_25
REMARK    4  A    between atoms: O_4  and  C_29
REMARK    5  A    between atoms: C_21  and  C_26
REMARK    6  A    between atoms: C_23  and  C_27
REMARK    7  A    between atoms: C_31  and  C_34
REMARK    8  A    between atoms: C_34  and  C_35
REMARK    9  A    between atoms: C_36  and  C_37
REMARK                            x       y       z     vdW  Elec       q    Type
REMARK                         _______ _______ _______ _____ _____    ______ ____
ROOT
ATOM      1  O   UNL     1     113.871 127.985 136.435  0.00  0.00    +0.000 OA
ATOM      2  C   UNL     1     111.983 128.385 137.455  0.00  0.00    +0.000 A 
ATOM      3  C   UNL     1     112.985 129.265 137.965  0.00  0.00    +0.000 A 
ATOM      4  C   UNL     1     112.208 128.993 137.965  0.00  0.00    +0.000 A 
ATOM      5  C   UNL     1     112.538 128.049 136.945  0.00  0.00    +0.000 A 
ATOM      6  C   UNL     1     113.540 128.930 137.455  0.00  0.00    +0.000 A 
ATOM      7  C   UNL     1     113.316 128.321 136.945  0.00  0.00    +0.000 A 
ENDROOT
BRANCH   5   9
ATOM      8  O   UNL     1     112.041 127.616 135.677  0.00  0.00    +0.000 OA
ATOM      9  C   UNL     1     112.314 127.440 136.435  0.00  0.00    +0.000 C 
BRANCH   9  10
ATOM     10  C   UNL     1     112.362 126.655 136.685  0.00  0.00    +0.000 C 
ATOM     11  C   UNL     1     112.171 126.045 136.164  0.00  0.00    +0.000 C 
BRANCH  11  13
ATOM     12  O   UNL     1     112.364 122.905 137.160  0.00  0.00    +0.000 OA
ATOM     13  C   UNL     1     112.219 125.259 136.413  0.00  0.00    +0.000 A 
ATOM     14  C   UNL     1     112.945 124.870 136.409  0.00  0.00    +0.000 A 
ATOM     15  C   UNL     1     111.540 124.865 136.666  0.00  0.00    +0.000 A 
ATOM     16  C   UNL     1     112.994 124.085 136.658  0.00  0.00    +0.000 A 
ATOM     17  C   UNL     1     111.589 124.079 136.915  0.00  0.00    +0.000 A 
ATOM     18  C   UNL     1     112.315 123.689 136.911  0.00  0.00    +0.000 A 
ENDBRANCH  11  13
ENDBRANCH   9  10
ENDBRANCH   5   9
BRANCH   2  19
ATOM     19  O   UNL     1     111.204 128.112 137.455  0.00  0.00    +0.000 OA
BRANCH  19  28
ATOM     20  O   UNL     1     110.447 129.284 137.153  0.00  0.00    +0.000 OA
ATOM     21  O   UNL     1     109.014 128.868 139.127  0.00  0.00    +0.000 OA
ATOM     22  O   UNL     1     108.733 130.179 138.166  0.00  0.00    +0.000 OA
ATOM     23  O   UNL     1     110.249 127.835 138.772  0.00  0.00    +0.000 OA
ATOM     24  C   UNL     1     109.491 129.007 138.469  0.00  0.00    +0.000 C 
ATOM     25  C   UNL     1     109.351 129.663 137.989  0.00  0.00    +0.000 C 
ATOM     26  C   UNL     1     110.109 128.490 138.292  0.00  0.00    +0.000 C 
ATOM     27  C   UNL     1     109.829 129.802 137.330  0.00  0.00    +0.000 C 
ATOM     28  C   UNL     1     110.587 128.629 137.633  0.00  0.00    +0.000 C 
BRANCH  27  30
ATOM     29  O   UNL     1     109.756 130.390 136.030  0.00  0.00    +0.000 OA
ATOM     30  C   UNL     1     109.688 130.457 136.849  0.00  0.00    +0.000 C 
ENDBRANCH  27  30
ENDBRANCH  19  28
ENDBRANCH   2  19
BRANCH   3  31
ATOM     31  O   UNL     1     113.210 129.874 138.475  0.00  0.00    +0.000 OA
BRANCH  31  40
ATOM     32  O   UNL     1     113.554 129.082 139.614  0.00  0.00    +0.000 OA
ATOM     33  O   UNL     1     112.458 130.737 141.093  0.00  0.00    +0.000 OA
ATOM     34  O   UNL     1     113.166 129.395 141.740  0.00  0.00    +0.000 OA
ATOM     35  O   UNL     1     112.480 130.976 139.461  0.00  0.00    +0.000 OA
ATOM     36  C   UNL     1     112.823 130.185 140.601  0.00  0.00    +0.000 C 
ATOM     37  C   UNL     1     113.177 129.515 140.923  0.00  0.00    +0.000 C 
ATOM     38  C   UNL     1     112.834 130.305 139.783  0.00  0.00    +0.000 C 
ATOM     39  C   UNL     1     113.543 128.962 140.431  0.00  0.00    +0.000 C 
ATOM     40  C   UNL     1     113.199 129.754 139.291  0.00  0.00    +0.000 C 
BRANCH  39  42
ATOM     41  O   UNL     1     114.704 128.158 140.646  0.00  0.00    +0.000 OA
ATOM     42  C   UNL     1     113.897 128.292 140.754  0.00  0.00    +0.000 C 
ENDBRANCH  39  42
ENDBRANCH  31  40
ENDBRANCH   3  31
TORSDOF 9
ENDMDL
