MODEL 1
REMARK VINA RESULT:     -10.4      0.000      0.000
REMARK  Name = 131836771
REMARK  7 active torsions:
REMARK  status: ('A' for Active; 'I' for Inactive)
REMARK    1  A    between atoms: O_3  and  C_21
REMARK    2  A    between atoms: O_3  and  C_29
REMARK    3  A    between atoms: O_6  and  C_25
REMARK    4  A    between atoms: O_6  and  C_30
REMARK    5  A    between atoms: C_20  and  C_27
REMARK    6  A    between atoms: C_26  and  C_28
REMARK    7  A    between atoms: C_31  and  C_32
REMARK                            x       y       z     vdW  Elec       q    Type
REMARK                         _______ _______ _______ _____ _____    ______ ____
ROOT
ATOM      1  O   UNL     1     111.846 129.542 135.764  0.00  0.00    +0.000 OA
ATOM      2  O   UNL     1     112.371 131.039 137.663  0.00  0.00    +0.000 OA
ATOM      3  O   UNL     1     113.762 131.078 137.284  0.00  0.00    +0.000 OA
ATOM      4  O   UNL     1     114.639 129.573 134.940  0.00  0.00    +0.000 OA
ATOM      5  C   UNL     1     111.422 130.279 136.911  0.00  0.00    +0.000 A 
ATOM      6  C   UNL     1     111.246 129.780 136.278  0.00  0.00    +0.000 A 
ATOM      7  C   UNL     1     112.196 130.540 137.030  0.00  0.00    +0.000 A 
ATOM      8  C   UNL     1     112.794 130.301 136.515  0.00  0.00    +0.000 A 
ATOM      9  C   UNL     1     112.619 129.802 135.881  0.00  0.00    +0.000 A 
ATOM     10  C   UNL     1     113.597 130.579 136.649  0.00  0.00    +0.000 A 
ATOM     11  C   UNL     1     113.234 129.546 135.338  0.00  0.00    +0.000 A 
ATOM     12  C   UNL     1     114.225 130.334 136.116  0.00  0.00    +0.000 A 
ATOM     13  C   UNL     1     114.042 129.814 135.456  0.00  0.00    +0.000 A 
ENDROOT
BRANCH   6  16
ATOM     14  O   UNL     1     108.151 128.739 135.807  0.00  0.00    +0.000 OA
ATOM     15  C   UNL     1     109.404 128.628 136.484  0.00  0.00    +0.000 A 
ATOM     16  C   UNL     1     110.473 129.520 136.160  0.00  0.00    +0.000 A 
ATOM     17  C   UNL     1     110.179 128.889 136.602  0.00  0.00    +0.000 A 
ATOM     18  C   UNL     1     108.925 128.999 135.925  0.00  0.00    +0.000 A 
ATOM     19  C   UNL     1     109.993 129.891 135.601  0.00  0.00    +0.000 A 
ATOM     20  C   UNL     1     109.220 129.631 135.483  0.00  0.00    +0.000 A 
BRANCH  15  21
ATOM     21  O   UNL     1     109.110 127.996 136.926  0.00  0.00    +0.000 OA
BRANCH  21  29
ATOM     22  O   UNL     1     109.782 126.931 136.251  0.00  0.00    +0.000 OA
ATOM     23  O   UNL     1     110.245 125.846 138.427  0.00  0.00    +0.000 OA
ATOM     24  O   UNL     1     109.418 127.273 138.376  0.00  0.00    +0.000 OA
ATOM     25  O   UNL     1     110.764 125.142 137.028  0.00  0.00    +0.000 OA
ATOM     26  C   UNL     1     110.091 126.208 137.702  0.00  0.00    +0.000 C 
ATOM     27  C   UNL     1     109.678 126.921 137.676  0.00  0.00    +0.000 C 
ATOM     28  C   UNL     1     110.350 125.856 137.002  0.00  0.00    +0.000 C 
ATOM     29  C   UNL     1     109.523 127.283 136.950  0.00  0.00    +0.000 C 
ATOM     30  C   UNL     1     110.196 126.217 136.276  0.00  0.00    +0.000 C 
BRANCH  30  33
ATOM     31  O   UNL     1     111.241 125.951 135.338  0.00  0.00    +0.000 OA
ATOM     32  O   UNL     1     109.929 125.428 135.116  0.00  0.00    +0.000 OA
ATOM     33  C   UNL     1     110.455 125.866 135.577  0.00  0.00    +0.000 C 
ENDBRANCH  30  33
ENDBRANCH  21  29
ENDBRANCH  15  21
ENDBRANCH   6  16
BRANCH   5  34
ATOM     34  O   UNL     1     110.823 130.519 137.426  0.00  0.00    +0.000 OA
BRANCH  34  41
ATOM     35  O   UNL     1     110.733 131.905 136.946  0.00  0.00    +0.000 OA
ATOM     36  O   UNL     1     110.039 133.054 138.606  0.00  0.00    +0.000 OA
ATOM     37  O   UNL     1     110.238 131.301 138.932  0.00  0.00    +0.000 OA
ATOM     38  C   UNL     1     110.298 132.486 138.066  0.00  0.00    +0.000 C 
ATOM     39  C   UNL     1     110.389 131.680 138.216  0.00  0.00    +0.000 C 
ATOM     40  C   UNL     1     110.511 132.625 137.281  0.00  0.00    +0.000 C 
ATOM     41  C   UNL     1     110.658 131.321 137.523  0.00  0.00    +0.000 C 
BRANCH  40  43
ATOM     42  O   UNL     1     110.298 133.402 136.101  0.00  0.00    +0.000 OA
ATOM     43  C   UNL     1     110.502 133.356 136.898  0.00  0.00    +0.000 C 
ENDBRANCH  40  43
ENDBRANCH  34  41
ENDBRANCH   5  34
TORSDOF 7
ENDMDL
MODEL 2
REMARK VINA RESULT:     -10.0      1.982      5.563
REMARK  Name = 131836771
REMARK  7 active torsions:
REMARK  status: ('A' for Active; 'I' for Inactive)
REMARK    1  A    between atoms: O_3  and  C_21
REMARK    2  A    between atoms: O_3  and  C_29
REMARK    3  A    between atoms: O_6  and  C_25
REMARK    4  A    between atoms: O_6  and  C_30
REMARK    5  A    between atoms: C_20  and  C_27
REMARK    6  A    between atoms: C_26  and  C_28
REMARK    7  A    between atoms: C_31  and  C_32
REMARK                            x       y       z     vdW  Elec       q    Type
REMARK                         _______ _______ _______ _____ _____    ______ ____
ROOT
ATOM      1  O   UNL     1     111.435 128.094 135.869  0.00  0.00    +0.000 OA
ATOM      2  O   UNL     1     112.092 125.724 136.143  0.00  0.00    +0.000 OA
ATOM      3  O   UNL     1     110.718 125.300 136.020  0.00  0.00    +0.000 OA
ATOM      4  O   UNL     1     108.642 127.312 135.611  0.00  0.00    +0.000 OA
ATOM      5  C   UNL     1     112.448 127.106 136.069  0.00  0.00    +0.000 A 
ATOM      6  C   UNL     1     112.229 127.896 135.978  0.00  0.00    +0.000 A 
ATOM      7  C   UNL     1     111.873 126.514 136.052  0.00  0.00    +0.000 A 
ATOM      8  C   UNL     1     111.080 126.713 135.943  0.00  0.00    +0.000 A 
ATOM      9  C   UNL     1     110.861 127.503 135.852  0.00  0.00    +0.000 A 
ATOM     10  C   UNL     1     110.490 126.087 135.927  0.00  0.00    +0.000 A 
ATOM     11  C   UNL     1     110.038 127.723 135.738  0.00  0.00    +0.000 A 
ATOM     12  C   UNL     1     109.663 126.287 135.815  0.00  0.00    +0.000 A 
ATOM     13  C   UNL     1     109.435 127.111 135.720  0.00  0.00    +0.000 A 
ENDROOT
BRANCH   6  16
ATOM     14  O   UNL     1     114.528 130.263 136.047  0.00  0.00    +0.000 OA
ATOM     15  C   UNL     1     113.471 129.545 136.687  0.00  0.00    +0.000 A 
ATOM     16  C   UNL     1     112.804 128.487 135.995  0.00  0.00    +0.000 A 
ATOM     17  C   UNL     1     112.896 128.953 136.670  0.00  0.00    +0.000 A 
ATOM     18  C   UNL     1     113.953 129.671 136.030  0.00  0.00    +0.000 A 
ATOM     19  C   UNL     1     113.286 128.614 135.338  0.00  0.00    +0.000 A 
ATOM     20  C   UNL     1     113.861 129.205 135.355  0.00  0.00    +0.000 A 
BRANCH  15  21
ATOM     21  O   UNL     1     113.563 130.011 137.362  0.00  0.00    +0.000 OA
BRANCH  21  29
ATOM     22  O   UNL     1     112.423 130.859 137.215  0.00  0.00    +0.000 OA
ATOM     23  O   UNL     1     111.930 130.616 139.628  0.00  0.00    +0.000 OA
ATOM     24  O   UNL     1     113.235 129.849 138.971  0.00  0.00    +0.000 OA
ATOM     25  O   UNL     1     110.954 131.546 138.676  0.00  0.00    +0.000 OA
ATOM     26  C   UNL     1     112.095 130.697 138.823  0.00  0.00    +0.000 C 
ATOM     27  C   UNL     1     112.747 130.314 138.494  0.00  0.00    +0.000 C 
ATOM     28  C   UNL     1     111.606 131.162 138.347  0.00  0.00    +0.000 C 
ATOM     29  C   UNL     1     112.911 130.395 137.690  0.00  0.00    +0.000 C 
ATOM     30  C   UNL     1     111.770 131.243 137.543  0.00  0.00    +0.000 C 
BRANCH  30  33
ATOM     31  O   UNL     1     110.605 131.382 136.727  0.00  0.00    +0.000 OA
ATOM     32  O   UNL     1     111.472 132.499 136.932  0.00  0.00    +0.000 OA
ATOM     33  C   UNL     1     111.283 131.708 137.067  0.00  0.00    +0.000 C 
ENDBRANCH  30  33
ENDBRANCH  21  29
ENDBRANCH  15  21
ENDBRANCH   6  16
BRANCH   5  34
ATOM     34  O   UNL     1     113.241 126.907 136.178  0.00  0.00    +0.000 OA
BRANCH  34  41
ATOM     35  O   UNL     1     113.147 126.631 137.618  0.00  0.00    +0.000 OA
ATOM     36  O   UNL     1     114.684 125.211 138.042  0.00  0.00    +0.000 OA
ATOM     37  O   UNL     1     114.582 125.723 136.325  0.00  0.00    +0.000 OA
ATOM     38  C   UNL     1     114.144 125.750 137.727  0.00  0.00    +0.000 C 
ATOM     39  C   UNL     1     114.098 125.985 136.939  0.00  0.00    +0.000 C 
ATOM     40  C   UNL     1     113.557 126.149 138.148  0.00  0.00    +0.000 C 
ATOM     41  C   UNL     1     113.481 126.530 136.871  0.00  0.00    +0.000 C 
BRANCH  40  43
ATOM     42  O   UNL     1     112.846 126.565 139.315  0.00  0.00    +0.000 OA
ATOM     43  C   UNL     1     113.406 126.078 138.956  0.00  0.00    +0.000 C 
ENDBRANCH  40  43
ENDBRANCH  34  41
ENDBRANCH   5  34
TORSDOF 7
ENDMDL
MODEL 3
REMARK VINA RESULT:     -10.0      2.610      4.776
REMARK  Name = 131836771
REMARK  7 active torsions:
REMARK  status: ('A' for Active; 'I' for Inactive)
REMARK    1  A    between atoms: O_3  and  C_21
REMARK    2  A    between atoms: O_3  and  C_29
REMARK    3  A    between atoms: O_6  and  C_25
REMARK    4  A    between atoms: O_6  and  C_30
REMARK    5  A    between atoms: C_20  and  C_27
REMARK    6  A    between atoms: C_26  and  C_28
REMARK    7  A    between atoms: C_31  and  C_32
REMARK                            x       y       z     vdW  Elec       q    Type
REMARK                         _______ _______ _______ _____ _____    ______ ____
ROOT
ATOM      1  O   UNL     1     112.649 128.856 137.301  0.00  0.00    +0.000 OA
ATOM      2  O   UNL     1     110.993 128.796 135.462  0.00  0.00    +0.000 OA
ATOM      3  O   UNL     1     110.734 130.207 135.612  0.00  0.00    +0.000 OA
ATOM      4  O   UNL     1     112.176 131.707 137.661  0.00  0.00    +0.000 OA
ATOM      5  C   UNL     1     111.941 128.127 136.297  0.00  0.00    +0.000 A 
ATOM      6  C   UNL     1     112.493 128.147 136.910  0.00  0.00    +0.000 A 
ATOM      7  C   UNL     1     111.545 128.816 136.075  0.00  0.00    +0.000 A 
ATOM      8  C   UNL     1     111.702 129.525 136.467  0.00  0.00    +0.000 A 
ATOM      9  C   UNL     1     112.254 129.545 137.080  0.00  0.00    +0.000 A 
ATOM     10  C   UNL     1     111.283 130.237 136.226  0.00  0.00    +0.000 A 
ATOM     11  C   UNL     1     112.426 130.278 137.495  0.00  0.00    +0.000 A 
ATOM     12  C   UNL     1     111.442 130.978 136.629  0.00  0.00    +0.000 A 
ATOM     13  C   UNL     1     112.017 130.999 137.268  0.00  0.00    +0.000 A 
ENDROOT
BRANCH   6  16
ATOM     14  O   UNL     1     114.074 125.389 137.797  0.00  0.00    +0.000 OA
ATOM     15  C   UNL     1     113.071 126.376 138.048  0.00  0.00    +0.000 A 
ATOM     16  C   UNL     1     112.888 127.458 137.132  0.00  0.00    +0.000 A 
ATOM     17  C   UNL     1     112.676 127.066 137.826  0.00  0.00    +0.000 A 
ATOM     18  C   UNL     1     113.678 126.079 137.575  0.00  0.00    +0.000 A 
ATOM     19  C   UNL     1     113.496 127.160 136.660  0.00  0.00    +0.000 A 
ATOM     20  C   UNL     1     113.891 126.471 136.881  0.00  0.00    +0.000 A 
BRANCH  15  21
ATOM     21  O   UNL     1     112.859 125.983 138.742  0.00  0.00    +0.000 OA
BRANCH  21  29
ATOM     22  O   UNL     1     113.534 126.796 139.704  0.00  0.00    +0.000 OA
ATOM     23  O   UNL     1     111.512 126.787 141.131  0.00  0.00    +0.000 OA
ATOM     24  O   UNL     1     111.510 125.978 139.693  0.00  0.00    +0.000 OA
ATOM     25  O   UNL     1     112.861 127.602 141.617  0.00  0.00    +0.000 OA
ATOM     26  C   UNL     1     112.186 126.790 140.655  0.00  0.00    +0.000 C 
ATOM     27  C   UNL     1     112.186 126.386 139.936  0.00  0.00    +0.000 C 
ATOM     28  C   UNL     1     112.861 127.198 140.899  0.00  0.00    +0.000 C 
ATOM     29  C   UNL     1     112.860 126.388 139.461  0.00  0.00    +0.000 C 
ATOM     30  C   UNL     1     113.535 127.201 140.423  0.00  0.00    +0.000 C 
BRANCH  30  33
ATOM     31  O   UNL     1     114.837 127.199 141.013  0.00  0.00    +0.000 OA
ATOM     32  O   UNL     1     114.257 128.425 140.563  0.00  0.00    +0.000 OA
ATOM     33  C   UNL     1     114.210 127.608 140.666  0.00  0.00    +0.000 C 
ENDBRANCH  30  33
ENDBRANCH  21  29
ENDBRANCH  15  21
ENDBRANCH   6  16
BRANCH   5  34
ATOM     34  O   UNL     1     111.784 127.418 135.906  0.00  0.00    +0.000 OA
BRANCH  34  41
ATOM     35  O   UNL     1     110.479 127.173 136.536  0.00  0.00    +0.000 OA
ATOM     36  O   UNL     1     109.375 125.983 135.149  0.00  0.00    +0.000 OA
ATOM     37  O   UNL     1     111.029 126.428 134.613  0.00  0.00    +0.000 OA
ATOM     38  C   UNL     1     109.918 126.437 135.574  0.00  0.00    +0.000 C 
ATOM     39  C   UNL     1     110.678 126.641 135.328  0.00  0.00    +0.000 C 
ATOM     40  C   UNL     1     109.795 126.765 136.321  0.00  0.00    +0.000 C 
ATOM     41  C   UNL     1     111.025 127.096 135.922  0.00  0.00    +0.000 C 
BRANCH  40  43
ATOM     42  O   UNL     1     109.135 126.830 137.587  0.00  0.00    +0.000 OA
ATOM     43  C   UNL     1     109.108 126.698 136.773  0.00  0.00    +0.000 C 
ENDBRANCH  40  43
ENDBRANCH  34  41
ENDBRANCH   5  34
TORSDOF 7
ENDMDL
MODEL 4
REMARK VINA RESULT:     -10.0      2.304      3.922
REMARK  Name = 131836771
REMARK  7 active torsions:
REMARK  status: ('A' for Active; 'I' for Inactive)
REMARK    1  A    between atoms: O_3  and  C_21
REMARK    2  A    between atoms: O_3  and  C_29
REMARK    3  A    between atoms: O_6  and  C_25
REMARK    4  A    between atoms: O_6  and  C_30
REMARK    5  A    between atoms: C_20  and  C_27
REMARK    6  A    between atoms: C_26  and  C_28
REMARK    7  A    between atoms: C_31  and  C_32
REMARK                            x       y       z     vdW  Elec       q    Type
REMARK                         _______ _______ _______ _____ _____    ______ ____
ROOT
ATOM      1  O   UNL     1     113.034 128.108 136.777  0.00  0.00    +0.000 OA
ATOM      2  O   UNL     1     111.071 129.174 135.712  0.00  0.00    +0.000 OA
ATOM      3  O   UNL     1     111.898 129.713 134.661  0.00  0.00    +0.000 OA
ATOM      4  O   UNL     1     114.766 129.165 134.689  0.00  0.00    +0.000 OA
ATOM      5  C   UNL     1     111.631 128.379 136.760  0.00  0.00    +0.000 A 
ATOM      6  C   UNL     1     112.286 128.024 137.115  0.00  0.00    +0.000 A 
ATOM      7  C   UNL     1     111.725 128.819 136.067  0.00  0.00    +0.000 A 
ATOM      8  C   UNL     1     112.473 128.902 135.730  0.00  0.00    +0.000 A 
ATOM      9  C   UNL     1     113.128 128.547 136.086  0.00  0.00    +0.000 A 
ATOM     10  C   UNL     1     112.558 129.362 135.009  0.00  0.00    +0.000 A 
ATOM     11  C   UNL     1     113.913 128.627 135.744  0.00  0.00    +0.000 A 
ATOM     12  C   UNL     1     113.335 129.453 134.653  0.00  0.00    +0.000 A 
ATOM     13  C   UNL     1     114.017 129.083 135.023  0.00  0.00    +0.000 A 
ENDROOT
BRANCH   6  16
ATOM     14  O   UNL     1     111.909 126.268 139.883  0.00  0.00    +0.000 OA
ATOM     15  C   UNL     1     112.036 126.324 138.461  0.00  0.00    +0.000 A 
ATOM     16  C   UNL     1     112.192 127.586 137.807  0.00  0.00    +0.000 A 
ATOM     17  C   UNL     1     112.130 126.764 137.769  0.00  0.00    +0.000 A 
ATOM     18  C   UNL     1     112.003 126.707 139.191  0.00  0.00    +0.000 A 
ATOM     19  C   UNL     1     112.159 127.968 138.537  0.00  0.00    +0.000 A 
ATOM     20  C   UNL     1     112.065 127.529 139.229  0.00  0.00    +0.000 A 
BRANCH  15  21
ATOM     21  O   UNL     1     111.974 125.502 138.423  0.00  0.00    +0.000 OA
BRANCH  21  29
ATOM     22  O   UNL     1     113.215 125.176 137.795  0.00  0.00    +0.000 OA
ATOM     23  O   UNL     1     112.033 123.638 136.258  0.00  0.00    +0.000 OA
ATOM     24  O   UNL     1     111.186 124.477 137.399  0.00  0.00    +0.000 OA
ATOM     25  O   UNL     1     113.669 123.825 136.142  0.00  0.00    +0.000 OA
ATOM     26  C   UNL     1     112.427 124.151 136.770  0.00  0.00    +0.000 C 
ATOM     27  C   UNL     1     112.004 124.571 137.341  0.00  0.00    +0.000 C 
ATOM     28  C   UNL     1     113.246 124.245 136.712  0.00  0.00    +0.000 C 
ATOM     29  C   UNL     1     112.398 125.083 137.853  0.00  0.00    +0.000 C 
ATOM     30  C   UNL     1     113.640 124.757 137.225  0.00  0.00    +0.000 C 
BRANCH  30  33
ATOM     31  O   UNL     1     114.777 125.321 136.569  0.00  0.00    +0.000 OA
ATOM     32  O   UNL     1     114.954 124.473 137.706  0.00  0.00    +0.000 OA
ATOM     33  C   UNL     1     114.457 124.851 137.166  0.00  0.00    +0.000 C 
ENDBRANCH  30  33
ENDBRANCH  21  29
ENDBRANCH  15  21
ENDBRANCH   6  16
BRANCH   5  34
ATOM     34  O   UNL     1     110.883 128.296 137.096  0.00  0.00    +0.000 OA
BRANCH  34  41
ATOM     35  O   UNL     1     110.354 127.377 136.078  0.00  0.00    +0.000 OA
ATOM     36  O   UNL     1     108.237 127.649 136.088  0.00  0.00    +0.000 OA
ATOM     37  O   UNL     1     109.135 128.670 137.259  0.00  0.00    +0.000 OA
ATOM     38  C   UNL     1     109.055 127.655 136.199  0.00  0.00    +0.000 C 
ATOM     39  C   UNL     1     109.467 128.124 136.738  0.00  0.00    +0.000 C 
ATOM     40  C   UNL     1     109.603 127.193 135.792  0.00  0.00    +0.000 C 
ATOM     41  C   UNL     1     110.271 127.952 136.662  0.00  0.00    +0.000 C 
BRANCH  40  43
ATOM     42  O   UNL     1     110.025 126.155 134.905  0.00  0.00    +0.000 OA
ATOM     43  C   UNL     1     109.430 126.643 135.201  0.00  0.00    +0.000 C 
ENDBRANCH  40  43
ENDBRANCH  34  41
ENDBRANCH   5  34
TORSDOF 7
ENDMDL
MODEL 5
REMARK VINA RESULT:      -9.9      1.689      2.669
REMARK  Name = 131836771
REMARK  7 active torsions:
REMARK  status: ('A' for Active; 'I' for Inactive)
REMARK    1  A    between atoms: O_3  and  C_21
REMARK    2  A    between atoms: O_3  and  C_29
REMARK    3  A    between atoms: O_6  and  C_25
REMARK    4  A    between atoms: O_6  and  C_30
REMARK    5  A    between atoms: C_20  and  C_27
REMARK    6  A    between atoms: C_26  and  C_28
REMARK    7  A    between atoms: C_31  and  C_32
REMARK                            x       y       z     vdW  Elec       q    Type
REMARK                         _______ _______ _______ _____ _____    ______ ____
ROOT
ATOM      1  O   UNL     1     113.442 128.213 137.081  0.00  0.00    +0.000 OA
ATOM      2  O   UNL     1     113.293 130.601 137.716  0.00  0.00    +0.000 OA
ATOM      3  O   UNL     1     113.967 130.994 136.503  0.00  0.00    +0.000 OA
ATOM      4  O   UNL     1     114.808 128.934 134.612  0.00  0.00    +0.000 OA
ATOM      5  C   UNL     1     113.032 129.225 138.003  0.00  0.00    +0.000 A 
ATOM      6  C   UNL     1     113.082 128.429 137.792  0.00  0.00    +0.000 A 
ATOM      7  C   UNL     1     113.343 129.805 137.504  0.00  0.00    +0.000 A 
ATOM      8  C   UNL     1     113.702 129.588 136.794  0.00  0.00    +0.000 A 
ATOM      9  C   UNL     1     113.752 128.792 136.583  0.00  0.00    +0.000 A 
ATOM     10  C   UNL     1     114.021 130.202 136.283  0.00  0.00    +0.000 A 
ATOM     11  C   UNL     1     114.124 128.554 135.845  0.00  0.00    +0.000 A 
ATOM     12  C   UNL     1     114.397 129.983 135.543  0.00  0.00    +0.000 A 
ATOM     13  C   UNL     1     114.449 129.153 135.322  0.00  0.00    +0.000 A 
ENDROOT
BRANCH   6  16
ATOM     14  O   UNL     1     111.841 126.111 139.786  0.00  0.00    +0.000 OA
ATOM     15  C   UNL     1     111.753 126.895 138.595  0.00  0.00    +0.000 A 
ATOM     16  C   UNL     1     112.772 127.850 138.290  0.00  0.00    +0.000 A 
ATOM     17  C   UNL     1     112.063 127.475 138.096  0.00  0.00    +0.000 A 
ATOM     18  C   UNL     1     112.152 126.691 139.287  0.00  0.00    +0.000 A 
ATOM     19  C   UNL     1     113.170 127.645 138.983  0.00  0.00    +0.000 A 
ATOM     20  C   UNL     1     112.860 127.066 139.481  0.00  0.00    +0.000 A 
BRANCH  15  21
ATOM     21  O   UNL     1     111.044 126.520 138.401  0.00  0.00    +0.000 OA
BRANCH  21  29
ATOM     22  O   UNL     1     111.507 125.551 137.458  0.00  0.00    +0.000 OA
ATOM     23  O   UNL     1     109.653 126.149 135.932  0.00  0.00    +0.000 OA
ATOM     24  O   UNL     1     109.808 126.919 137.383  0.00  0.00    +0.000 OA
ATOM     25  O   UNL     1     110.734 124.980 135.498  0.00  0.00    +0.000 OA
ATOM     26  C   UNL     1     110.271 125.950 136.441  0.00  0.00    +0.000 C 
ATOM     27  C   UNL     1     110.349 126.334 137.166  0.00  0.00    +0.000 C 
ATOM     28  C   UNL     1     110.812 125.365 136.224  0.00  0.00    +0.000 C 
ATOM     29  C   UNL     1     110.967 126.135 137.675  0.00  0.00    +0.000 C 
ATOM     30  C   UNL     1     111.430 125.165 136.733  0.00  0.00    +0.000 C 
BRANCH  30  33
ATOM     31  O   UNL     1     111.824 123.792 136.707  0.00  0.00    +0.000 OA
ATOM     32  O   UNL     1     112.657 124.786 136.108  0.00  0.00    +0.000 OA
ATOM     33  C   UNL     1     111.970 124.581 136.516  0.00  0.00    +0.000 C 
ENDBRANCH  30  33
ENDBRANCH  21  29
ENDBRANCH  15  21
ENDBRANCH   6  16
BRANCH   5  34
ATOM     34  O   UNL     1     112.673 129.442 138.713  0.00  0.00    +0.000 OA
BRANCH  34  41
ATOM     35  O   UNL     1     111.430 129.950 138.116  0.00  0.00    +0.000 OA
ATOM     36  O   UNL     1     110.677 131.406 139.484  0.00  0.00    +0.000 OA
ATOM     37  O   UNL     1     112.212 130.622 139.985  0.00  0.00    +0.000 OA
ATOM     38  C   UNL     1     111.087 130.827 139.061  0.00  0.00    +0.000 C 
ATOM     39  C   UNL     1     111.792 130.467 139.292  0.00  0.00    +0.000 C 
ATOM     40  C   UNL     1     110.863 130.507 138.335  0.00  0.00    +0.000 C 
ATOM     41  C   UNL     1     112.004 129.924 138.707  0.00  0.00    +0.000 C 
BRANCH  40  43
ATOM     42  O   UNL     1     109.932 130.225 137.288  0.00  0.00    +0.000 OA
ATOM     43  C   UNL     1     110.190 130.710 137.902  0.00  0.00    +0.000 C 
ENDBRANCH  40  43
ENDBRANCH  34  41
ENDBRANCH   5  34
TORSDOF 7
ENDMDL
MODEL 6
REMARK VINA RESULT:      -9.9      2.386      3.952
REMARK  Name = 131836771
REMARK  7 active torsions:
REMARK  status: ('A' for Active; 'I' for Inactive)
REMARK    1  A    between atoms: O_3  and  C_21
REMARK    2  A    between atoms: O_3  and  C_29
REMARK    3  A    between atoms: O_6  and  C_25
REMARK    4  A    between atoms: O_6  and  C_30
REMARK    5  A    between atoms: C_20  and  C_27
REMARK    6  A    between atoms: C_26  and  C_28
REMARK    7  A    between atoms: C_31  and  C_32
REMARK                            x       y       z     vdW  Elec       q    Type
REMARK                         _______ _______ _______ _____ _____    ______ ____
ROOT
ATOM      1  O   UNL     1     113.429 126.989 136.399  0.00  0.00    +0.000 OA
ATOM      2  O   UNL     1     113.130 127.250 138.842  0.00  0.00    +0.000 OA
ATOM      3  O   UNL     1     113.902 126.058 139.092  0.00  0.00    +0.000 OA
ATOM      4  O   UNL     1     114.999 124.574 136.829  0.00  0.00    +0.000 OA
ATOM      5  C   UNL     1     112.895 127.712 137.510  0.00  0.00    +0.000 A 
ATOM      6  C   UNL     1     112.995 127.625 136.695  0.00  0.00    +0.000 A 
ATOM      7  C   UNL     1     113.230 127.163 138.028  0.00  0.00    +0.000 A 
ATOM      8  C   UNL     1     113.664 126.528 137.730  0.00  0.00    +0.000 A 
ATOM      9  C   UNL     1     113.764 126.441 136.916  0.00  0.00    +0.000 A 
ATOM     10  C   UNL     1     114.008 125.963 138.280  0.00  0.00    +0.000 A 
ATOM     11  C   UNL     1     114.214 125.783 136.595  0.00  0.00    +0.000 A 
ATOM     12  C   UNL     1     114.461 125.299 137.977  0.00  0.00    +0.000 A 
ATOM     13  C   UNL     1     114.565 125.209 137.128  0.00  0.00    +0.000 A 
ENDROOT
BRANCH   6  16
ATOM     14  O   UNL     1     111.656 129.819 134.626  0.00  0.00    +0.000 OA
ATOM     15  C   UNL     1     111.700 128.499 135.170  0.00  0.00    +0.000 A 
ATOM     16  C   UNL     1     112.660 128.173 136.178  0.00  0.00    +0.000 A 
ATOM     17  C   UNL     1     112.036 127.950 135.688  0.00  0.00    +0.000 A 
ATOM     18  C   UNL     1     111.991 129.271 135.144  0.00  0.00    +0.000 A 
ATOM     19  C   UNL     1     112.950 128.946 136.151  0.00  0.00    +0.000 A 
ATOM     20  C   UNL     1     112.616 129.494 135.634  0.00  0.00    +0.000 A 
BRANCH  15  21
ATOM     21  O   UNL     1     111.075 128.276 134.680  0.00  0.00    +0.000 OA
BRANCH  21  29
ATOM     22  O   UNL     1     109.902 128.734 135.355  0.00  0.00    +0.000 OA
ATOM     23  O   UNL     1     108.961 126.447 135.272  0.00  0.00    +0.000 OA
ATOM     24  O   UNL     1     110.448 126.751 134.625  0.00  0.00    +0.000 OA
ATOM     25  O   UNL     1     108.101 127.667 135.975  0.00  0.00    +0.000 OA
ATOM     26  C   UNL     1     109.275 127.209 135.300  0.00  0.00    +0.000 C 
ATOM     27  C   UNL     1     110.018 127.362 134.976  0.00  0.00    +0.000 C 
ATOM     28  C   UNL     1     108.845 127.820 135.651  0.00  0.00    +0.000 C 
ATOM     29  C   UNL     1     110.332 128.124 135.004  0.00  0.00    +0.000 C 
ATOM     30  C   UNL     1     109.158 128.583 135.679  0.00  0.00    +0.000 C 
BRANCH  30  33
ATOM     31  O   UNL     1     108.247 129.677 135.569  0.00  0.00    +0.000 OA
ATOM     32  O   UNL     1     108.781 129.318 136.844  0.00  0.00    +0.000 OA
ATOM     33  C   UNL     1     108.729 129.192 136.030  0.00  0.00    +0.000 C 
ENDBRANCH  30  33
ENDBRANCH  21  29
ENDBRANCH  15  21
ENDBRANCH   6  16
BRANCH   5  34
ATOM     34  O   UNL     1     112.461 128.347 137.807  0.00  0.00    +0.000 OA
BRANCH  34  41
ATOM     35  O   UNL     1     111.323 127.543 138.275  0.00  0.00    +0.000 OA
ATOM     36  O   UNL     1     110.409 128.678 139.836  0.00  0.00    +0.000 OA
ATOM     37  O   UNL     1     111.844 129.449 139.083  0.00  0.00    +0.000 OA
ATOM     38  C   UNL     1     110.865 128.362 139.224  0.00  0.00    +0.000 C 
ATOM     39  C   UNL     1     111.524 128.717 138.879  0.00  0.00    +0.000 C 
ATOM     40  C   UNL     1     110.740 127.637 138.851  0.00  0.00    +0.000 C 
ATOM     41  C   UNL     1     111.807 128.210 138.292  0.00  0.00    +0.000 C 
BRANCH  40  43
ATOM     42  O   UNL     1     110.024 126.439 138.545  0.00  0.00    +0.000 OA
ATOM     43  C   UNL     1     110.138 127.099 139.025  0.00  0.00    +0.000 C 
ENDBRANCH  40  43
ENDBRANCH  34  41
ENDBRANCH   5  34
TORSDOF 7
ENDMDL
MODEL 7
REMARK VINA RESULT:      -9.9      1.522      4.562
REMARK  Name = 131836771
REMARK  7 active torsions:
REMARK  status: ('A' for Active; 'I' for Inactive)
REMARK    1  A    between atoms: O_3  and  C_21
REMARK    2  A    between atoms: O_3  and  C_29
REMARK    3  A    between atoms: O_6  and  C_25
REMARK    4  A    between atoms: O_6  and  C_30
REMARK    5  A    between atoms: C_20  and  C_27
REMARK    6  A    between atoms: C_26  and  C_28
REMARK    7  A    between atoms: C_31  and  C_32
REMARK                            x       y       z     vdW  Elec       q    Type
REMARK                         _______ _______ _______ _____ _____    ______ ____
ROOT
ATOM      1  O   UNL     1     112.210 129.399 137.059  0.00  0.00    +0.000 OA
ATOM      2  O   UNL     1     113.148 127.184 136.475  0.00  0.00    +0.000 OA
ATOM      3  O   UNL     1     114.244 127.802 135.771  0.00  0.00    +0.000 OA
ATOM      4  O   UNL     1     114.395 130.716 135.655  0.00  0.00    +0.000 OA
ATOM      5  C   UNL     1     112.141 127.973 137.113  0.00  0.00    +0.000 A 
ATOM      6  C   UNL     1     111.828 128.711 137.308  0.00  0.00    +0.000 A 
ATOM      7  C   UNL     1     112.835 127.922 136.670  0.00  0.00    +0.000 A 
ATOM      8  C   UNL     1     113.217 128.610 136.422  0.00  0.00    +0.000 A 
ATOM      9  C   UNL     1     112.904 129.348 136.616  0.00  0.00    +0.000 A 
ATOM     10  C   UNL     1     113.940 128.544 135.961  0.00  0.00    +0.000 A 
ATOM     11  C   UNL     1     113.293 130.072 136.363  0.00  0.00    +0.000 A 
ATOM     12  C   UNL     1     114.342 129.256 135.699  0.00  0.00    +0.000 A 
ATOM     13  C   UNL     1     114.016 130.026 135.902  0.00  0.00    +0.000 A 
ENDROOT
BRANCH   6  16
ATOM     14  O   UNL     1     109.051 128.912 139.079  0.00  0.00    +0.000 OA
ATOM     15  C   UNL     1     109.731 129.022 137.827  0.00  0.00    +0.000 A 
ATOM     16  C   UNL     1     111.134 128.761 137.750  0.00  0.00    +0.000 A 
ATOM     17  C   UNL     1     110.426 128.971 137.384  0.00  0.00    +0.000 A 
ATOM     18  C   UNL     1     109.746 128.862 138.636  0.00  0.00    +0.000 A 
ATOM     19  C   UNL     1     111.148 128.602 138.560  0.00  0.00    +0.000 A 
ATOM     20  C   UNL     1     110.454 128.652 139.002  0.00  0.00    +0.000 A 
BRANCH  15  21
ATOM     21  O   UNL     1     109.022 129.231 137.460  0.00  0.00    +0.000 OA
BRANCH  21  29
ATOM     22  O   UNL     1     109.192 130.650 137.451  0.00  0.00    +0.000 OA
ATOM     23  O   UNL     1     108.298 130.742 135.145  0.00  0.00    +0.000 OA
ATOM     24  O   UNL     1     108.426 129.293 135.923  0.00  0.00    +0.000 OA
ATOM     25  O   UNL     1     108.766 132.131 135.904  0.00  0.00    +0.000 OA
ATOM     26  C   UNL     1     108.596 130.712 135.913  0.00  0.00    +0.000 C 
ATOM     27  C   UNL     1     108.660 129.987 136.303  0.00  0.00    +0.000 C 
ATOM     28  C   UNL     1     108.830 131.406 136.294  0.00  0.00    +0.000 C 
ATOM     29  C   UNL     1     108.958 129.957 137.072  0.00  0.00    +0.000 C 
ATOM     30  C   UNL     1     109.128 131.376 137.062  0.00  0.00    +0.000 C 
BRANCH  30  33
ATOM     31  O   UNL     1     110.109 132.388 137.298  0.00  0.00    +0.000 OA
ATOM     32  O   UNL     1     108.848 132.446 137.966  0.00  0.00    +0.000 OA
ATOM     33  C   UNL     1     109.362 132.069 137.442  0.00  0.00    +0.000 C 
ENDBRANCH  30  33
ENDBRANCH  21  29
ENDBRANCH  15  21
ENDBRANCH   6  16
BRANCH   5  34
ATOM     34  O   UNL     1     111.759 127.284 137.361  0.00  0.00    +0.000 OA
BRANCH  34  41
ATOM     35  O   UNL     1     111.171 126.935 136.060  0.00  0.00    +0.000 OA
ATOM     36  O   UNL     1     110.978 124.809 136.058  0.00  0.00    +0.000 OA
ATOM     37  O   UNL     1     111.682 125.502 137.557  0.00  0.00    +0.000 OA
ATOM     38  C   UNL     1     111.113 125.610 136.206  0.00  0.00    +0.000 C 
ATOM     39  C   UNL     1     111.437 125.928 136.895  0.00  0.00    +0.000 C 
ATOM     40  C   UNL     1     110.949 126.233 135.690  0.00  0.00    +0.000 C 
ATOM     41  C   UNL     1     111.472 126.748 136.804  0.00  0.00    +0.000 C 
BRANCH  40  43
ATOM     42  O   UNL     1     110.197 126.792 134.612  0.00  0.00    +0.000 OA
ATOM     43  C   UNL     1     110.620 126.164 134.936  0.00  0.00    +0.000 C 
ENDBRANCH  40  43
ENDBRANCH  34  41
ENDBRANCH   5  34
TORSDOF 7
ENDMDL
MODEL 8
REMARK VINA RESULT:      -9.8      1.934      4.965
REMARK  Name = 131836771
REMARK  7 active torsions:
REMARK  status: ('A' for Active; 'I' for Inactive)
REMARK    1  A    between atoms: O_3  and  C_21
REMARK    2  A    between atoms: O_3  and  C_29
REMARK    3  A    between atoms: O_6  and  C_25
REMARK    4  A    between atoms: O_6  and  C_30
REMARK    5  A    between atoms: C_20  and  C_27
REMARK    6  A    between atoms: C_26  and  C_28
REMARK    7  A    between atoms: C_31  and  C_32
REMARK                            x       y       z     vdW  Elec       q    Type
REMARK                         _______ _______ _______ _____ _____    ______ ____
ROOT
ATOM      1  O   UNL     1     113.752 126.907 136.536  0.00  0.00    +0.000 OA
ATOM      2  O   UNL     1     111.483 126.042 136.062  0.00  0.00    +0.000 OA
ATOM      3  O   UNL     1     111.883 124.708 136.435  0.00  0.00    +0.000 OA
ATOM      4  O   UNL     1     114.631 124.239 137.303  0.00  0.00    +0.000 OA
ATOM      5  C   UNL     1     112.407 127.132 136.112  0.00  0.00    +0.000 A 
ATOM      6  C   UNL     1     113.163 127.420 136.270  0.00  0.00    +0.000 A 
ATOM      7  C   UNL     1     112.239 126.331 136.220  0.00  0.00    +0.000 A 
ATOM      8  C   UNL     1     112.829 125.819 136.487  0.00  0.00    +0.000 A 
ATOM      9  C   UNL     1     113.586 126.107 136.645  0.00  0.00    +0.000 A 
ATOM     10  C   UNL     1     112.642 124.986 136.595  0.00  0.00    +0.000 A 
ATOM     11  C   UNL     1     114.208 125.583 136.922  0.00  0.00    +0.000 A 
ATOM     12  C   UNL     1     113.251 124.448 136.872  0.00  0.00    +0.000 A 
ATOM     13  C   UNL     1     114.040 124.749 137.037  0.00  0.00    +0.000 A 
ENDROOT
BRANCH   6  16
ATOM     14  O   UNL     1     113.832 130.623 135.838  0.00  0.00    +0.000 OA
ATOM     15  C   UNL     1     113.627 129.508 136.708  0.00  0.00    +0.000 A 
ATOM     16  C   UNL     1     113.330 128.220 136.162  0.00  0.00    +0.000 A 
ATOM     17  C   UNL     1     113.460 128.706 136.816  0.00  0.00    +0.000 A 
ATOM     18  C   UNL     1     113.664 129.821 135.946  0.00  0.00    +0.000 A 
ATOM     19  C   UNL     1     113.368 128.535 135.400  0.00  0.00    +0.000 A 
ATOM     20  C   UNL     1     113.535 129.335 135.292  0.00  0.00    +0.000 A 
BRANCH  15  21
ATOM     21  O   UNL     1     113.757 129.994 137.362  0.00  0.00    +0.000 OA
BRANCH  21  29
ATOM     22  O   UNL     1     112.512 130.678 137.513  0.00  0.00    +0.000 OA
ATOM     23  O   UNL     1     112.440 130.019 139.898  0.00  0.00    +0.000 OA
ATOM     24  O   UNL     1     113.709 129.554 138.951  0.00  0.00    +0.000 OA
ATOM     25  O   UNL     1     111.219 130.923 139.255  0.00  0.00    +0.000 OA
ATOM     26  C   UNL     1     112.464 130.239 139.103  0.00  0.00    +0.000 C 
ATOM     27  C   UNL     1     113.098 130.007 138.629  0.00  0.00    +0.000 C 
ATOM     28  C   UNL     1     111.853 130.691 138.781  0.00  0.00    +0.000 C 
ATOM     29  C   UNL     1     113.122 130.227 137.835  0.00  0.00    +0.000 C 
ATOM     30  C   UNL     1     111.877 130.911 137.986  0.00  0.00    +0.000 C 
BRANCH  30  33
ATOM     31  O   UNL     1     110.578 130.996 137.396  0.00  0.00    +0.000 OA
ATOM     32  O   UNL     1     111.344 132.182 137.612  0.00  0.00    +0.000 OA
ATOM     33  C   UNL     1     111.267 131.363 137.665  0.00  0.00    +0.000 C 
ENDBRANCH  30  33
ENDBRANCH  21  29
ENDBRANCH  15  21
ENDBRANCH   6  16
BRANCH   5  34
ATOM     34  O   UNL     1     111.817 127.643 135.846  0.00  0.00    +0.000 OA
BRANCH  34  41
ATOM     35  O   UNL     1     111.015 127.601 137.077  0.00  0.00    +0.000 OA
ATOM     36  O   UNL     1     109.019 128.082 136.491  0.00  0.00    +0.000 OA
ATOM     37  O   UNL     1     110.216 128.064 135.153  0.00  0.00    +0.000 OA
ATOM     38  C   UNL     1     109.825 127.914 136.562  0.00  0.00    +0.000 C 
ATOM     39  C   UNL     1     110.374 127.907 135.947  0.00  0.00    +0.000 C 
ATOM     40  C   UNL     1     110.221 127.726 137.260  0.00  0.00    +0.000 C 
ATOM     41  C   UNL     1     111.110 127.713 136.266  0.00  0.00    +0.000 C 
BRANCH  40  43
ATOM     42  O   UNL     1     110.362 127.593 138.676  0.00  0.00    +0.000 OA
ATOM     43  C   UNL     1     109.881 127.671 138.011  0.00  0.00    +0.000 C 
ENDBRANCH  40  43
ENDBRANCH  34  41
ENDBRANCH   5  34
TORSDOF 7
ENDMDL
MODEL 9
REMARK VINA RESULT:      -9.8      1.734      3.452
REMARK  Name = 131836771
REMARK  7 active torsions:
REMARK  status: ('A' for Active; 'I' for Inactive)
REMARK    1  A    between atoms: O_3  and  C_21
REMARK    2  A    between atoms: O_3  and  C_29
REMARK    3  A    between atoms: O_6  and  C_25
REMARK    4  A    between atoms: O_6  and  C_30
REMARK    5  A    between atoms: C_20  and  C_27
REMARK    6  A    between atoms: C_26  and  C_28
REMARK    7  A    between atoms: C_31  and  C_32
REMARK                            x       y       z     vdW  Elec       q    Type
REMARK                         _______ _______ _______ _____ _____    ______ ____
ROOT
ATOM      1  O   UNL     1     111.456 128.842 136.002  0.00  0.00    +0.000 OA
ATOM      2  O   UNL     1     111.917 131.061 136.995  0.00  0.00    +0.000 OA
ATOM      3  O   UNL     1     110.570 131.496 136.720  0.00  0.00    +0.000 OA
ATOM      4  O   UNL     1     108.721 129.650 135.415  0.00  0.00    +0.000 OA
ATOM      5  C   UNL     1     112.357 129.748 136.641  0.00  0.00    +0.000 A 
ATOM      6  C   UNL     1     112.204 129.008 136.309  0.00  0.00    +0.000 A 
ATOM      7  C   UNL     1     111.763 130.321 136.664  0.00  0.00    +0.000 A 
ATOM      8  C   UNL     1     111.017 130.154 136.356  0.00  0.00    +0.000 A 
ATOM      9  C   UNL     1     110.863 129.414 136.025  0.00  0.00    +0.000 A 
ATOM     10  C   UNL     1     110.407 130.760 136.387  0.00  0.00    +0.000 A 
ATOM     11  C   UNL     1     110.089 129.228 135.701  0.00  0.00    +0.000 A 
ATOM     12  C   UNL     1     109.627 130.591 136.068  0.00  0.00    +0.000 A 
ATOM     13  C   UNL     1     109.467 129.820 135.723  0.00  0.00    +0.000 A 
ENDROOT
BRANCH   6  16
ATOM     14  O   UNL     1     114.577 126.718 136.216  0.00  0.00    +0.000 OA
ATOM     15  C   UNL     1     113.400 127.256 136.821  0.00  0.00    +0.000 A 
ATOM     16  C   UNL     1     112.797 128.436 136.286  0.00  0.00    +0.000 A 
ATOM     17  C   UNL     1     112.806 127.829 136.844  0.00  0.00    +0.000 A 
ATOM     18  C   UNL     1     113.984 127.291 136.239  0.00  0.00    +0.000 A 
ATOM     19  C   UNL     1     113.381 128.470 135.704  0.00  0.00    +0.000 A 
ATOM     20  C   UNL     1     113.974 127.898 135.681  0.00  0.00    +0.000 A 
BRANCH  15  21
ATOM     21  O   UNL     1     113.410 126.649 137.380  0.00  0.00    +0.000 OA
BRANCH  21  29
ATOM     22  O   UNL     1     112.339 125.838 136.891  0.00  0.00    +0.000 OA
ATOM     23  O   UNL     1     111.459 125.612 139.193  0.00  0.00    +0.000 OA
ATOM     24  O   UNL     1     112.823 126.498 138.915  0.00  0.00    +0.000 OA
ATOM     25  O   UNL     1     110.682 124.877 137.936  0.00  0.00    +0.000 OA
ATOM     26  C   UNL     1     111.752 125.687 138.425  0.00  0.00    +0.000 C 
ATOM     27  C   UNL     1     112.434 126.130 138.286  0.00  0.00    +0.000 C 
ATOM     28  C   UNL     1     111.364 125.320 137.797  0.00  0.00    +0.000 C 
ATOM     29  C   UNL     1     112.728 126.206 137.518  0.00  0.00    +0.000 C 
ATOM     30  C   UNL     1     111.657 125.395 137.029  0.00  0.00    +0.000 C 
BRANCH  30  33
ATOM     31  O   UNL     1     111.508 124.280 136.149  0.00  0.00    +0.000 OA
ATOM     32  O   UNL     1     110.640 125.408 136.026  0.00  0.00    +0.000 OA
ATOM     33  C   UNL     1     111.269 125.028 136.402  0.00  0.00    +0.000 C 
ENDBRANCH  30  33
ENDBRANCH  21  29
ENDBRANCH  15  21
ENDBRANCH   6  16
BRANCH   5  34
ATOM     34  O   UNL     1     113.104 129.916 136.948  0.00  0.00    +0.000 OA
BRANCH  34  41
ATOM     35  O   UNL     1     112.683 129.849 138.355  0.00  0.00    +0.000 OA
ATOM     36  O   UNL     1     114.148 130.945 139.455  0.00  0.00    +0.000 OA
ATOM     37  O   UNL     1     114.432 130.872 137.685  0.00  0.00    +0.000 OA
ATOM     38  C   UNL     1     113.671 130.560 138.903  0.00  0.00    +0.000 C 
ATOM     39  C   UNL     1     113.802 130.527 138.089  0.00  0.00    +0.000 C 
ATOM     40  C   UNL     1     112.980 130.141 139.067  0.00  0.00    +0.000 C 
ATOM     41  C   UNL     1     113.191 130.087 137.751  0.00  0.00    +0.000 C 
BRANCH  40  43
ATOM     42  O   UNL     1     112.057 129.465 139.923  0.00  0.00    +0.000 OA
ATOM     43  C   UNL     1     112.644 130.033 139.813  0.00  0.00    +0.000 C 
ENDBRANCH  40  43
ENDBRANCH  34  41
ENDBRANCH   5  34
TORSDOF 7
ENDMDL
MODEL 10
REMARK VINA RESULT:      -9.8      1.238      4.325
REMARK  Name = 131836771
REMARK  7 active torsions:
REMARK  status: ('A' for Active; 'I' for Inactive)
REMARK    1  A    between atoms: O_3  and  C_21
REMARK    2  A    between atoms: O_3  and  C_29
REMARK    3  A    between atoms: O_6  and  C_25
REMARK    4  A    between atoms: O_6  and  C_30
REMARK    5  A    between atoms: C_20  and  C_27
REMARK    6  A    between atoms: C_26  and  C_28
REMARK    7  A    between atoms: C_31  and  C_32
REMARK                            x       y       z     vdW  Elec       q    Type
REMARK                         _______ _______ _______ _____ _____    ______ ____
ROOT
ATOM      1  O   UNL     1     111.801 129.767 136.123  0.00  0.00    +0.000 OA
ATOM      2  O   UNL     1     112.675 127.471 135.815  0.00  0.00    +0.000 OA
ATOM      3  O   UNL     1     114.033 127.954 135.843  0.00  0.00    +0.000 OA
ATOM      4  O   UNL     1     114.518 130.813 136.188  0.00  0.00    +0.000 OA
ATOM      5  C   UNL     1     111.569 128.367 135.954  0.00  0.00    +0.000 A 
ATOM      6  C   UNL     1     111.278 129.132 136.056  0.00  0.00    +0.000 A 
ATOM      7  C   UNL     1     112.384 128.236 135.918  0.00  0.00    +0.000 A 
ATOM      8  C   UNL     1     112.906 128.871 135.984  0.00  0.00    +0.000 A 
ATOM      9  C   UNL     1     112.615 129.636 136.087  0.00  0.00    +0.000 A 
ATOM     10  C   UNL     1     113.752 128.722 135.945  0.00  0.00    +0.000 A 
ATOM     11  C   UNL     1     113.149 130.306 136.157  0.00  0.00    +0.000 A 
ATOM     12  C   UNL     1     114.301 129.379 136.014  0.00  0.00    +0.000 A 
ATOM     13  C   UNL     1     113.998 130.176 136.121  0.00  0.00    +0.000 A 
ENDROOT
BRANCH   6  16
ATOM     14  O   UNL     1     108.022 129.653 136.200  0.00  0.00    +0.000 OA
ATOM     15  C   UNL     1     109.283 129.512 136.857  0.00  0.00    +0.000 A 
ATOM     16  C   UNL     1     110.465 129.262 136.092  0.00  0.00    +0.000 A 
ATOM     17  C   UNL     1     110.098 129.382 136.821  0.00  0.00    +0.000 A 
ATOM     18  C   UNL     1     108.837 129.522 136.164  0.00  0.00    +0.000 A 
ATOM     19  C   UNL     1     110.017 129.273 135.399  0.00  0.00    +0.000 A 
ATOM     20  C   UNL     1     109.204 129.403 135.435  0.00  0.00    +0.000 A 
BRANCH  15  21
ATOM     21  O   UNL     1     108.917 129.631 137.587  0.00  0.00    +0.000 OA
BRANCH  21  29
ATOM     22  O   UNL     1     109.428 130.929 137.896  0.00  0.00    +0.000 OA
ATOM     23  O   UNL     1     109.846 130.209 140.227  0.00  0.00    +0.000 OA
ATOM     24  O   UNL     1     109.195 129.151 139.140  0.00  0.00    +0.000 OA
ATOM     25  O   UNL     1     110.217 131.747 139.760  0.00  0.00    +0.000 OA
ATOM     26  C   UNL     1     109.706 130.449 139.450  0.00  0.00    +0.000 C 
ATOM     27  C   UNL     1     109.381 129.921 138.906  0.00  0.00    +0.000 C 
ATOM     28  C   UNL     1     109.892 131.219 139.216  0.00  0.00    +0.000 C 
ATOM     29  C   UNL     1     109.242 130.161 138.129  0.00  0.00    +0.000 C 
ATOM     30  C   UNL     1     109.753 131.459 138.439  0.00  0.00    +0.000 C 
BRANCH  30  33
ATOM     31  O   UNL     1     110.718 132.428 138.025  0.00  0.00    +0.000 OA
ATOM     32  O   UNL     1     109.344 132.797 138.153  0.00  0.00    +0.000 OA
ATOM     33  C   UNL     1     109.938 132.228 138.206  0.00  0.00    +0.000 C 
ENDBRANCH  30  33
ENDBRANCH  21  29
ENDBRANCH  15  21
ENDBRANCH   6  16
BRANCH   5  34
ATOM     34  O   UNL     1     111.047 127.732 135.887  0.00  0.00    +0.000 OA
BRANCH  34  41
ATOM     35  O   UNL     1     111.297 127.179 137.226  0.00  0.00    +0.000 OA
ATOM     36  O   UNL     1     110.860 125.094 137.088  0.00  0.00    +0.000 OA
ATOM     37  O   UNL     1     110.632 126.016 135.565  0.00  0.00    +0.000 OA
ATOM     38  C   UNL     1     110.988 125.903 136.986  0.00  0.00    +0.000 C 
ATOM     39  C   UNL     1     110.883 126.326 136.286  0.00  0.00    +0.000 C 
ATOM     40  C   UNL     1     111.244 126.431 137.567  0.00  0.00    +0.000 C 
ATOM     41  C   UNL     1     111.074 127.115 136.435  0.00  0.00    +0.000 C 
BRANCH  40  43
ATOM     42  O   UNL     1     111.481 126.839 138.916  0.00  0.00    +0.000 OA
ATOM     43  C   UNL     1     111.417 126.241 138.352  0.00  0.00    +0.000 C 
ENDBRANCH  40  43
ENDBRANCH  34  41
ENDBRANCH   5  34
TORSDOF 7
ENDMDL
