MODEL 1
REMARK VINA RESULT:      -7.8      0.000      0.000
REMARK  Name = 6454212
REMARK  2 active torsions:
REMARK  status: ('A' for Active; 'I' for Inactive)
REMARK    1  A    between atoms: O_2  and  C_18
REMARK    2  A    between atoms: C_4  and  C_8
REMARK                            x       y       z     vdW  Elec       q    Type
REMARK                         _______ _______ _______ _____ _____    ______ ____
ROOT
ATOM      1  O   UNL     1     112.276 124.151 136.669  0.00  0.00    +0.000 OA
ATOM      2  O   UNL     1     115.106 124.333 137.329  0.00  0.00    +0.000 OA
ATOM      3  C   UNL     1     111.544 125.320 136.294  0.00  0.00    +0.000 C 
ATOM      4  C   UNL     1     112.226 125.776 136.383  0.00  0.00    +0.000 C 
ATOM      5  C   UNL     1     111.569 124.507 136.437  0.00  0.00    +0.000 C 
ATOM      6  C   UNL     1     112.932 125.419 136.616  0.00  0.00    +0.000 A 
ATOM      7  C   UNL     1     112.957 124.606 136.759  0.00  0.00    +0.000 A 
ATOM      8  C   UNL     1     113.636 125.904 136.706  0.00  0.00    +0.000 A 
ATOM      9  C   UNL     1     113.688 124.223 137.002  0.00  0.00    +0.000 A 
ATOM     10  C   UNL     1     114.375 125.538 136.948  0.00  0.00    +0.000 A 
ATOM     11  C   UNL     1     114.401 124.693 137.097  0.00  0.00    +0.000 A 
ENDROOT
BRANCH   3  12
ATOM     12  C   UNL     1     110.838 125.677 136.061  0.00  0.00    +0.000 A 
ATOM     13  C   UNL     1     110.592 125.633 135.275  0.00  0.00    +0.000 A 
ATOM     14  C   UNL     1     110.376 126.078 136.616  0.00  0.00    +0.000 A 
ATOM     15  C   UNL     1     109.886 125.991 135.043  0.00  0.00    +0.000 A 
ATOM     16  C   UNL     1     109.670 126.435 136.383  0.00  0.00    +0.000 A 
ATOM     17  C   UNL     1     109.425 126.391 135.597  0.00  0.00    +0.000 A 
BRANCH  17  18
ATOM     18  O   UNL     1     108.718 126.749 135.366  0.00  0.00    +0.000 OA
ATOM     19  C   UNL     1     108.520 127.497 135.651  0.00  0.00    +0.000 C 
ENDBRANCH  17  18
ENDBRANCH   3  12
TORSDOF 2
ENDMDL
MODEL 2
REMARK VINA RESULT:      -7.7      7.769      8.343
REMARK  Name = 6454212
REMARK  2 active torsions:
REMARK  status: ('A' for Active; 'I' for Inactive)
REMARK    1  A    between atoms: O_2  and  C_18
REMARK    2  A    between atoms: C_4  and  C_8
REMARK                            x       y       z     vdW  Elec       q    Type
REMARK                         _______ _______ _______ _____ _____    ______ ____
ROOT
ATOM      1  O   UNL     1     105.002 125.311 139.723  0.00  0.00    +0.000 OA
ATOM      2  O   UNL     1     106.507 124.940 142.188  0.00  0.00    +0.000 OA
ATOM      3  C   UNL     1     104.310 124.212 139.126  0.00  0.00    +0.000 C 
ATOM      4  C   UNL     1     104.570 123.718 139.734  0.00  0.00    +0.000 C 
ATOM      5  C   UNL     1     104.526 125.009 139.120  0.00  0.00    +0.000 C 
ATOM      6  C   UNL     1     105.046 124.021 140.336  0.00  0.00    +0.000 A 
ATOM      7  C   UNL     1     105.262 124.817 140.330  0.00  0.00    +0.000 A 
ATOM      8  C   UNL     1     105.310 123.497 140.964  0.00  0.00    +0.000 A 
ATOM      9  C   UNL     1     105.757 125.144 140.952  0.00  0.00    +0.000 A 
ATOM     10  C   UNL     1     105.806 123.806 141.593  0.00  0.00    +0.000 A 
ATOM     11  C   UNL     1     106.031 124.635 141.587  0.00  0.00    +0.000 A 
ENDROOT
BRANCH   3  12
ATOM     12  C   UNL     1     103.834 123.909 138.524  0.00  0.00    +0.000 A 
ATOM     13  C   UNL     1     103.012 123.922 138.601  0.00  0.00    +0.000 A 
ATOM     14  C   UNL     1     104.180 123.593 137.845  0.00  0.00    +0.000 A 
ATOM     15  C   UNL     1     102.537 123.619 137.998  0.00  0.00    +0.000 A 
ATOM     16  C   UNL     1     103.704 123.290 137.243  0.00  0.00    +0.000 A 
ATOM     17  C   UNL     1     102.883 123.303 137.320  0.00  0.00    +0.000 A 
BRANCH  17  18
ATOM     18  O   UNL     1     102.408 122.999 136.717  0.00  0.00    +0.000 OA
ATOM     19  C   UNL     1     102.750 122.740 136.013  0.00  0.00    +0.000 C 
ENDBRANCH  17  18
ENDBRANCH   3  12
TORSDOF 2
ENDMDL
MODEL 3
REMARK VINA RESULT:      -7.7      9.752     11.956
REMARK  Name = 6454212
REMARK  2 active torsions:
REMARK  status: ('A' for Active; 'I' for Inactive)
REMARK    1  A    between atoms: O_2  and  C_18
REMARK    2  A    between atoms: C_4  and  C_8
REMARK                            x       y       z     vdW  Elec       q    Type
REMARK                         _______ _______ _______ _____ _____    ______ ____
ROOT
ATOM      1  O   UNL     1     102.741 129.757 140.638  0.00  0.00    +0.000 OA
ATOM      2  O   UNL     1     104.648 127.700 141.421  0.00  0.00    +0.000 OA
ATOM      3  C   UNL     1     102.429 130.831 141.528  0.00  0.00    +0.000 C 
ATOM      4  C   UNL     1     102.951 130.519 142.087  0.00  0.00    +0.000 C 
ATOM      5  C   UNL     1     102.324 130.450 140.804  0.00  0.00    +0.000 C 
ATOM      6  C   UNL     1     103.366 129.826 141.920  0.00  0.00    +0.000 A 
ATOM      7  C   UNL     1     103.261 129.445 141.196  0.00  0.00    +0.000 A 
ATOM      8  C   UNL     1     103.907 129.511 142.510  0.00  0.00    +0.000 A 
ATOM      9  C   UNL     1     103.689 128.723 141.012  0.00  0.00    +0.000 A 
ATOM     10  C   UNL     1     104.343 128.790 142.343  0.00  0.00    +0.000 A 
ATOM     11  C   UNL     1     104.233 128.393 141.589  0.00  0.00    +0.000 A 
ENDROOT
BRANCH   3  12
ATOM     12  C   UNL     1     102.013 131.523 141.694  0.00  0.00    +0.000 A 
ATOM     13  C   UNL     1     102.364 132.258 141.561  0.00  0.00    +0.000 A 
ATOM     14  C   UNL     1     101.245 131.481 141.995  0.00  0.00    +0.000 A 
ATOM     15  C   UNL     1     101.947 132.950 141.727  0.00  0.00    +0.000 A 
ATOM     16  C   UNL     1     100.829 132.173 142.161  0.00  0.00    +0.000 A 
ATOM     17  C   UNL     1     101.180 132.908 142.027  0.00  0.00    +0.000 A 
BRANCH  17  18
ATOM     18  O   UNL     1     100.763 133.600 142.194  0.00  0.00    +0.000 OA
ATOM     19  C   UNL     1     100.711 134.197 141.628  0.00  0.00    +0.000 C 
ENDBRANCH  17  18
ENDBRANCH   3  12
TORSDOF 2
ENDMDL
MODEL 4
REMARK VINA RESULT:      -7.5     12.036     12.810
REMARK  Name = 6454212
REMARK  2 active torsions:
REMARK  status: ('A' for Active; 'I' for Inactive)
REMARK    1  A    between atoms: O_2  and  C_18
REMARK    2  A    between atoms: C_4  and  C_8
REMARK                            x       y       z     vdW  Elec       q    Type
REMARK                         _______ _______ _______ _____ _____    ______ ____
ROOT
ATOM      1  O   UNL     1     105.837 125.139 146.088  0.00  0.00    +0.000 OA
ATOM      2  O   UNL     1     108.331 125.517 147.543  0.00  0.00    +0.000 OA
ATOM      3  C   UNL     1     104.707 124.544 146.730  0.00  0.00    +0.000 C 
ATOM      4  C   UNL     1     105.144 124.467 147.426  0.00  0.00    +0.000 C 
ATOM      5  C   UNL     1     105.053 124.880 146.061  0.00  0.00    +0.000 C 
ATOM      6  C   UNL     1     105.927 124.726 147.452  0.00  0.00    +0.000 A 
ATOM      7  C   UNL     1     106.273 125.062 146.783  0.00  0.00    +0.000 A 
ATOM      8  C   UNL     1     106.372 124.641 148.183  0.00  0.00    +0.000 A 
ATOM      9  C   UNL     1     107.088 125.335 146.798  0.00  0.00    +0.000 A 
ATOM     10  C   UNL     1     107.187 124.908 148.216  0.00  0.00    +0.000 A 
ATOM     11  C   UNL     1     107.548 125.258 147.519  0.00  0.00    +0.000 A 
ENDROOT
BRANCH   3  12
ATOM     12  C   UNL     1     103.924 124.286 146.705  0.00  0.00    +0.000 A 
ATOM     13  C   UNL     1     103.324 124.753 147.024  0.00  0.00    +0.000 A 
ATOM     14  C   UNL     1     103.742 123.558 146.359  0.00  0.00    +0.000 A 
ATOM     15  C   UNL     1     102.542 124.493 146.998  0.00  0.00    +0.000 A 
ATOM     16  C   UNL     1     102.959 123.299 146.333  0.00  0.00    +0.000 A 
ATOM     17  C   UNL     1     102.359 123.767 146.653  0.00  0.00    +0.000 A 
BRANCH  17  18
ATOM     18  O   UNL     1     101.576 123.506 146.626  0.00  0.00    +0.000 OA
ATOM     19  C   UNL     1     101.132 123.602 145.938  0.00  0.00    +0.000 C 
ENDBRANCH  17  18
ENDBRANCH   3  12
TORSDOF 2
ENDMDL
MODEL 5
REMARK VINA RESULT:      -7.4      9.845     12.965
REMARK  Name = 6454212
REMARK  2 active torsions:
REMARK  status: ('A' for Active; 'I' for Inactive)
REMARK    1  A    between atoms: O_2  and  C_18
REMARK    2  A    between atoms: C_4  and  C_8
REMARK                            x       y       z     vdW  Elec       q    Type
REMARK                         _______ _______ _______ _____ _____    ______ ____
ROOT
ATOM      1  O   UNL     1     100.910 131.956 141.996  0.00  0.00    +0.000 OA
ATOM      2  O   UNL     1     100.797 134.866 141.951  0.00  0.00    +0.000 OA
ATOM      3  C   UNL     1     102.100 131.272 141.600  0.00  0.00    +0.000 C 
ATOM      4  C   UNL     1     102.467 131.997 141.451  0.00  0.00    +0.000 C 
ATOM      5  C   UNL     1     101.322 131.252 141.872  0.00  0.00    +0.000 C 
ATOM      6  C   UNL     1     102.054 132.701 141.575  0.00  0.00    +0.000 A 
ATOM      7  C   UNL     1     101.275 132.680 141.847  0.00  0.00    +0.000 A 
ATOM      8  C   UNL     1     102.446 133.449 141.417  0.00  0.00    +0.000 A 
ATOM      9  C   UNL     1     100.835 133.407 141.980  0.00  0.00    +0.000 A 
ATOM     10  C   UNL     1     102.022 134.185 141.543  0.00  0.00    +0.000 A 
ATOM     11  C   UNL     1     101.211 134.164 141.827  0.00  0.00    +0.000 A 
ENDROOT
BRANCH   3  12
ATOM     12  C   UNL     1     102.513 130.569 141.476  0.00  0.00    +0.000 A 
ATOM     13  C   UNL     1     103.021 130.280 142.059  0.00  0.00    +0.000 A 
ATOM     14  C   UNL     1     102.418 130.155 140.769  0.00  0.00    +0.000 A 
ATOM     15  C   UNL     1     103.433 129.576 141.934  0.00  0.00    +0.000 A 
ATOM     16  C   UNL     1     102.831 129.451 140.645  0.00  0.00    +0.000 A 
ATOM     17  C   UNL     1     103.338 129.162 141.227  0.00  0.00    +0.000 A 
BRANCH  17  18
ATOM     18  O   UNL     1     103.751 128.458 141.102  0.00  0.00    +0.000 OA
ATOM     19  C   UNL     1     104.455 128.315 141.507  0.00  0.00    +0.000 C 
ENDBRANCH  17  18
ENDBRANCH   3  12
TORSDOF 2
ENDMDL
MODEL 6
REMARK VINA RESULT:      -7.3      2.640      3.715
REMARK  Name = 6454212
REMARK  2 active torsions:
REMARK  status: ('A' for Active; 'I' for Inactive)
REMARK    1  A    between atoms: O_2  and  C_18
REMARK    2  A    between atoms: C_4  and  C_8
REMARK                            x       y       z     vdW  Elec       q    Type
REMARK                         _______ _______ _______ _____ _____    ______ ____
ROOT
ATOM      1  O   UNL     1     112.279 126.264 136.282  0.00  0.00    +0.000 OA
ATOM      2  O   UNL     1     112.891 123.499 136.963  0.00  0.00    +0.000 OA
ATOM      3  C   UNL     1     113.286 127.272 136.377  0.00  0.00    +0.000 C 
ATOM      4  C   UNL     1     113.829 126.705 136.632  0.00  0.00    +0.000 C 
ATOM      5  C   UNL     1     112.511 127.052 136.202  0.00  0.00    +0.000 C 
ATOM      6  C   UNL     1     113.596 125.918 136.712  0.00  0.00    +0.000 A 
ATOM      7  C   UNL     1     112.821 125.698 136.538  0.00  0.00    +0.000 A 
ATOM      8  C   UNL     1     114.170 125.337 136.979  0.00  0.00    +0.000 A 
ATOM      9  C   UNL     1     112.566 124.880 136.618  0.00  0.00    +0.000 A 
ATOM     10  C   UNL     1     113.934 124.516 137.065  0.00  0.00    +0.000 A 
ATOM     11  C   UNL     1     113.126 124.286 136.883  0.00  0.00    +0.000 A 
ENDROOT
BRANCH   3  12
ATOM     12  C   UNL     1     113.520 128.059 136.296  0.00  0.00    +0.000 A 
ATOM     13  C   UNL     1     113.926 128.303 135.621  0.00  0.00    +0.000 A 
ATOM     14  C   UNL     1     113.347 128.604 136.893  0.00  0.00    +0.000 A 
ATOM     15  C   UNL     1     114.159 129.091 135.542  0.00  0.00    +0.000 A 
ATOM     16  C   UNL     1     113.580 129.391 136.812  0.00  0.00    +0.000 A 
ATOM     17  C   UNL     1     113.986 129.634 136.137  0.00  0.00    +0.000 A 
BRANCH  17  18
ATOM     18  O   UNL     1     114.219 130.422 136.058  0.00  0.00    +0.000 OA
ATOM     19  C   UNL     1     115.009 130.606 135.908  0.00  0.00    +0.000 C 
ENDBRANCH  17  18
ENDBRANCH   3  12
TORSDOF 2
ENDMDL
MODEL 7
REMARK VINA RESULT:      -7.3      1.525      2.156
REMARK  Name = 6454212
REMARK  2 active torsions:
REMARK  status: ('A' for Active; 'I' for Inactive)
REMARK    1  A    between atoms: O_2  and  C_18
REMARK    2  A    between atoms: C_4  and  C_8
REMARK                            x       y       z     vdW  Elec       q    Type
REMARK                         _______ _______ _______ _____ _____    ______ ____
ROOT
ATOM      1  O   UNL     1     110.784 125.020 135.347  0.00  0.00    +0.000 OA
ATOM      2  O   UNL     1     112.462 123.292 136.985  0.00  0.00    +0.000 OA
ATOM      3  C   UNL     1     110.265 126.240 135.879  0.00  0.00    +0.000 C 
ATOM      4  C   UNL     1     110.641 126.086 136.598  0.00  0.00    +0.000 C 
ATOM      5  C   UNL     1     110.337 125.707 135.254  0.00  0.00    +0.000 C 
ATOM      6  C   UNL     1     111.088 125.399 136.690  0.00  0.00    +0.000 A 
ATOM      7  C   UNL     1     111.159 124.866 136.065  0.00  0.00    +0.000 A 
ATOM      8  C   UNL     1     111.475 125.250 137.443  0.00  0.00    +0.000 A 
ATOM      9  C   UNL     1     111.622 124.146 136.149  0.00  0.00    +0.000 A 
ATOM     10  C   UNL     1     111.941 124.536 137.546  0.00  0.00    +0.000 A 
ATOM     11  C   UNL     1     112.015 123.980 136.895  0.00  0.00    +0.000 A 
ENDROOT
BRANCH   3  12
ATOM     12  C   UNL     1     109.819 126.927 135.787  0.00  0.00    +0.000 A 
ATOM     13  C   UNL     1     109.020 126.931 135.992  0.00  0.00    +0.000 A 
ATOM     14  C   UNL     1     110.172 127.612 135.490  0.00  0.00    +0.000 A 
ATOM     15  C   UNL     1     108.574 127.620 135.899  0.00  0.00    +0.000 A 
ATOM     16  C   UNL     1     109.726 128.299 135.397  0.00  0.00    +0.000 A 
ATOM     17  C   UNL     1     108.926 128.303 135.602  0.00  0.00    +0.000 A 
BRANCH  17  18
ATOM     18  O   UNL     1     108.481 128.991 135.510  0.00  0.00    +0.000 OA
ATOM     19  C   UNL     1     108.669 129.667 135.943  0.00  0.00    +0.000 C 
ENDBRANCH  17  18
ENDBRANCH   3  12
TORSDOF 2
ENDMDL
MODEL 8
REMARK VINA RESULT:      -7.2     12.025     13.420
REMARK  Name = 6454212
REMARK  2 active torsions:
REMARK  status: ('A' for Active; 'I' for Inactive)
REMARK    1  A    between atoms: O_2  and  C_18
REMARK    2  A    between atoms: C_4  and  C_8
REMARK                            x       y       z     vdW  Elec       q    Type
REMARK                         _______ _______ _______ _____ _____    ______ ____
ROOT
ATOM      1  O   UNL     1     102.952 124.846 147.046  0.00  0.00    +0.000 OA
ATOM      2  O   UNL     1     100.783 123.118 146.157  0.00  0.00    +0.000 OA
ATOM      3  C   UNL     1     104.306 124.541 146.705  0.00  0.00    +0.000 C 
ATOM      4  C   UNL     1     104.052 123.869 146.298  0.00  0.00    +0.000 C 
ATOM      5  C   UNL     1     103.756 125.029 147.079  0.00  0.00    +0.000 C 
ATOM      6  C   UNL     1     103.248 123.687 146.265  0.00  0.00    +0.000 A 
ATOM      7  C   UNL     1     102.698 124.176 146.639  0.00  0.00    +0.000 A 
ATOM      8  C   UNL     1     102.996 122.985 145.838  0.00  0.00    +0.000 A 
ATOM      9  C   UNL     1     101.858 123.996 146.611  0.00  0.00    +0.000 A 
ATOM     10  C   UNL     1     102.160 122.790 145.800  0.00  0.00    +0.000 A 
ATOM     11  C   UNL     1     101.588 123.298 146.189  0.00  0.00    +0.000 A 
ENDROOT
BRANCH   3  12
ATOM     12  C   UNL     1     105.110 124.723 146.738  0.00  0.00    +0.000 A 
ATOM     13  C   UNL     1     105.502 124.985 146.061  0.00  0.00    +0.000 A 
ATOM     14  C   UNL     1     105.522 124.643 147.449  0.00  0.00    +0.000 A 
ATOM     15  C   UNL     1     106.306 125.167 146.095  0.00  0.00    +0.000 A 
ATOM     16  C   UNL     1     106.326 124.825 147.482  0.00  0.00    +0.000 A 
ATOM     17  C   UNL     1     106.718 125.087 146.805  0.00  0.00    +0.000 A 
BRANCH  17  18
ATOM     18  O   UNL     1     107.522 125.269 146.839  0.00  0.00    +0.000 OA
ATOM     19  C   UNL     1     107.905 125.314 147.568  0.00  0.00    +0.000 C 
ENDBRANCH  17  18
ENDBRANCH   3  12
TORSDOF 2
ENDMDL
MODEL 9
REMARK VINA RESULT:      -7.2      3.180      4.461
REMARK  Name = 6454212
REMARK  2 active torsions:
REMARK  status: ('A' for Active; 'I' for Inactive)
REMARK    1  A    between atoms: O_2  and  C_18
REMARK    2  A    between atoms: C_4  and  C_8
REMARK                            x       y       z     vdW  Elec       q    Type
REMARK                         _______ _______ _______ _____ _____    ______ ____
ROOT
ATOM      1  O   UNL     1     112.339 125.761 138.288  0.00  0.00    +0.000 OA
ATOM      2  O   UNL     1     113.287 123.815 136.340  0.00  0.00    +0.000 OA
ATOM      3  C   UNL     1     113.265 126.600 138.982  0.00  0.00    +0.000 C 
ATOM      4  C   UNL     1     113.890 126.244 138.578  0.00  0.00    +0.000 C 
ATOM      5  C   UNL     1     112.489 126.358 138.837  0.00  0.00    +0.000 C 
ATOM      6  C   UNL     1     113.739 125.647 138.028  0.00  0.00    +0.000 A 
ATOM      7  C   UNL     1     112.964 125.406 137.884  0.00  0.00    +0.000 A 
ATOM      8  C   UNL     1     114.399 125.284 137.613  0.00  0.00    +0.000 A 
ATOM      9  C   UNL     1     112.794 124.785 137.313  0.00  0.00    +0.000 A 
ATOM     10  C   UNL     1     114.248 124.662 137.040  0.00  0.00    +0.000 A 
ATOM     11  C   UNL     1     113.441 124.411 136.889  0.00  0.00    +0.000 A 
ENDROOT
BRANCH   3  12
ATOM     12  C   UNL     1     113.416 127.196 139.532  0.00  0.00    +0.000 A 
ATOM     13  C   UNL     1     113.330 127.988 139.316  0.00  0.00    +0.000 A 
ATOM     14  C   UNL     1     113.654 127.000 140.298  0.00  0.00    +0.000 A 
ATOM     15  C   UNL     1     113.482 128.584 139.866  0.00  0.00    +0.000 A 
ATOM     16  C   UNL     1     113.805 127.597 140.847  0.00  0.00    +0.000 A 
ATOM     17  C   UNL     1     113.719 128.389 140.631  0.00  0.00    +0.000 A 
BRANCH  17  18
ATOM     18  O   UNL     1     113.870 128.984 141.181  0.00  0.00    +0.000 OA
ATOM     19  C   UNL     1     113.309 129.572 141.319  0.00  0.00    +0.000 C 
ENDBRANCH  17  18
ENDBRANCH   3  12
TORSDOF 2
ENDMDL
MODEL 10
REMARK VINA RESULT:      -7.2      0.780      4.390
REMARK  Name = 6454212
REMARK  2 active torsions:
REMARK  status: ('A' for Active; 'I' for Inactive)
REMARK    1  A    between atoms: O_2  and  C_18
REMARK    2  A    between atoms: C_4  and  C_8
REMARK                            x       y       z     vdW  Elec       q    Type
REMARK                         _______ _______ _______ _____ _____    ______ ____
ROOT
ATOM      1  O   UNL     1     109.942 125.727 135.326  0.00  0.00    +0.000 OA
ATOM      2  O   UNL     1     108.065 127.923 135.691  0.00  0.00    +0.000 OA
ATOM      3  C   UNL     1     111.097 125.616 136.160  0.00  0.00    +0.000 C 
ATOM      4  C   UNL     1     110.872 126.300 136.563  0.00  0.00    +0.000 C 
ATOM      5  C   UNL     1     110.632 125.329 135.541  0.00  0.00    +0.000 C 
ATOM      6  C   UNL     1     110.181 126.697 136.346  0.00  0.00    +0.000 A 
ATOM      7  C   UNL     1     109.717 126.410 135.728  0.00  0.00    +0.000 A 
ATOM      8  C   UNL     1     109.957 127.409 136.773  0.00  0.00    +0.000 A 
ATOM      9  C   UNL     1     108.996 126.815 135.494  0.00  0.00    +0.000 A 
ATOM     10  C   UNL     1     109.240 127.827 136.553  0.00  0.00    +0.000 A 
ATOM     11  C   UNL     1     108.756 127.528 135.909  0.00  0.00    +0.000 A 
ENDROOT
BRANCH   3  12
ATOM     12  C   UNL     1     111.787 125.219 136.376  0.00  0.00    +0.000 A 
ATOM     13  C   UNL     1     111.744 124.460 136.696  0.00  0.00    +0.000 A 
ATOM     14  C   UNL     1     112.521 125.582 136.272  0.00  0.00    +0.000 A 
ATOM     15  C   UNL     1     112.435 124.064 136.912  0.00  0.00    +0.000 A 
ATOM     16  C   UNL     1     113.211 125.186 136.489  0.00  0.00    +0.000 A 
ATOM     17  C   UNL     1     113.168 124.427 136.809  0.00  0.00    +0.000 A 
BRANCH  17  18
ATOM     18  O   UNL     1     113.859 124.031 137.025  0.00  0.00    +0.000 OA
ATOM     19  C   UNL     1     114.497 124.452 137.333  0.00  0.00    +0.000 C 
ENDBRANCH  17  18
ENDBRANCH   3  12
TORSDOF 2
ENDMDL
