MODEL 1
REMARK VINA RESULT:      -9.5      0.000      0.000
REMARK  Name = 42607970
REMARK  4 active torsions:
REMARK  status: ('A' for Active; 'I' for Inactive)
REMARK    1  A    between atoms: O_2  and  C_16
REMARK    2  A    between atoms: O_2  and  C_19
REMARK    3  A    between atoms: C_15  and  C_17
REMARK    4  A    between atoms: C_18  and  C_20
REMARK                            x       y       z     vdW  Elec       q    Type
REMARK                         _______ _______ _______ _____ _____    ______ ____
ROOT
ATOM      1  O   UNL     1     100.710 133.590 142.018  0.00  0.00    +0.000 OA
ATOM      2  C   UNL     1     101.891 132.937 141.546  0.00  0.00    +0.000 A 
ATOM      3  C   UNL     1     102.028 131.522 141.685  0.00  0.00    +0.000 A 
ATOM      4  C   UNL     1     102.330 132.248 141.435  0.00  0.00    +0.000 A 
ATOM      5  C   UNL     1     101.149 132.900 141.907  0.00  0.00    +0.000 A 
ATOM      6  C   UNL     1     101.287 131.485 142.045  0.00  0.00    +0.000 A 
ATOM      7  C   UNL     1     100.847 132.174 142.156  0.00  0.00    +0.000 A 
ENDROOT
BRANCH   3  12
ATOM      8  O   UNL     1     102.962 130.557 142.175  0.00  0.00    +0.000 OA
ATOM      9  O   UNL     1     102.802 129.317 140.039  0.00  0.00    +0.000 OA
ATOM     10  O   UNL     1     103.743 128.329 140.509  0.00  0.00    +0.000 OA
ATOM     11  O   UNL     1     104.866 128.601 143.191  0.00  0.00    +0.000 OA
ATOM     12  C   UNL     1     102.468 130.833 141.573  0.00  0.00    +0.000 C 
ATOM     13  C   UNL     1     102.415 130.419 140.862  0.00  0.00    +0.000 C 
ATOM     14  C   UNL     1     102.855 129.730 140.750  0.00  0.00    +0.000 C 
ATOM     15  C   UNL     1     103.349 129.454 141.352  0.00  0.00    +0.000 A 
ATOM     16  C   UNL     1     103.402 129.868 142.064  0.00  0.00    +0.000 A 
ATOM     17  C   UNL     1     103.802 128.736 141.225  0.00  0.00    +0.000 A 
ATOM     18  C   UNL     1     103.912 129.592 142.697  0.00  0.00    +0.000 A 
ATOM     19  C   UNL     1     104.373 128.875 142.588  0.00  0.00    +0.000 A 
ATOM     20  C   UNL     1     104.318 128.444 141.847  0.00  0.00    +0.000 A 
ENDBRANCH   3  12
BRANCH   2  21
ATOM     21  O   UNL     1     102.192 133.663 141.297  0.00  0.00    +0.000 OA
BRANCH  21  30
ATOM     22  O   UNL     1     103.117 133.906 142.359  0.00  0.00    +0.000 OA
ATOM     23  O   UNL     1     104.804 134.666 140.715  0.00  0.00    +0.000 OA
ATOM     24  O   UNL     1     105.167 134.655 142.325  0.00  0.00    +0.000 OA
ATOM     25  O   UNL     1     103.317 134.169 140.201  0.00  0.00    +0.000 OA
ATOM     26  C   UNL     1     104.242 134.412 141.263  0.00  0.00    +0.000 C 
ATOM     27  C   UNL     1     104.423 134.407 142.067  0.00  0.00    +0.000 C 
ATOM     28  C   UNL     1     103.498 134.164 141.005  0.00  0.00    +0.000 C 
ATOM     29  C   UNL     1     103.861 134.154 142.615  0.00  0.00    +0.000 C 
ATOM     30  C   UNL     1     102.936 133.911 141.553  0.00  0.00    +0.000 C 
BRANCH  29  32
ATOM     31  O   UNL     1     103.497 134.441 143.967  0.00  0.00    +0.000 OA
ATOM     32  C   UNL     1     104.042 134.149 143.421  0.00  0.00    +0.000 C 
ENDBRANCH  29  32
ENDBRANCH  21  30
ENDBRANCH   2  21
TORSDOF 4
ENDMDL
MODEL 2
REMARK VINA RESULT:      -9.4      8.751     11.277
REMARK  Name = 42607970
REMARK  4 active torsions:
REMARK  status: ('A' for Active; 'I' for Inactive)
REMARK    1  A    between atoms: O_2  and  C_16
REMARK    2  A    between atoms: O_2  and  C_19
REMARK    3  A    between atoms: C_15  and  C_17
REMARK    4  A    between atoms: C_18  and  C_20
REMARK                            x       y       z     vdW  Elec       q    Type
REMARK                         _______ _______ _______ _____ _____    ______ ____
ROOT
ATOM      1  O   UNL     1     111.219 124.316 135.760  0.00  0.00    +0.000 OA
ATOM      2  C   UNL     1     110.805 125.478 136.481  0.00  0.00    +0.000 A 
ATOM      3  C   UNL     1     110.208 126.575 135.786  0.00  0.00    +0.000 A 
ATOM      4  C   UNL     1     110.468 126.231 136.490  0.00  0.00    +0.000 A 
ATOM      5  C   UNL     1     110.882 125.069 135.768  0.00  0.00    +0.000 A 
ATOM      6  C   UNL     1     110.284 126.166 135.075  0.00  0.00    +0.000 A 
ATOM      7  C   UNL     1     110.621 125.412 135.065  0.00  0.00    +0.000 A 
ENDROOT
BRANCH   3  12
ATOM      8  O   UNL     1     110.355 127.996 135.833  0.00  0.00    +0.000 OA
ATOM      9  O   UNL     1     107.895 128.253 135.752  0.00  0.00    +0.000 OA
ATOM     10  O   UNL     1     108.016 129.690 135.798  0.00  0.00    +0.000 OA
ATOM     11  O   UNL     1     110.675 130.889 135.927  0.00  0.00    +0.000 OA
ATOM     12  C   UNL     1     109.871 127.328 135.796  0.00  0.00    +0.000 C 
ATOM     13  C   UNL     1     109.051 127.414 135.769  0.00  0.00    +0.000 C 
ATOM     14  C   UNL     1     108.714 128.167 135.779  0.00  0.00    +0.000 C 
ATOM     15  C   UNL     1     109.199 128.835 135.815  0.00  0.00    +0.000 A 
ATOM     16  C   UNL     1     110.019 128.749 135.842  0.00  0.00    +0.000 A 
ATOM     17  C   UNL     1     108.837 129.614 135.825  0.00  0.00    +0.000 A 
ATOM     18  C   UNL     1     110.533 129.436 135.880  0.00  0.00    +0.000 A 
ATOM     19  C   UNL     1     110.189 130.224 135.891  0.00  0.00    +0.000 A 
ATOM     20  C   UNL     1     109.335 130.313 135.863  0.00  0.00    +0.000 A 
ENDBRANCH   3  12
BRANCH   2  21
ATOM     21  O   UNL     1     111.065 125.135 137.184  0.00  0.00    +0.000 OA
BRANCH  21  30
ATOM     22  O   UNL     1     112.311 125.824 137.312  0.00  0.00    +0.000 OA
ATOM     23  O   UNL     1     111.910 126.096 139.739  0.00  0.00    +0.000 OA
ATOM     24  O   UNL     1     113.289 126.694 139.059  0.00  0.00    +0.000 OA
ATOM     25  O   UNL     1     110.798 125.316 138.802  0.00  0.00    +0.000 OA
ATOM     26  C   UNL     1     112.044 126.005 138.930  0.00  0.00    +0.000 C 
ATOM     27  C   UNL     1     112.733 126.304 138.590  0.00  0.00    +0.000 C 
ATOM     28  C   UNL     1     111.487 125.615 138.462  0.00  0.00    +0.000 C 
ATOM     29  C   UNL     1     112.866 126.213 137.781  0.00  0.00    +0.000 C 
ATOM     30  C   UNL     1     111.621 125.524 137.653  0.00  0.00    +0.000 C 
BRANCH  29  32
ATOM     31  O   UNL     1     114.002 126.041 136.931  0.00  0.00    +0.000 OA
ATOM     32  C   UNL     1     113.556 126.512 137.441  0.00  0.00    +0.000 C 
ENDBRANCH  29  32
ENDBRANCH  21  30
ENDBRANCH   2  21
TORSDOF 4
ENDMDL
MODEL 3
REMARK VINA RESULT:      -9.3      9.082     11.080
REMARK  Name = 42607970
REMARK  4 active torsions:
REMARK  status: ('A' for Active; 'I' for Inactive)
REMARK    1  A    between atoms: O_2  and  C_16
REMARK    2  A    between atoms: O_2  and  C_19
REMARK    3  A    between atoms: C_15  and  C_17
REMARK    4  A    between atoms: C_18  and  C_20
REMARK                            x       y       z     vdW  Elec       q    Type
REMARK                         _______ _______ _______ _____ _____    ______ ____
ROOT
ATOM      1  O   UNL     1     108.580 127.074 135.375  0.00  0.00    +0.000 OA
ATOM      2  C   UNL     1     109.607 126.799 136.331  0.00  0.00    +0.000 A 
ATOM      3  C   UNL     1     110.626 125.844 136.029  0.00  0.00    +0.000 A 
ATOM      4  C   UNL     1     110.288 126.389 136.548  0.00  0.00    +0.000 A 
ATOM      5  C   UNL     1     109.262 126.664 135.592  0.00  0.00    +0.000 A 
ATOM      6  C   UNL     1     110.282 125.709 135.292  0.00  0.00    +0.000 A 
ATOM      7  C   UNL     1     109.600 126.119 135.073  0.00  0.00    +0.000 A 
ENDROOT
BRANCH   3  12
ATOM      8  O   UNL     1     112.046 125.802 136.192  0.00  0.00    +0.000 OA
ATOM      9  O   UNL     1     111.882 123.473 137.014  0.00  0.00    +0.000 OA
ATOM     10  O   UNL     1     113.312 123.404 137.188  0.00  0.00    +0.000 OA
ATOM     11  O   UNL     1     114.939 125.735 136.517  0.00  0.00    +0.000 OA
ATOM     12  C   UNL     1     111.308 125.434 136.247  0.00  0.00    +0.000 C 
ATOM     13  C   UNL     1     111.254 124.658 136.521  0.00  0.00    +0.000 C 
ATOM     14  C   UNL     1     111.936 124.249 136.740  0.00  0.00    +0.000 C 
ATOM     15  C   UNL     1     112.674 124.616 136.684  0.00  0.00    +0.000 A 
ATOM     16  C   UNL     1     112.727 125.393 136.410  0.00  0.00    +0.000 A 
ATOM     17  C   UNL     1     113.376 124.180 136.915  0.00  0.00    +0.000 A 
ATOM     18  C   UNL     1     113.489 125.786 136.348  0.00  0.00    +0.000 A 
ATOM     19  C   UNL     1     114.204 125.365 136.574  0.00  0.00    +0.000 A 
ATOM     20  C   UNL     1     114.146 124.556 136.859  0.00  0.00    +0.000 A 
ENDBRANCH   3  12
BRANCH   2  21
ATOM     21  O   UNL     1     109.269 127.343 136.850  0.00  0.00    +0.000 OA
BRANCH  21  30
ATOM     22  O   UNL     1     110.146 128.448 136.623  0.00  0.00    +0.000 OA
ATOM     23  O   UNL     1     110.223 128.885 139.058  0.00  0.00    +0.000 OA
ATOM     24  O   UNL     1     111.074 129.845 138.021  0.00  0.00    +0.000 OA
ATOM     25  O   UNL     1     109.321 127.634 138.473  0.00  0.00    +0.000 OA
ATOM     26  C   UNL     1     110.197 128.740 138.247  0.00  0.00    +0.000 C 
ATOM     27  C   UNL     1     110.623 129.219 137.728  0.00  0.00    +0.000 C 
ATOM     28  C   UNL     1     109.746 128.114 137.955  0.00  0.00    +0.000 C 
ATOM     29  C   UNL     1     110.597 129.074 136.917  0.00  0.00    +0.000 C 
ATOM     30  C   UNL     1     109.720 127.968 137.143  0.00  0.00    +0.000 C 
BRANCH  29  32
ATOM     31  O   UNL     1     110.657 129.858 135.724  0.00  0.00    +0.000 OA
ATOM     32  C   UNL     1     111.023 129.554 136.397  0.00  0.00    +0.000 C 
ENDBRANCH  29  32
ENDBRANCH  21  30
ENDBRANCH   2  21
TORSDOF 4
ENDMDL
MODEL 4
REMARK VINA RESULT:      -9.2      6.833      9.514
REMARK  Name = 42607970
REMARK  4 active torsions:
REMARK  status: ('A' for Active; 'I' for Inactive)
REMARK    1  A    between atoms: O_2  and  C_16
REMARK    2  A    between atoms: O_2  and  C_19
REMARK    3  A    between atoms: C_15  and  C_17
REMARK    4  A    between atoms: C_18  and  C_20
REMARK                            x       y       z     vdW  Elec       q    Type
REMARK                         _______ _______ _______ _____ _____    ______ ____
ROOT
ATOM      1  O   UNL     1     108.351 125.107 147.273  0.00  0.00    +0.000 OA
ATOM      2  C   UNL     1     106.937 125.146 147.073  0.00  0.00    +0.000 A 
ATOM      3  C   UNL     1     106.068 125.432 148.171  0.00  0.00    +0.000 A 
ATOM      4  C   UNL     1     106.176 125.255 147.372  0.00  0.00    +0.000 A 
ATOM      5  C   UNL     1     107.590 125.215 147.573  0.00  0.00    +0.000 A 
ATOM      6  C   UNL     1     106.720 125.501 148.670  0.00  0.00    +0.000 A 
ATOM      7  C   UNL     1     107.482 125.392 148.371  0.00  0.00    +0.000 A 
ENDROOT
BRANCH   3  12
ATOM      8  O   UNL     1     104.795 124.895 148.540  0.00  0.00    +0.000 OA
ATOM      9  O   UNL     1     104.042 127.151 149.224  0.00  0.00    +0.000 OA
ATOM     10  O   UNL     1     102.749 126.635 149.604  0.00  0.00    +0.000 OA
ATOM     11  O   UNL     1     102.209 123.783 149.285  0.00  0.00    +0.000 OA
ATOM     12  C   UNL     1     105.306 125.540 148.469  0.00  0.00    +0.000 C 
ATOM     13  C   UNL     1     105.055 126.291 148.697  0.00  0.00    +0.000 C 
ATOM     14  C   UNL     1     104.293 126.400 148.996  0.00  0.00    +0.000 C 
ATOM     15  C   UNL     1     103.782 125.754 149.066  0.00  0.00    +0.000 A 
ATOM     16  C   UNL     1     104.034 125.003 148.838  0.00  0.00    +0.000 A 
ATOM     17  C   UNL     1     102.992 125.879 149.378  0.00  0.00    +0.000 A 
ATOM     18  C   UNL     1     103.512 124.324 148.906  0.00  0.00    +0.000 A 
ATOM     19  C   UNL     1     102.717 124.429 149.216  0.00  0.00    +0.000 A 
ATOM     20  C   UNL     1     102.456 125.212 149.454  0.00  0.00    +0.000 A 
ENDBRANCH   3  12
BRANCH   2  21
ATOM     21  O   UNL     1     107.045 124.970 146.275  0.00  0.00    +0.000 OA
BRANCH  21  30
ATOM     22  O   UNL     1     106.782 126.236 145.667  0.00  0.00    +0.000 OA
ATOM     23  O   UNL     1     105.290 125.137 144.026  0.00  0.00    +0.000 OA
ATOM     24  O   UNL     1     105.525 126.769 143.964  0.00  0.00    +0.000 OA
ATOM     25  O   UNL     1     106.050 124.237 145.181  0.00  0.00    +0.000 OA
ATOM     26  C   UNL     1     105.787 125.503 144.573  0.00  0.00    +0.000 C 
ATOM     27  C   UNL     1     105.904 126.319 144.542  0.00  0.00    +0.000 C 
ATOM     28  C   UNL     1     106.167 125.053 145.150  0.00  0.00    +0.000 C 
ATOM     29  C   UNL     1     106.402 126.685 145.089  0.00  0.00    +0.000 C 
ATOM     30  C   UNL     1     106.664 125.419 145.697  0.00  0.00    +0.000 C 
BRANCH  29  32
ATOM     31  O   UNL     1     107.278 127.812 145.147  0.00  0.00    +0.000 OA
ATOM     32  C   UNL     1     106.519 127.502 145.058  0.00  0.00    +0.000 C 
ENDBRANCH  29  32
ENDBRANCH  21  30
ENDBRANCH   2  21
TORSDOF 4
ENDMDL
MODEL 5
REMARK VINA RESULT:      -9.2      9.505     11.987
REMARK  Name = 42607970
REMARK  4 active torsions:
REMARK  status: ('A' for Active; 'I' for Inactive)
REMARK    1  A    between atoms: O_2  and  C_16
REMARK    2  A    between atoms: O_2  and  C_19
REMARK    3  A    between atoms: C_15  and  C_17
REMARK    4  A    between atoms: C_18  and  C_20
REMARK                            x       y       z     vdW  Elec       q    Type
REMARK                         _______ _______ _______ _____ _____    ______ ____
ROOT
ATOM      1  O   UNL     1     112.631 124.584 136.572  0.00  0.00    +0.000 OA
ATOM      2  C   UNL     1     112.187 125.940 136.494  0.00  0.00    +0.000 A 
ATOM      3  C   UNL     1     113.129 127.008 136.624  0.00  0.00    +0.000 A 
ATOM      4  C   UNL     1     112.354 126.748 136.512  0.00  0.00    +0.000 A 
ATOM      5  C   UNL     1     112.797 125.392 136.589  0.00  0.00    +0.000 A 
ATOM      6  C   UNL     1     113.737 126.460 136.719  0.00  0.00    +0.000 A 
ATOM      7  C   UNL     1     113.572 125.651 136.702  0.00  0.00    +0.000 A 
ENDROOT
BRANCH   3  12
ATOM      8  O   UNL     1     113.137 128.254 137.324  0.00  0.00    +0.000 OA
ATOM      9  O   UNL     1     114.102 129.364 135.333  0.00  0.00    +0.000 OA
ATOM     10  O   UNL     1     114.122 130.635 136.016  0.00  0.00    +0.000 OA
ATOM     11  O   UNL     1     113.146 130.785 138.765  0.00  0.00    +0.000 OA
ATOM     12  C   UNL     1     113.294 127.816 136.641  0.00  0.00    +0.000 C 
ATOM     13  C   UNL     1     113.615 128.186 135.979  0.00  0.00    +0.000 C 
ATOM     14  C   UNL     1     113.781 128.994 135.996  0.00  0.00    +0.000 C 
ATOM     15  C   UNL     1     113.624 129.433 136.678  0.00  0.00    +0.000 A 
ATOM     16  C   UNL     1     113.302 129.062 137.342  0.00  0.00    +0.000 A 
ATOM     17  C   UNL     1     113.800 130.273 136.685  0.00  0.00    +0.000 A 
ATOM     18  C   UNL     1     113.135 129.507 138.057  0.00  0.00    +0.000 A 
ATOM     19  C   UNL     1     113.304 130.350 138.082  0.00  0.00    +0.000 A 
ATOM     20  C   UNL     1     113.639 130.735 137.391  0.00  0.00    +0.000 A 
ENDBRANCH   3  12
BRANCH   2  21
ATOM     21  O   UNL     1     111.413 125.681 136.382  0.00  0.00    +0.000 OA
BRANCH  21  30
ATOM     22  O   UNL     1     110.907 125.845 137.708  0.00  0.00    +0.000 OA
ATOM     23  O   UNL     1     108.841 126.857 136.794  0.00  0.00    +0.000 OA
ATOM     24  O   UNL     1     109.023 126.684 138.424  0.00  0.00    +0.000 OA
ATOM     25  O   UNL     1     110.036 126.355 135.772  0.00  0.00    +0.000 OA
ATOM     26  C   UNL     1     109.530 126.520 137.098  0.00  0.00    +0.000 C 
ATOM     27  C   UNL     1     109.621 126.433 137.913  0.00  0.00    +0.000 C 
ATOM     28  C   UNL     1     110.127 126.269 136.587  0.00  0.00    +0.000 C 
ATOM     29  C   UNL     1     110.309 126.096 138.218  0.00  0.00    +0.000 C 
ATOM     30  C   UNL     1     110.816 125.932 136.892  0.00  0.00    +0.000 C 
BRANCH  29  32
ATOM     31  O   UNL     1     110.692 125.303 139.343  0.00  0.00    +0.000 OA
ATOM     32  C   UNL     1     110.401 126.010 139.034  0.00  0.00    +0.000 C 
ENDBRANCH  29  32
ENDBRANCH  21  30
ENDBRANCH   2  21
TORSDOF 4
ENDMDL
MODEL 6
REMARK VINA RESULT:      -9.2      9.692     11.644
REMARK  Name = 42607970
REMARK  4 active torsions:
REMARK  status: ('A' for Active; 'I' for Inactive)
REMARK    1  A    between atoms: O_2  and  C_16
REMARK    2  A    between atoms: O_2  and  C_19
REMARK    3  A    between atoms: C_15  and  C_17
REMARK    4  A    between atoms: C_18  and  C_20
REMARK                            x       y       z     vdW  Elec       q    Type
REMARK                         _______ _______ _______ _____ _____    ______ ____
ROOT
ATOM      1  O   UNL     1     113.015 130.081 136.015  0.00  0.00    +0.000 OA
ATOM      2  C   UNL     1     112.540 128.898 136.661  0.00  0.00    +0.000 A 
ATOM      3  C   UNL     1     113.207 127.652 136.449  0.00  0.00    +0.000 A 
ATOM      4  C   UNL     1     112.605 128.088 136.805  0.00  0.00    +0.000 A 
ATOM      5  C   UNL     1     113.080 129.272 136.160  0.00  0.00    +0.000 A 
ATOM      6  C   UNL     1     113.745 128.025 135.948  0.00  0.00    +0.000 A 
ATOM      7  C   UNL     1     113.682 128.835 135.803  0.00  0.00    +0.000 A 
ENDROOT
BRANCH   3  12
ATOM      8  O   UNL     1     112.668 126.331 136.351  0.00  0.00    +0.000 OA
ATOM      9  O   UNL     1     114.661 125.433 137.511  0.00  0.00    +0.000 OA
ATOM     10  O   UNL     1     114.139 124.090 137.426  0.00  0.00    +0.000 OA
ATOM     11  O   UNL     1     111.553 123.649 136.144  0.00  0.00    +0.000 OA
ATOM     12  C   UNL     1     113.270 126.842 136.594  0.00  0.00    +0.000 C 
ATOM     13  C   UNL     1     113.934 126.542 136.980  0.00  0.00    +0.000 C 
ATOM     14  C   UNL     1     113.997 125.732 137.125  0.00  0.00    +0.000 C 
ATOM     15  C   UNL     1     113.395 125.222 136.883  0.00  0.00    +0.000 A 
ATOM     16  C   UNL     1     112.731 125.522 136.496  0.00  0.00    +0.000 A 
ATOM     17  C   UNL     1     113.471 124.381 137.039  0.00  0.00    +0.000 A 
ATOM     18  C   UNL     1     112.097 125.001 136.239  0.00  0.00    +0.000 A 
ATOM     19  C   UNL     1     112.156 124.157 136.387  0.00  0.00    +0.000 A 
ATOM     20  C   UNL     1     112.848 123.845 136.790  0.00  0.00    +0.000 A 
ENDBRANCH   3  12
BRANCH   2  21
ATOM     21  O   UNL     1     111.939 129.334 137.017  0.00  0.00    +0.000 OA
BRANCH  21  30
ATOM     22  O   UNL     1     110.855 128.992 136.150  0.00  0.00    +0.000 OA
ATOM     23  O   UNL     1     109.378 128.695 138.114  0.00  0.00    +0.000 OA
ATOM     24  O   UNL     1     108.787 128.452 136.592  0.00  0.00    +0.000 OA
ATOM     25  O   UNL     1     110.953 129.137 138.326  0.00  0.00    +0.000 OA
ATOM     26  C   UNL     1     109.870 128.794 137.459  0.00  0.00    +0.000 C 
ATOM     27  C   UNL     1     109.575 128.672 136.699  0.00  0.00    +0.000 C 
ATOM     28  C   UNL     1     110.658 129.015 137.566  0.00  0.00    +0.000 C 
ATOM     29  C   UNL     1     110.068 128.771 136.045  0.00  0.00    +0.000 C 
ATOM     30  C   UNL     1     111.151 129.113 136.912  0.00  0.00    +0.000 C 
BRANCH  29  32
ATOM     31  O   UNL     1     109.925 129.200 134.689  0.00  0.00    +0.000 OA
ATOM     32  C   UNL     1     109.772 128.649 135.283  0.00  0.00    +0.000 C 
ENDBRANCH  29  32
ENDBRANCH  21  30
ENDBRANCH   2  21
TORSDOF 4
ENDMDL
MODEL 7
REMARK VINA RESULT:      -9.1      9.006     11.619
REMARK  Name = 42607970
REMARK  4 active torsions:
REMARK  status: ('A' for Active; 'I' for Inactive)
REMARK    1  A    between atoms: O_2  and  C_16
REMARK    2  A    between atoms: O_2  and  C_19
REMARK    3  A    between atoms: C_15  and  C_17
REMARK    4  A    between atoms: C_18  and  C_20
REMARK                            x       y       z     vdW  Elec       q    Type
REMARK                         _______ _______ _______ _____ _____    ______ ____
ROOT
ATOM      1  O   UNL     1     111.415 123.982 136.354  0.00  0.00    +0.000 OA
ATOM      2  C   UNL     1     111.160 125.316 136.797  0.00  0.00    +0.000 A 
ATOM      3  C   UNL     1     110.783 126.321 135.853  0.00  0.00    +0.000 A 
ATOM      4  C   UNL     1     110.949 126.096 136.629  0.00  0.00    +0.000 A 
ATOM      5  C   UNL     1     111.205 124.761 136.187  0.00  0.00    +0.000 A 
ATOM      6  C   UNL     1     110.828 125.767 135.245  0.00  0.00    +0.000 A 
ATOM      7  C   UNL     1     111.039 124.987 135.411  0.00  0.00    +0.000 A 
ENDROOT
BRANCH   3  12
ATOM      8  O   UNL     1     109.825 127.381 135.899  0.00  0.00    +0.000 OA
ATOM      9  O   UNL     1     111.433 128.884 134.767  0.00  0.00    +0.000 OA
ATOM     10  O   UNL     1     110.484 129.970 134.800  0.00  0.00    +0.000 OA
ATOM     11  O   UNL     1     107.860 129.528 136.002  0.00  0.00    +0.000 OA
ATOM     12  C   UNL     1     110.573 127.102 135.687  0.00  0.00    +0.000 C 
ATOM     13  C   UNL     1     111.108 127.603 135.310  0.00  0.00    +0.000 C 
ATOM     14  C   UNL     1     110.898 128.383 135.144  0.00  0.00    +0.000 C 
ATOM     15  C   UNL     1     110.150 128.662 135.356  0.00  0.00    +0.000 A 
ATOM     16  C   UNL     1     109.614 128.161 135.733  0.00  0.00    +0.000 A 
ATOM     17  C   UNL     1     109.942 129.476 135.178  0.00  0.00    +0.000 A 
ATOM     18  C   UNL     1     108.834 128.440 135.959  0.00  0.00    +0.000 A 
ATOM     19  C   UNL     1     108.607 129.252 135.789  0.00  0.00    +0.000 A 
ATOM     20  C   UNL     1     109.166 129.773 135.396  0.00  0.00    +0.000 A 
ENDBRANCH   3  12
BRANCH   2  21
ATOM     21  O   UNL     1     111.325 125.091 137.572  0.00  0.00    +0.000 OA
BRANCH  21  30
ATOM     22  O   UNL     1     112.672 125.554 137.693  0.00  0.00    +0.000 OA
ATOM     23  O   UNL     1     112.135 126.533 139.902  0.00  0.00    +0.000 OA
ATOM     24  O   UNL     1     113.660 126.671 139.287  0.00  0.00    +0.000 OA
ATOM     25  O   UNL     1     110.968 125.743 139.044  0.00  0.00    +0.000 OA
ATOM     26  C   UNL     1     112.314 126.207 139.166  0.00  0.00    +0.000 C 
ATOM     27  C   UNL     1     113.076 126.276 138.859  0.00  0.00    +0.000 C 
ATOM     28  C   UNL     1     111.730 125.812 138.737  0.00  0.00    +0.000 C 
ATOM     29  C   UNL     1     113.255 125.950 138.123  0.00  0.00    +0.000 C 
ATOM     30  C   UNL     1     111.909 125.486 138.001  0.00  0.00    +0.000 C 
BRANCH  29  32
ATOM     31  O   UNL     1     114.395 125.357 137.497  0.00  0.00    +0.000 OA
ATOM     32  C   UNL     1     114.018 126.018 137.815  0.00  0.00    +0.000 C 
ENDBRANCH  29  32
ENDBRANCH  21  30
ENDBRANCH   2  21
TORSDOF 4
ENDMDL
MODEL 8
REMARK VINA RESULT:      -9.1      5.871      8.535
REMARK  Name = 42607970
REMARK  4 active torsions:
REMARK  status: ('A' for Active; 'I' for Inactive)
REMARK    1  A    between atoms: O_2  and  C_16
REMARK    2  A    between atoms: O_2  and  C_19
REMARK    3  A    between atoms: C_15  and  C_17
REMARK    4  A    between atoms: C_18  and  C_20
REMARK                            x       y       z     vdW  Elec       q    Type
REMARK                         _______ _______ _______ _____ _____    ______ ____
ROOT
ATOM      1  O   UNL     1     107.555 125.561 146.725  0.00  0.00    +0.000 OA
ATOM      2  C   UNL     1     106.351 125.270 146.011  0.00  0.00    +0.000 A 
ATOM      3  C   UNL     1     105.246 124.669 146.690  0.00  0.00    +0.000 A 
ATOM      4  C   UNL     1     105.582 124.973 146.000  0.00  0.00    +0.000 A 
ATOM      5  C   UNL     1     106.785 125.263 146.714  0.00  0.00    +0.000 A 
ATOM      6  C   UNL     1     105.680 124.662 147.391  0.00  0.00    +0.000 A 
ATOM      7  C   UNL     1     106.450 124.959 147.403  0.00  0.00    +0.000 A 
ENDROOT
BRANCH   3  12
ATOM      8  O   UNL     1     103.884 124.743 147.116  0.00  0.00    +0.000 OA
ATOM      9  O   UNL     1     103.352 122.739 145.764  0.00  0.00    +0.000 OA
ATOM     10  O   UNL     1     101.971 122.791 146.179  0.00  0.00    +0.000 OA
ATOM     11  O   UNL     1     101.112 124.911 147.994  0.00  0.00    +0.000 OA
ATOM     12  C   UNL     1     104.477 124.371 146.677  0.00  0.00    +0.000 C 
ATOM     13  C   UNL     1     104.299 123.704 146.227  0.00  0.00    +0.000 C 
ATOM     14  C   UNL     1     103.529 123.407 146.214  0.00  0.00    +0.000 C 
ATOM     15  C   UNL     1     102.936 123.778 146.653  0.00  0.00    +0.000 A 
ATOM     16  C   UNL     1     103.115 124.447 147.103  0.00  0.00    +0.000 A 
ATOM     17  C   UNL     1     102.139 123.460 146.632  0.00  0.00    +0.000 A 
ATOM     18  C   UNL     1     102.507 124.842 147.564  0.00  0.00    +0.000 A 
ATOM     19  C   UNL     1     101.702 124.538 147.555  0.00  0.00    +0.000 A 
ATOM     20  C   UNL     1     101.518 123.842 147.086  0.00  0.00    +0.000 A 
ENDBRANCH   3  12
BRANCH   2  21
ATOM     21  O   UNL     1     106.686 125.574 145.323  0.00  0.00    +0.000 OA
BRANCH  21  30
ATOM     22  O   UNL     1     106.071 126.864 145.287  0.00  0.00    +0.000 OA
ATOM     23  O   UNL     1     105.592 126.569 142.877  0.00  0.00    +0.000 OA
ATOM     24  O   UNL     1     105.137 127.957 143.645  0.00  0.00    +0.000 OA
ATOM     25  O   UNL     1     106.367 125.378 143.716  0.00  0.00    +0.000 OA
ATOM     26  C   UNL     1     105.752 126.667 143.680  0.00  0.00    +0.000 C 
ATOM     27  C   UNL     1     105.524 127.361 144.064  0.00  0.00    +0.000 C 
ATOM     28  C   UNL     1     106.139 126.071 144.099  0.00  0.00    +0.000 C 
ATOM     29  C   UNL     1     105.684 127.459 144.867  0.00  0.00    +0.000 C 
ATOM     30  C   UNL     1     106.299 126.169 144.903  0.00  0.00    +0.000 C 
BRANCH  29  32
ATOM     31  O   UNL     1     105.970 128.516 145.786  0.00  0.00    +0.000 OA
ATOM     32  C   UNL     1     105.456 128.153 145.252  0.00  0.00    +0.000 C 
ENDBRANCH  29  32
ENDBRANCH  21  30
ENDBRANCH   2  21
TORSDOF 4
ENDMDL
MODEL 9
REMARK VINA RESULT:      -9.0     10.337     11.808
REMARK  Name = 42607970
REMARK  4 active torsions:
REMARK  status: ('A' for Active; 'I' for Inactive)
REMARK    1  A    between atoms: O_2  and  C_16
REMARK    2  A    between atoms: O_2  and  C_19
REMARK    3  A    between atoms: C_15  and  C_17
REMARK    4  A    between atoms: C_18  and  C_20
REMARK                            x       y       z     vdW  Elec       q    Type
REMARK                         _______ _______ _______ _____ _____    ______ ____
ROOT
ATOM      1  O   UNL     1     114.542 130.813 135.682  0.00  0.00    +0.000 OA
ATOM      2  C   UNL     1     114.044 129.819 136.580  0.00  0.00    +0.000 A 
ATOM      3  C   UNL     1     113.726 128.513 136.095  0.00  0.00    +0.000 A 
ATOM      4  C   UNL     1     113.772 129.053 136.718  0.00  0.00    +0.000 A 
ATOM      5  C   UNL     1     114.270 130.046 135.819  0.00  0.00    +0.000 A 
ATOM      6  C   UNL     1     113.952 128.740 135.336  0.00  0.00    +0.000 A 
ATOM      7  C   UNL     1     114.224 129.506 135.197  0.00  0.00    +0.000 A 
ENDROOT
BRANCH   3  12
ATOM      8  O   UNL     1     113.975 127.166 136.505  0.00  0.00    +0.000 OA
ATOM      9  O   UNL     1     111.598 126.605 136.108  0.00  0.00    +0.000 OA
ATOM     10  O   UNL     1     111.822 125.240 136.517  0.00  0.00    +0.000 OA
ATOM     11  O   UNL     1     114.502 124.428 137.344  0.00  0.00    +0.000 OA
ATOM     12  C   UNL     1     113.454 127.746 136.234  0.00  0.00    +0.000 C 
ATOM     13  C   UNL     1     112.662 127.559 136.101  0.00  0.00    +0.000 C 
ATOM     14  C   UNL     1     112.390 126.793 136.240  0.00  0.00    +0.000 C 
ATOM     15  C   UNL     1     112.911 126.213 136.512  0.00  0.00    +0.000 A 
ATOM     16  C   UNL     1     113.704 126.400 136.644  0.00  0.00    +0.000 A 
ATOM     17  C   UNL     1     112.617 125.418 136.652  0.00  0.00    +0.000 A 
ATOM     18  C   UNL     1     114.256 125.806 136.926  0.00  0.00    +0.000 A 
ATOM     19  C   UNL     1     113.979 125.005 137.073  0.00  0.00    +0.000 A 
ATOM     20  C   UNL     1     113.154 124.810 136.935  0.00  0.00    +0.000 A 
ENDBRANCH   3  12
BRANCH   2  21
ATOM     21  O   UNL     1     114.090 130.358 137.202  0.00  0.00    +0.000 OA
BRANCH  21  30
ATOM     22  O   UNL     1     112.717 130.745 137.294  0.00  0.00    +0.000 OA
ATOM     23  O   UNL     1     112.828 130.549 139.759  0.00  0.00    +0.000 OA
ATOM     24  O   UNL     1     111.418 131.001 139.030  0.00  0.00    +0.000 OA
ATOM     25  O   UNL     1     114.164 130.227 138.845  0.00  0.00    +0.000 OA
ATOM     26  C   UNL     1     112.791 130.614 138.938  0.00  0.00    +0.000 C 
ATOM     27  C   UNL     1     112.087 130.840 138.574  0.00  0.00    +0.000 C 
ATOM     28  C   UNL     1     113.459 130.453 138.481  0.00  0.00    +0.000 C 
ATOM     29  C   UNL     1     112.050 130.905 137.752  0.00  0.00    +0.000 C 
ATOM     30  C   UNL     1     113.422 130.519 137.659  0.00  0.00    +0.000 C 
BRANCH  29  32
ATOM     31  O   UNL     1     111.348 131.729 136.818  0.00  0.00    +0.000 OA
ATOM     32  C   UNL     1     111.344 131.131 137.387  0.00  0.00    +0.000 C 
ENDBRANCH  29  32
ENDBRANCH  21  30
ENDBRANCH   2  21
TORSDOF 4
ENDMDL
MODEL 10
REMARK VINA RESULT:      -9.0      9.494     11.860
REMARK  Name = 42607970
REMARK  4 active torsions:
REMARK  status: ('A' for Active; 'I' for Inactive)
REMARK    1  A    between atoms: O_2  and  C_16
REMARK    2  A    between atoms: O_2  and  C_19
REMARK    3  A    between atoms: C_15  and  C_17
REMARK    4  A    between atoms: C_18  and  C_20
REMARK                            x       y       z     vdW  Elec       q    Type
REMARK                         _______ _______ _______ _____ _____    ______ ____
ROOT
ATOM      1  O   UNL     1     109.965 126.485 134.612  0.00  0.00    +0.000 OA
ATOM      2  C   UNL     1     111.075 126.739 135.476  0.00  0.00    +0.000 A 
ATOM      3  C   UNL     1     111.686 128.031 135.492  0.00  0.00    +0.000 A 
ATOM      4  C   UNL     1     111.648 127.255 135.769  0.00  0.00    +0.000 A 
ATOM      5  C   UNL     1     110.539 127.001 134.905  0.00  0.00    +0.000 A 
ATOM      6  C   UNL     1     111.150 128.292 134.922  0.00  0.00    +0.000 A 
ATOM      7  C   UNL     1     110.576 127.777 134.628  0.00  0.00    +0.000 A 
ENDROOT
BRANCH   3  12
ATOM      8  O   UNL     1     112.109 128.984 136.471  0.00  0.00    +0.000 OA
ATOM      9  O   UNL     1     114.279 129.217 135.303  0.00  0.00    +0.000 OA
ATOM     10  O   UNL     1     114.731 130.181 136.277  0.00  0.00    +0.000 OA
ATOM     11  O   UNL     1     112.955 130.922 138.473  0.00  0.00    +0.000 OA
ATOM     12  C   UNL     1     112.259 128.546 135.786  0.00  0.00    +0.000 C 
ATOM     13  C   UNL     1     112.982 128.624 135.398  0.00  0.00    +0.000 C 
ATOM     14  C   UNL     1     113.556 129.139 135.692  0.00  0.00    +0.000 C 
ATOM     15  C   UNL     1     113.406 129.577 136.376  0.00  0.00    +0.000 A 
ATOM     16  C   UNL     1     112.682 129.498 136.765  0.00  0.00    +0.000 A 
ATOM     17  C   UNL     1     114.010 130.110 136.673  0.00  0.00    +0.000 A 
ATOM     18  C   UNL     1     112.514 129.948 137.477  0.00  0.00    +0.000 A 
ATOM     19  C   UNL     1     113.107 130.487 137.789  0.00  0.00    +0.000 A 
ATOM     20  C   UNL     1     113.861 130.568 137.384  0.00  0.00    +0.000 A 
ENDBRANCH   3  12
BRANCH   2  21
ATOM     21  O   UNL     1     111.037 125.964 135.753  0.00  0.00    +0.000 OA
BRANCH  21  30
ATOM     22  O   UNL     1     110.379 126.204 136.998  0.00  0.00    +0.000 OA
ATOM     23  O   UNL     1     111.905 124.605 138.112  0.00  0.00    +0.000 OA
ATOM     24  O   UNL     1     110.738 125.378 138.986  0.00  0.00    +0.000 OA
ATOM     25  O   UNL     1     112.054 124.898 136.495  0.00  0.00    +0.000 OA
ATOM     26  C   UNL     1     111.396 125.138 137.741  0.00  0.00    +0.000 C 
ATOM     27  C   UNL     1     110.813 125.524 138.178  0.00  0.00    +0.000 C 
ATOM     28  C   UNL     1     111.471 125.284 136.932  0.00  0.00    +0.000 C 
ATOM     29  C   UNL     1     110.305 126.057 137.806  0.00  0.00    +0.000 C 
ATOM     30  C   UNL     1     110.963 125.817 136.561  0.00  0.00    +0.000 C 
BRANCH  29  32
ATOM     31  O   UNL     1     108.944 126.462 137.968  0.00  0.00    +0.000 OA
ATOM     32  C   UNL     1     109.721 126.444 138.244  0.00  0.00    +0.000 C 
ENDBRANCH  29  32
ENDBRANCH  21  30
ENDBRANCH   2  21
TORSDOF 4
ENDMDL
