MODEL 1
REMARK VINA RESULT:      -9.2      0.000      0.000
REMARK  Name = 14630678
REMARK  11 active torsions:
REMARK  status: ('A' for Active; 'I' for Inactive)
REMARK    1  A    between atoms: O_2  and  C_15
REMARK    2  A    between atoms: O_2  and  C_22
REMARK    3  A    between atoms: O_3  and  C_16
REMARK    4  A    between atoms: O_3  and  C_23
REMARK    5  A    between atoms: O_4  and  C_17
REMARK    6  A    between atoms: O_4  and  C_24
REMARK    7  A    between atoms: O_5  and  C_19
REMARK    8  A    between atoms: O_5  and  C_21
REMARK    9  A    between atoms: C_23  and  C_30
REMARK   10  A    between atoms: C_25  and  C_32
REMARK   11  A    between atoms: C_35  and  C_40
REMARK                            x       y       z     vdW  Elec       q    Type
REMARK                         _______ _______ _______ _____ _____    ______ ____
ROOT
ATOM      1  O   UNL     1     111.636 128.428 138.050  0.00  0.00    +0.000 OA
ATOM      2  C   UNL     1     112.299 129.934 137.929  0.00  0.00    +0.000 C 
ATOM      3  C   UNL     1     111.579 129.771 137.563  0.00  0.00    +0.000 C 
ATOM      4  C   UNL     1     112.689 129.345 138.356  0.00  0.00    +0.000 C 
ATOM      5  C   UNL     1     111.247 129.018 137.624  0.00  0.00    +0.000 C 
ATOM      6  C   UNL     1     112.358 128.592 138.416  0.00  0.00    +0.000 C 
ATOM      7  C   UNL     1     110.526 128.854 137.257  0.00  0.00    +0.000 C 
ENDROOT
BRANCH   2   8
ATOM      8  O   UNL     1     112.631 130.687 137.869  0.00  0.00    +0.000 OA
BRANCH   8  10
ATOM      9  O   UNL     1     113.350 130.323 136.689  0.00  0.00    +0.000 OA
ATOM     10  C   UNL     1     113.042 130.904 137.187  0.00  0.00    +0.000 C 
ATOM     11  C   UNL     1     113.143 131.702 137.002  0.00  0.00    +0.000 C 
ENDBRANCH   8  10
ENDBRANCH   2   8
BRANCH   3  12
ATOM     12  O   UNL     1     111.189 130.360 137.137  0.00  0.00    +0.000 OA
BRANCH  12  14
ATOM     13  O   UNL     1     110.300 130.729 138.194  0.00  0.00    +0.000 OA
ATOM     14  C   UNL     1     110.451 130.630 137.388  0.00  0.00    +0.000 C 
BRANCH  14  15
ATOM     15  C   UNL     1     109.864 130.803 136.835  0.00  0.00    +0.000 C 
ATOM     16  C   UNL     1     109.505 131.546 136.831  0.00  0.00    +0.000 C 
BRANCH  16  18
ATOM     17  O   UNL     1     107.159 132.231 134.614  0.00  0.00    +0.000 OA
ATOM     18  C   UNL     1     108.918 131.717 136.277  0.00  0.00    +0.000 A 
ATOM     19  C   UNL     1     109.123 132.040 135.546  0.00  0.00    +0.000 A 
ATOM     20  C   UNL     1     108.127 131.565 136.453  0.00  0.00    +0.000 A 
ATOM     21  C   UNL     1     108.537 132.211 134.992  0.00  0.00    +0.000 A 
ATOM     22  C   UNL     1     107.540 131.736 135.899  0.00  0.00    +0.000 A 
ATOM     23  C   UNL     1     107.745 132.059 135.168  0.00  0.00    +0.000 A 
ENDBRANCH  16  18
ENDBRANCH  14  15
ENDBRANCH  12  14
ENDBRANCH   3  12
BRANCH   4  24
ATOM     24  O   UNL     1     113.410 129.508 138.722  0.00  0.00    +0.000 OA
BRANCH  24  26
ATOM     25  O   UNL     1     112.721 130.082 139.835  0.00  0.00    +0.000 OA
ATOM     26  C   UNL     1     113.424 129.837 139.479  0.00  0.00    +0.000 C 
ATOM     27  C   UNL     1     114.140 129.920 139.879  0.00  0.00    +0.000 C 
ENDBRANCH  24  26
ENDBRANCH   4  24
BRANCH   6  28
ATOM     28  O   UNL     1     112.746 128.002 138.842  0.00  0.00    +0.000 OA
BRANCH  28  33
ATOM     29  O   UNL     1     112.495 125.838 138.713  0.00  0.00    +0.000 OA
ATOM     30  O   UNL     1     113.397 127.701 137.356  0.00  0.00    +0.000 OA
ATOM     31  O   UNL     1     113.760 126.792 136.296  0.00  0.00    +0.000 OA
ATOM     32  O   UNL     1     113.201 123.943 136.616  0.00  0.00    +0.000 OA
ATOM     33  C   UNL     1     112.771 127.231 138.551  0.00  0.00    +0.000 A 
ATOM     34  C   UNL     1     112.470 126.610 139.004  0.00  0.00    +0.000 A 
ATOM     35  C   UNL     1     113.096 127.081 137.808  0.00  0.00    +0.000 A 
ATOM     36  C   UNL     1     113.121 126.309 137.518  0.00  0.00    +0.000 A 
ATOM     37  C   UNL     1     112.820 125.688 137.969  0.00  0.00    +0.000 A 
ATOM     38  C   UNL     1     113.462 126.164 136.742  0.00  0.00    +0.000 A 
ATOM     39  C   UNL     1     112.840 124.879 137.678  0.00  0.00    +0.000 A 
ATOM     40  C   UNL     1     113.491 125.363 136.433  0.00  0.00    +0.000 A 
ATOM     41  C   UNL     1     113.177 124.716 136.904  0.00  0.00    +0.000 A 
BRANCH  34  43
ATOM     42  O   UNL     1     111.169 127.211 141.977  0.00  0.00    +0.000 OA
ATOM     43  C   UNL     1     112.146 126.760 139.747  0.00  0.00    +0.000 A 
ATOM     44  C   UNL     1     111.329 126.843 139.830  0.00  0.00    +0.000 A 
ATOM     45  C   UNL     1     112.636 126.827 140.407  0.00  0.00    +0.000 A 
ATOM     46  C   UNL     1     111.003 126.994 140.574  0.00  0.00    +0.000 A 
ATOM     47  C   UNL     1     112.312 126.978 141.149  0.00  0.00    +0.000 A 
ATOM     48  C   UNL     1     111.495 127.061 141.233  0.00  0.00    +0.000 A 
ENDBRANCH  34  43
ENDBRANCH  28  33
ENDBRANCH   6  28
TORSDOF 11
ENDMDL
MODEL 2
REMARK VINA RESULT:      -9.0      2.153      6.332
REMARK  Name = 14630678
REMARK  11 active torsions:
REMARK  status: ('A' for Active; 'I' for Inactive)
REMARK    1  A    between atoms: O_2  and  C_15
REMARK    2  A    between atoms: O_2  and  C_22
REMARK    3  A    between atoms: O_3  and  C_16
REMARK    4  A    between atoms: O_3  and  C_23
REMARK    5  A    between atoms: O_4  and  C_17
REMARK    6  A    between atoms: O_4  and  C_24
REMARK    7  A    between atoms: O_5  and  C_19
REMARK    8  A    between atoms: O_5  and  C_21
REMARK    9  A    between atoms: C_23  and  C_30
REMARK   10  A    between atoms: C_25  and  C_32
REMARK   11  A    between atoms: C_35  and  C_40
REMARK                            x       y       z     vdW  Elec       q    Type
REMARK                         _______ _______ _______ _____ _____    ______ ____
ROOT
ATOM      1  O   UNL     1     110.540 129.317 137.972  0.00  0.00    +0.000 OA
ATOM      2  C   UNL     1     109.889 128.388 136.773  0.00  0.00    +0.000 C 
ATOM      3  C   UNL     1     110.596 128.162 137.131  0.00  0.00    +0.000 C 
ATOM      4  C   UNL     1     109.506 129.079 137.013  0.00  0.00    +0.000 C 
ATOM      5  C   UNL     1     110.922 128.627 137.731  0.00  0.00    +0.000 C 
ATOM      6  C   UNL     1     109.832 129.543 137.613  0.00  0.00    +0.000 C 
ATOM      7  C   UNL     1     111.630 128.401 138.090  0.00  0.00    +0.000 C 
ENDROOT
BRANCH   2   8
ATOM      8  O   UNL     1     109.564 127.924 136.174  0.00  0.00    +0.000 OA
BRANCH   8  10
ATOM      9  O   UNL     1     108.840 127.154 137.136  0.00  0.00    +0.000 OA
ATOM     10  C   UNL     1     109.115 127.258 136.365  0.00  0.00    +0.000 C 
ATOM     11  C   UNL     1     108.941 126.697 135.786  0.00  0.00    +0.000 C 
ENDBRANCH   8  10
ENDBRANCH   2   8
BRANCH   3  12
ATOM     12  O   UNL     1     110.979 127.472 136.891  0.00  0.00    +0.000 OA
BRANCH  12  14
ATOM     13  O   UNL     1     111.978 128.094 136.079  0.00  0.00    +0.000 OA
ATOM     14  C   UNL     1     111.756 127.507 136.615  0.00  0.00    +0.000 C 
BRANCH  14  15
ATOM     15  C   UNL     1     112.311 126.954 136.873  0.00  0.00    +0.000 C 
ATOM     16  C   UNL     1     112.662 126.437 136.334  0.00  0.00    +0.000 C 
BRANCH  16  18
ATOM     17  O   UNL     1     114.880 124.227 137.374  0.00  0.00    +0.000 OA
ATOM     18  C   UNL     1     113.217 125.885 136.594  0.00  0.00    +0.000 A 
ATOM     19  C   UNL     1     112.974 125.126 136.808  0.00  0.00    +0.000 A 
ATOM     20  C   UNL     1     114.014 126.091 136.640  0.00  0.00    +0.000 A 
ATOM     21  C   UNL     1     113.528 124.573 137.068  0.00  0.00    +0.000 A 
ATOM     22  C   UNL     1     114.569 125.539 136.900  0.00  0.00    +0.000 A 
ATOM     23  C   UNL     1     114.326 124.780 137.114  0.00  0.00    +0.000 A 
ENDBRANCH  16  18
ENDBRANCH  14  15
ENDBRANCH  12  14
ENDBRANCH   3  12
BRANCH   4  24
ATOM     24  O   UNL     1     108.799 129.305 136.655  0.00  0.00    +0.000 OA
BRANCH  24  26
ATOM     25  O   UNL     1     109.514 129.852 135.546  0.00  0.00    +0.000 OA
ATOM     26  C   UNL     1     108.811 129.762 135.969  0.00  0.00    +0.000 C 
ATOM     27  C   UNL     1     108.122 130.130 135.705  0.00  0.00    +0.000 C 
ENDBRANCH  24  26
ENDBRANCH   4  24
BRANCH   6  28
ATOM     28  O   UNL     1     109.450 130.233 137.854  0.00  0.00    +0.000 OA
BRANCH  28  33
ATOM     29  O   UNL     1     109.766 131.403 139.669  0.00  0.00    +0.000 OA
ATOM     30  O   UNL     1     108.847 129.205 138.995  0.00  0.00    +0.000 OA
ATOM     31  O   UNL     1     108.537 128.882 140.367  0.00  0.00    +0.000 OA
ATOM     32  O   UNL     1     109.169 130.818 142.460  0.00  0.00    +0.000 OA
ATOM     33  C   UNL     1     109.455 130.452 138.649  0.00  0.00    +0.000 A 
ATOM     34  C   UNL     1     109.761 131.184 138.874  0.00  0.00    +0.000 A 
ATOM     35  C   UNL     1     109.154 129.938 139.219  0.00  0.00    +0.000 A 
ATOM     36  C   UNL     1     109.158 130.157 140.015  0.00  0.00    +0.000 A 
ATOM     37  C   UNL     1     109.464 130.889 140.240  0.00  0.00    +0.000 A 
ATOM     38  C   UNL     1     108.842 129.613 140.601  0.00  0.00    +0.000 A 
ATOM     39  C   UNL     1     109.475 131.128 141.065  0.00  0.00    +0.000 A 
ATOM     40  C   UNL     1     108.844 129.834 141.431  0.00  0.00    +0.000 A 
ATOM     41  C   UNL     1     109.163 130.597 141.665  0.00  0.00    +0.000 A 
BRANCH  34  43
ATOM     42  O   UNL     1     110.967 133.240 136.591  0.00  0.00    +0.000 OA
ATOM     43  C   UNL     1     110.062 131.698 138.303  0.00  0.00    +0.000 A 
ATOM     44  C   UNL     1     110.866 131.684 138.119  0.00  0.00    +0.000 A 
ATOM     45  C   UNL     1     109.560 132.227 137.917  0.00  0.00    +0.000 A 
ATOM     46  C   UNL     1     111.168 132.198 137.548  0.00  0.00    +0.000 A 
ATOM     47  C   UNL     1     109.861 132.740 137.346  0.00  0.00    +0.000 A 
ATOM     48  C   UNL     1     110.665 132.726 137.162  0.00  0.00    +0.000 A 
ENDBRANCH  34  43
ENDBRANCH  28  33
ENDBRANCH   6  28
TORSDOF 11
ENDMDL
MODEL 3
REMARK VINA RESULT:      -8.7      2.010      5.731
REMARK  Name = 14630678
REMARK  11 active torsions:
REMARK  status: ('A' for Active; 'I' for Inactive)
REMARK    1  A    between atoms: O_2  and  C_15
REMARK    2  A    between atoms: O_2  and  C_22
REMARK    3  A    between atoms: O_3  and  C_16
REMARK    4  A    between atoms: O_3  and  C_23
REMARK    5  A    between atoms: O_4  and  C_17
REMARK    6  A    between atoms: O_4  and  C_24
REMARK    7  A    between atoms: O_5  and  C_19
REMARK    8  A    between atoms: O_5  and  C_21
REMARK    9  A    between atoms: C_23  and  C_30
REMARK   10  A    between atoms: C_25  and  C_32
REMARK   11  A    between atoms: C_35  and  C_40
REMARK                            x       y       z     vdW  Elec       q    Type
REMARK                         _______ _______ _______ _____ _____    ______ ____
ROOT
ATOM      1  O   UNL     1     110.776 129.438 137.456  0.00  0.00    +0.000 OA
ATOM      2  C   UNL     1     112.383 129.658 137.755  0.00  0.00    +0.000 C 
ATOM      3  C   UNL     1     111.851 129.599 138.383  0.00  0.00    +0.000 C 
ATOM      4  C   UNL     1     112.112 129.607 136.978  0.00  0.00    +0.000 C 
ATOM      5  C   UNL     1     111.048 129.489 138.233  0.00  0.00    +0.000 C 
ATOM      6  C   UNL     1     111.309 129.497 136.828  0.00  0.00    +0.000 C 
ATOM      7  C   UNL     1     110.515 129.430 138.861  0.00  0.00    +0.000 C 
ENDROOT
BRANCH   2   8
ATOM      8  O   UNL     1     113.187 129.768 137.905  0.00  0.00    +0.000 OA
BRANCH   8  10
ATOM      9  O   UNL     1     113.022 131.188 137.891  0.00  0.00    +0.000 OA
ATOM     10  C   UNL     1     113.476 130.523 138.071  0.00  0.00    +0.000 C 
ATOM     11  C   UNL     1     114.220 130.614 138.417  0.00  0.00    +0.000 C 
ENDBRANCH   8  10
ENDBRANCH   2   8
BRANCH   3  12
ATOM     12  O   UNL     1     112.122 129.650 139.160  0.00  0.00    +0.000 OA
BRANCH  12  14
ATOM     13  O   UNL     1     112.091 128.241 139.401  0.00  0.00    +0.000 OA
ATOM     14  C   UNL     1     112.014 129.016 139.677  0.00  0.00    +0.000 C 
BRANCH  14  15
ATOM     15  C   UNL     1     111.829 129.155 140.468  0.00  0.00    +0.000 C 
ATOM     16  C   UNL     1     112.347 128.911 141.062  0.00  0.00    +0.000 C 
BRANCH  16  18
ATOM     17  O   UNL     1     111.604 129.472 144.229  0.00  0.00    +0.000 OA
ATOM     18  C   UNL     1     112.161 129.051 141.854  0.00  0.00    +0.000 A 
ATOM     19  C   UNL     1     112.276 129.801 142.178  0.00  0.00    +0.000 A 
ATOM     20  C   UNL     1     111.861 128.442 142.322  0.00  0.00    +0.000 A 
ATOM     21  C   UNL     1     112.090 129.942 142.969  0.00  0.00    +0.000 A 
ATOM     22  C   UNL     1     111.675 128.581 143.113  0.00  0.00    +0.000 A 
ATOM     23  C   UNL     1     111.790 129.331 143.437  0.00  0.00    +0.000 A 
ENDBRANCH  16  18
ENDBRANCH  14  15
ENDBRANCH  12  14
ENDBRANCH   3  12
BRANCH   4  24
ATOM     24  O   UNL     1     112.644 129.666 136.350  0.00  0.00    +0.000 OA
BRANCH  24  26
ATOM     25  O   UNL     1     112.974 128.283 136.493  0.00  0.00    +0.000 OA
ATOM     26  C   UNL     1     113.043 128.995 136.082  0.00  0.00    +0.000 C 
ATOM     27  C   UNL     1     113.510 129.036 135.404  0.00  0.00    +0.000 C 
ENDBRANCH  24  26
ENDBRANCH   4  24
BRANCH   6  28
ATOM     28  O   UNL     1     111.037 129.446 136.051  0.00  0.00    +0.000 OA
BRANCH  28  33
ATOM     29  O   UNL     1     109.006 129.711 135.296  0.00  0.00    +0.000 OA
ATOM     30  O   UNL     1     110.828 131.066 136.281  0.00  0.00    +0.000 OA
ATOM     31  O   UNL     1     110.026 132.262 136.194  0.00  0.00    +0.000 OA
ATOM     32  O   UNL     1     107.328 132.083 135.089  0.00  0.00    +0.000 OA
ATOM     33  C   UNL     1     110.325 129.805 135.838  0.00  0.00    +0.000 A 
ATOM     34  C   UNL     1     109.718 129.352 135.509  0.00  0.00    +0.000 A 
ATOM     35  C   UNL     1     110.221 130.614 135.953  0.00  0.00    +0.000 A 
ATOM     36  C   UNL     1     109.509 130.973 135.740  0.00  0.00    +0.000 A 
ATOM     37  C   UNL     1     108.901 130.522 135.412  0.00  0.00    +0.000 A 
ATOM     38  C   UNL     1     109.412 131.818 135.865  0.00  0.00    +0.000 A 
ATOM     39  C   UNL     1     108.155 130.883 135.186  0.00  0.00    +0.000 A 
ATOM     40  C   UNL     1     108.674 132.198 135.645  0.00  0.00    +0.000 A 
ATOM     41  C   UNL     1     108.040 131.727 135.303  0.00  0.00    +0.000 A 
BRANCH  34  43
ATOM     42  O   UNL     1     110.133 126.111 135.049  0.00  0.00    +0.000 OA
ATOM     43  C   UNL     1     109.822 128.543 135.394  0.00  0.00    +0.000 A 
ATOM     44  C   UNL     1     109.524 128.006 135.946  0.00  0.00    +0.000 A 
ATOM     45  C   UNL     1     110.223 128.268 134.728  0.00  0.00    +0.000 A 
ATOM     46  C   UNL     1     109.628 127.195 135.831  0.00  0.00    +0.000 A 
ATOM     47  C   UNL     1     110.327 127.459 134.612  0.00  0.00    +0.000 A 
ATOM     48  C   UNL     1     110.029 126.922 135.164  0.00  0.00    +0.000 A 
ENDBRANCH  34  43
ENDBRANCH  28  33
ENDBRANCH   6  28
TORSDOF 11
ENDMDL
MODEL 4
REMARK VINA RESULT:      -8.7      1.753      5.787
REMARK  Name = 14630678
REMARK  11 active torsions:
REMARK  status: ('A' for Active; 'I' for Inactive)
REMARK    1  A    between atoms: O_2  and  C_15
REMARK    2  A    between atoms: O_2  and  C_22
REMARK    3  A    between atoms: O_3  and  C_16
REMARK    4  A    between atoms: O_3  and  C_23
REMARK    5  A    between atoms: O_4  and  C_17
REMARK    6  A    between atoms: O_4  and  C_24
REMARK    7  A    between atoms: O_5  and  C_19
REMARK    8  A    between atoms: O_5  and  C_21
REMARK    9  A    between atoms: C_23  and  C_30
REMARK   10  A    between atoms: C_25  and  C_32
REMARK   11  A    between atoms: C_35  and  C_40
REMARK                            x       y       z     vdW  Elec       q    Type
REMARK                         _______ _______ _______ _____ _____    ______ ____
ROOT
ATOM      1  O   UNL     1     110.593 129.514 137.168  0.00  0.00    +0.000 OA
ATOM      2  C   UNL     1     112.157 129.311 136.683  0.00  0.00    +0.000 C 
ATOM      3  C   UNL     1     111.664 128.656 136.768  0.00  0.00    +0.000 C 
ATOM      4  C   UNL     1     111.870 130.068 136.840  0.00  0.00    +0.000 C 
ATOM      5  C   UNL     1     110.882 128.758 137.010  0.00  0.00    +0.000 C 
ATOM      6  C   UNL     1     111.087 130.170 137.082  0.00  0.00    +0.000 C 
ATOM      7  C   UNL     1     110.388 128.102 137.096  0.00  0.00    +0.000 C 
ENDROOT
BRANCH   2   8
ATOM      8  O   UNL     1     112.939 129.210 136.441  0.00  0.00    +0.000 OA
BRANCH   8  10
ATOM      9  O   UNL     1     112.549 129.312 135.070  0.00  0.00    +0.000 OA
ATOM     10  C   UNL     1     113.116 129.123 135.639  0.00  0.00    +0.000 C 
ATOM     11  C   UNL     1     113.858 128.847 135.407  0.00  0.00    +0.000 C 
ENDBRANCH   8  10
ENDBRANCH   2   8
BRANCH   3  12
ATOM     12  O   UNL     1     111.952 127.899 136.611  0.00  0.00    +0.000 OA
BRANCH  12  14
ATOM     13  O   UNL     1     112.160 127.596 137.993  0.00  0.00    +0.000 OA
ATOM     14  C   UNL     1     112.010 127.346 137.221  0.00  0.00    +0.000 C 
BRANCH  14  15
ATOM     15  C   UNL     1     111.918 126.542 137.059  0.00  0.00    +0.000 C 
ATOM     16  C   UNL     1     112.444 125.993 137.381  0.00  0.00    +0.000 C 
BRANCH  16  18
ATOM     17  O   UNL     1     112.075 122.779 136.730  0.00  0.00    +0.000 OA
ATOM     18  C   UNL     1     112.351 125.190 137.219  0.00  0.00    +0.000 A 
ATOM     19  C   UNL     1     112.858 124.816 136.686  0.00  0.00    +0.000 A 
ATOM     20  C   UNL     1     111.752 124.760 137.588  0.00  0.00    +0.000 A 
ATOM     21  C   UNL     1     112.766 124.013 136.522  0.00  0.00    +0.000 A 
ATOM     22  C   UNL     1     111.660 123.956 137.426  0.00  0.00    +0.000 A 
ATOM     23  C   UNL     1     112.167 123.583 136.893  0.00  0.00    +0.000 A 
ENDBRANCH  16  18
ENDBRANCH  14  15
ENDBRANCH  12  14
ENDBRANCH   3  12
BRANCH   4  24
ATOM     24  O   UNL     1     112.363 130.723 136.755  0.00  0.00    +0.000 OA
BRANCH  24  26
ATOM     25  O   UNL     1     112.890 130.498 138.064  0.00  0.00    +0.000 OA
ATOM     26  C   UNL     1     112.882 130.931 137.362  0.00  0.00    +0.000 C 
ATOM     27  C   UNL     1     113.394 131.570 137.267  0.00  0.00    +0.000 C 
ENDBRANCH  24  26
ENDBRANCH   4  24
BRANCH   6  28
ATOM     28  O   UNL     1     110.799 130.926 137.240  0.00  0.00    +0.000 OA
BRANCH  28  33
ATOM     29  O   UNL     1     108.717 131.569 137.378  0.00  0.00    +0.000 OA
ATOM     30  O   UNL     1     110.344 130.852 135.655  0.00  0.00    +0.000 OA
ATOM     31  O   UNL     1     109.356 131.011 134.616  0.00  0.00    +0.000 OA
ATOM     32  O   UNL     1     106.671 131.911 135.333  0.00  0.00    +0.000 OA
ATOM     33  C   UNL     1     110.029 131.128 137.022  0.00  0.00    +0.000 A 
ATOM     34  C   UNL     1     109.487 131.367 137.596  0.00  0.00    +0.000 A 
ATOM     35  C   UNL     1     109.802 131.091 136.230  0.00  0.00    +0.000 A 
ATOM     36  C   UNL     1     109.032 131.293 136.012  0.00  0.00    +0.000 A 
ATOM     37  C   UNL     1     108.490 131.532 136.586  0.00  0.00    +0.000 A 
ATOM     38  C   UNL     1     108.807 131.251 135.183  0.00  0.00    +0.000 A 
ATOM     39  C   UNL     1     107.685 131.745 136.372  0.00  0.00    +0.000 A 
ATOM     40  C   UNL     1     108.007 131.459 134.950  0.00  0.00    +0.000 A 
ATOM     41  C   UNL     1     107.442 131.708 135.548  0.00  0.00    +0.000 A 
BRANCH  34  43
ATOM     42  O   UNL     1     110.397 131.516 140.765  0.00  0.00    +0.000 OA
ATOM     43  C   UNL     1     109.714 131.404 138.388  0.00  0.00    +0.000 A 
ATOM     44  C   UNL     1     110.130 132.059 138.668  0.00  0.00    +0.000 A 
ATOM     45  C   UNL     1     109.526 130.786 138.901  0.00  0.00    +0.000 A 
ATOM     46  C   UNL     1     110.358 132.097 139.460  0.00  0.00    +0.000 A 
ATOM     47  C   UNL     1     109.754 130.823 139.693  0.00  0.00    +0.000 A 
ATOM     48  C   UNL     1     110.169 131.478 139.972  0.00  0.00    +0.000 A 
ENDBRANCH  34  43
ENDBRANCH  28  33
ENDBRANCH   6  28
TORSDOF 11
ENDMDL
MODEL 5
REMARK VINA RESULT:      -8.7      1.275      3.228
REMARK  Name = 14630678
REMARK  11 active torsions:
REMARK  status: ('A' for Active; 'I' for Inactive)
REMARK    1  A    between atoms: O_2  and  C_15
REMARK    2  A    between atoms: O_2  and  C_22
REMARK    3  A    between atoms: O_3  and  C_16
REMARK    4  A    between atoms: O_3  and  C_23
REMARK    5  A    between atoms: O_4  and  C_17
REMARK    6  A    between atoms: O_4  and  C_24
REMARK    7  A    between atoms: O_5  and  C_19
REMARK    8  A    between atoms: O_5  and  C_21
REMARK    9  A    between atoms: C_23  and  C_30
REMARK   10  A    between atoms: C_25  and  C_32
REMARK   11  A    between atoms: C_35  and  C_40
REMARK                            x       y       z     vdW  Elec       q    Type
REMARK                         _______ _______ _______ _____ _____    ______ ____
ROOT
ATOM      1  O   UNL     1     111.702 129.131 138.592  0.00  0.00    +0.000 OA
ATOM      2  C   UNL     1     111.754 128.392 137.118  0.00  0.00    +0.000 C 
ATOM      3  C   UNL     1     111.264 129.045 137.234  0.00  0.00    +0.000 C 
ATOM      4  C   UNL     1     112.218 128.108 137.738  0.00  0.00    +0.000 C 
ATOM      5  C   UNL     1     111.238 129.415 137.971  0.00  0.00    +0.000 C 
ATOM      6  C   UNL     1     112.192 128.478 138.475  0.00  0.00    +0.000 C 
ATOM      7  C   UNL     1     110.747 130.068 138.088  0.00  0.00    +0.000 C 
ENDROOT
BRANCH   2   8
ATOM      8  O   UNL     1     111.780 128.023 136.380  0.00  0.00    +0.000 OA
BRANCH   8  10
ATOM      9  O   UNL     1     112.930 128.747 135.941  0.00  0.00    +0.000 OA
ATOM     10  C   UNL     1     112.228 128.351 135.769  0.00  0.00    +0.000 C 
ATOM     11  C   UNL     1     111.973 128.282 134.988  0.00  0.00    +0.000 C 
ENDBRANCH   8  10
ENDBRANCH   2   8
BRANCH   3  12
ATOM     12  O   UNL     1     110.799 129.329 136.614  0.00  0.00    +0.000 OA
BRANCH  12  14
ATOM     13  O   UNL     1     109.553 128.930 137.188  0.00  0.00    +0.000 OA
ATOM     14  C   UNL     1     109.992 129.456 136.729  0.00  0.00    +0.000 C 
BRANCH  14  15
ATOM     15  C   UNL     1     109.624 130.109 136.385  0.00  0.00    +0.000 C 
ATOM     16  C   UNL     1     108.896 130.021 136.007  0.00  0.00    +0.000 C 
BRANCH  16  18
ATOM     17  O   UNL     1     107.429 132.637 134.630  0.00  0.00    +0.000 OA
ATOM     18  C   UNL     1     108.529 130.676 135.663  0.00  0.00    +0.000 A 
ATOM     19  C   UNL     1     108.856 131.026 134.991  0.00  0.00    +0.000 A 
ATOM     20  C   UNL     1     107.836 130.979 135.990  0.00  0.00    +0.000 A 
ATOM     21  C   UNL     1     108.490 131.680 134.647  0.00  0.00    +0.000 A 
ATOM     22  C   UNL     1     107.468 131.633 135.646  0.00  0.00    +0.000 A 
ATOM     23  C   UNL     1     107.795 131.984 134.974  0.00  0.00    +0.000 A 
ENDBRANCH  16  18
ENDBRANCH  14  15
ENDBRANCH  12  14
ENDBRANCH   3  12
BRANCH   4  24
ATOM     24  O   UNL     1     112.708 127.455 137.621  0.00  0.00    +0.000 OA
BRANCH  24  26
ATOM     25  O   UNL     1     111.599 126.581 137.834  0.00  0.00    +0.000 OA
ATOM     26  C   UNL     1     112.405 126.692 137.697  0.00  0.00    +0.000 C 
ATOM     27  C   UNL     1     112.906 126.040 137.636  0.00  0.00    +0.000 C 
ENDBRANCH  24  26
ENDBRANCH   4  24
BRANCH   6  28
ATOM     28  O   UNL     1     112.656 128.195 139.095  0.00  0.00    +0.000 OA
BRANCH  28  33
ATOM     29  O   UNL     1     113.224 129.177 140.959  0.00  0.00    +0.000 OA
ATOM     30  O   UNL     1     113.633 129.397 138.528  0.00  0.00    +0.000 OA
ATOM     31  O   UNL     1     114.486 130.540 138.745  0.00  0.00    +0.000 OA
ATOM     32  O   UNL     1     114.934 131.478 141.475  0.00  0.00    +0.000 OA
ATOM     33  C   UNL     1     113.008 128.723 139.622  0.00  0.00    +0.000 A 
ATOM     34  C   UNL     1     112.872 128.649 140.433  0.00  0.00    +0.000 A 
ATOM     35  C   UNL     1     113.496 129.324 139.338  0.00  0.00    +0.000 A 
ATOM     36  C   UNL     1     113.848 129.852 139.865  0.00  0.00    +0.000 A 
ATOM     37  C   UNL     1     113.713 129.779 140.676  0.00  0.00    +0.000 A 
ATOM     38  C   UNL     1     114.355 130.475 139.558  0.00  0.00    +0.000 A 
ATOM     39  C   UNL     1     114.074 130.323 141.235  0.00  0.00    +0.000 A 
ATOM     40  C   UNL     1     114.725 131.028 140.101  0.00  0.00    +0.000 A 
ATOM     41  C   UNL     1     114.583 130.952 140.946  0.00  0.00    +0.000 A 
BRANCH  34  43
ATOM     42  O   UNL     1     110.919 126.243 141.568  0.00  0.00    +0.000 OA
ATOM     43  C   UNL     1     112.384 128.048 140.716  0.00  0.00    +0.000 A 
ATOM     44  C   UNL     1     112.692 127.294 140.846  0.00  0.00    +0.000 A 
ATOM     45  C   UNL     1     111.588 128.200 140.870  0.00  0.00    +0.000 A 
ATOM     46  C   UNL     1     112.204 126.692 141.130  0.00  0.00    +0.000 A 
ATOM     47  C   UNL     1     111.100 127.599 141.153  0.00  0.00    +0.000 A 
ATOM     48  C   UNL     1     111.408 126.845 141.284  0.00  0.00    +0.000 A 
ENDBRANCH  34  43
ENDBRANCH  28  33
ENDBRANCH   6  28
TORSDOF 11
ENDMDL
MODEL 6
REMARK VINA RESULT:      -8.6      1.700      6.190
REMARK  Name = 14630678
REMARK  11 active torsions:
REMARK  status: ('A' for Active; 'I' for Inactive)
REMARK    1  A    between atoms: O_2  and  C_15
REMARK    2  A    between atoms: O_2  and  C_22
REMARK    3  A    between atoms: O_3  and  C_16
REMARK    4  A    between atoms: O_3  and  C_23
REMARK    5  A    between atoms: O_4  and  C_17
REMARK    6  A    between atoms: O_4  and  C_24
REMARK    7  A    between atoms: O_5  and  C_19
REMARK    8  A    between atoms: O_5  and  C_21
REMARK    9  A    between atoms: C_23  and  C_30
REMARK   10  A    between atoms: C_25  and  C_32
REMARK   11  A    between atoms: C_35  and  C_40
REMARK                            x       y       z     vdW  Elec       q    Type
REMARK                         _______ _______ _______ _____ _____    ______ ____
ROOT
ATOM      1  O   UNL     1     110.635 128.608 136.356  0.00  0.00    +0.000 OA
ATOM      2  C   UNL     1     110.467 127.438 137.506  0.00  0.00    +0.000 C 
ATOM      3  C   UNL     1     110.550 127.227 136.713  0.00  0.00    +0.000 C 
ATOM      4  C   UNL     1     110.468 128.233 137.725  0.00  0.00    +0.000 C 
ATOM      5  C   UNL     1     110.634 127.813 136.138  0.00  0.00    +0.000 C 
ATOM      6  C   UNL     1     110.552 128.819 137.150  0.00  0.00    +0.000 C 
ATOM      7  C   UNL     1     110.717 127.603 135.344  0.00  0.00    +0.000 C 
ENDROOT
BRANCH   2   8
ATOM      8  O   UNL     1     110.382 126.852 138.081  0.00  0.00    +0.000 OA
BRANCH   8  10
ATOM      9  O   UNL     1     108.975 126.815 137.838  0.00  0.00    +0.000 OA
ATOM     10  C   UNL     1     109.638 126.531 138.238  0.00  0.00    +0.000 C 
ATOM     11  C   UNL     1     109.558 125.926 138.793  0.00  0.00    +0.000 C 
ENDBRANCH   8  10
ENDBRANCH   2   8
BRANCH   3  12
ATOM     12  O   UNL     1     110.549 126.432 136.494  0.00  0.00    +0.000 OA
BRANCH  12  14
ATOM     13  O   UNL     1     111.081 126.020 135.233  0.00  0.00    +0.000 OA
ATOM     14  C   UNL     1     111.171 126.127 136.047  0.00  0.00    +0.000 C 
BRANCH  14  15
ATOM     15  C   UNL     1     111.884 125.929 136.411  0.00  0.00    +0.000 C 
ATOM     16  C   UNL     1     112.315 125.276 136.149  0.00  0.00    +0.000 C 
BRANCH  16  18
ATOM     17  O   UNL     1     115.168 124.491 137.610  0.00  0.00    +0.000 OA
ATOM     18  C   UNL     1     113.028 125.079 136.514  0.00  0.00    +0.000 A 
ATOM     19  C   UNL     1     113.665 125.603 136.485  0.00  0.00    +0.000 A 
ATOM     20  C   UNL     1     113.105 124.360 136.909  0.00  0.00    +0.000 A 
ATOM     21  C   UNL     1     114.378 125.407 136.850  0.00  0.00    +0.000 A 
ATOM     22  C   UNL     1     113.818 124.163 137.275  0.00  0.00    +0.000 A 
ATOM     23  C   UNL     1     114.454 124.687 137.245  0.00  0.00    +0.000 A 
ENDBRANCH  16  18
ENDBRANCH  14  15
ENDBRANCH  12  14
ENDBRANCH   3  12
BRANCH   4  24
ATOM     24  O   UNL     1     110.385 128.443 138.518  0.00  0.00    +0.000 OA
BRANCH  24  26
ATOM     25  O   UNL     1     111.771 128.181 138.743  0.00  0.00    +0.000 OA
ATOM     26  C   UNL     1     111.047 128.473 139.009  0.00  0.00    +0.000 C 
ATOM     27  C   UNL     1     110.985 128.793 139.766  0.00  0.00    +0.000 C 
ENDBRANCH  24  26
ENDBRANCH   4  24
BRANCH   6  28
ATOM     28  O   UNL     1     110.553 129.614 137.368  0.00  0.00    +0.000 OA
BRANCH  28  33
ATOM     29  O   UNL     1     110.303 131.364 136.087  0.00  0.00    +0.000 OA
ATOM     30  O   UNL     1     108.953 129.493 136.984  0.00  0.00    +0.000 OA
ATOM     31  O   UNL     1     107.776 129.979 136.305  0.00  0.00    +0.000 OA
ATOM     32  O   UNL     1     107.969 132.404 134.688  0.00  0.00    +0.000 OA
ATOM     33  C   UNL     1     110.203 130.177 136.877  0.00  0.00    +0.000 A 
ATOM     34  C   UNL     1     110.654 130.801 136.578  0.00  0.00    +0.000 A 
ATOM     35  C   UNL     1     109.403 130.117 136.685  0.00  0.00    +0.000 A 
ATOM     36  C   UNL     1     109.053 130.680 136.194  0.00  0.00    +0.000 A 
ATOM     37  C   UNL     1     109.503 131.303 135.895  0.00  0.00    +0.000 A 
ATOM     38  C   UNL     1     108.218 130.606 136.002  0.00  0.00    +0.000 A 
ATOM     39  C   UNL     1     109.150 131.896 135.383  0.00  0.00    +0.000 A 
ATOM     40  C   UNL     1     107.848 131.189 135.491  0.00  0.00    +0.000 A 
ATOM     41  C   UNL     1     108.317 131.839 135.179  0.00  0.00    +0.000 A 
BRANCH  34  43
ATOM     42  O   UNL     1     113.854 131.043 137.345  0.00  0.00    +0.000 OA
ATOM     43  C   UNL     1     111.453 130.861 136.769  0.00  0.00    +0.000 A 
ATOM     44  C   UNL     1     111.682 131.232 137.470  0.00  0.00    +0.000 A 
ATOM     45  C   UNL     1     112.024 130.551 136.261  0.00  0.00    +0.000 A 
ATOM     46  C   UNL     1     112.483 131.293 137.662  0.00  0.00    +0.000 A 
ATOM     47  C   UNL     1     112.824 130.612 136.453  0.00  0.00    +0.000 A 
ATOM     48  C   UNL     1     113.053 130.982 137.153  0.00  0.00    +0.000 A 
ENDBRANCH  34  43
ENDBRANCH  28  33
ENDBRANCH   6  28
TORSDOF 11
ENDMDL
MODEL 7
REMARK VINA RESULT:      -8.6      1.880      4.032
REMARK  Name = 14630678
REMARK  11 active torsions:
REMARK  status: ('A' for Active; 'I' for Inactive)
REMARK    1  A    between atoms: O_2  and  C_15
REMARK    2  A    between atoms: O_2  and  C_22
REMARK    3  A    between atoms: O_3  and  C_16
REMARK    4  A    between atoms: O_3  and  C_23
REMARK    5  A    between atoms: O_4  and  C_17
REMARK    6  A    between atoms: O_4  and  C_24
REMARK    7  A    between atoms: O_5  and  C_19
REMARK    8  A    between atoms: O_5  and  C_21
REMARK    9  A    between atoms: C_23  and  C_30
REMARK   10  A    between atoms: C_25  and  C_32
REMARK   11  A    between atoms: C_35  and  C_40
REMARK                            x       y       z     vdW  Elec       q    Type
REMARK                         _______ _______ _______ _____ _____    ______ ____
ROOT
ATOM      1  O   UNL     1     111.949 127.308 137.238  0.00  0.00    +0.000 OA
ATOM      2  C   UNL     1     110.568 126.742 136.534  0.00  0.00    +0.000 C 
ATOM      3  C   UNL     1     110.713 127.553 136.562  0.00  0.00    +0.000 C 
ATOM      4  C   UNL     1     111.113 126.213 136.857  0.00  0.00    +0.000 C 
ATOM      5  C   UNL     1     111.403 127.836 136.915  0.00  0.00    +0.000 C 
ATOM      6  C   UNL     1     111.803 126.496 137.209  0.00  0.00    +0.000 C 
ATOM      7  C   UNL     1     111.549 128.648 136.943  0.00  0.00    +0.000 C 
ENDROOT
BRANCH   2   8
ATOM      8  O   UNL     1     109.878 126.459 136.181  0.00  0.00    +0.000 OA
BRANCH   8  10
ATOM      9  O   UNL     1     109.157 126.512 137.414  0.00  0.00    +0.000 OA
ATOM     10  C   UNL     1     109.161 126.495 136.589  0.00  0.00    +0.000 C 
ATOM     11  C   UNL     1     108.449 126.516 136.172  0.00  0.00    +0.000 C 
ENDBRANCH   8  10
ENDBRANCH   2   8
BRANCH   3  12
ATOM     12  O   UNL     1     110.169 128.082 136.239  0.00  0.00    +0.000 OA
BRANCH  12  14
ATOM     13  O   UNL     1     110.986 128.431 135.119  0.00  0.00    +0.000 OA
ATOM     14  C   UNL     1     110.415 128.635 135.679  0.00  0.00    +0.000 C 
BRANCH  14  15
ATOM     15  C   UNL     1     110.091 129.394 135.678  0.00  0.00    +0.000 C 
ATOM     16  C   UNL     1     109.573 129.621 135.077  0.00  0.00    +0.000 C 
BRANCH  16  18
ATOM     17  O   UNL     1     108.277 132.656 135.080  0.00  0.00    +0.000 OA
ATOM     18  C   UNL     1     109.250 130.380 135.077  0.00  0.00    +0.000 A 
ATOM     19  C   UNL     1     108.590 130.547 135.543  0.00  0.00    +0.000 A 
ATOM     20  C   UNL     1     109.585 130.972 134.612  0.00  0.00    +0.000 A 
ATOM     21  C   UNL     1     108.265 131.305 135.545  0.00  0.00    +0.000 A 
ATOM     22  C   UNL     1     109.262 131.732 134.613  0.00  0.00    +0.000 A 
ATOM     23  C   UNL     1     108.602 131.898 135.079  0.00  0.00    +0.000 A 
ENDBRANCH  16  18
ENDBRANCH  14  15
ENDBRANCH  12  14
ENDBRANCH   3  12
BRANCH   4  24
ATOM     24  O   UNL     1     110.967 125.402 136.828  0.00  0.00    +0.000 OA
BRANCH  24  26
ATOM     25  O   UNL     1     111.377 125.352 135.460  0.00  0.00    +0.000 OA
ATOM     26  C   UNL     1     111.191 124.965 136.164  0.00  0.00    +0.000 C 
ATOM     27  C   UNL     1     111.227 124.142 136.204  0.00  0.00    +0.000 C 
ENDBRANCH  24  26
ENDBRANCH   4  24
BRANCH   6  28
ATOM     28  O   UNL     1     112.348 125.968 137.533  0.00  0.00    +0.000 OA
BRANCH  28  33
ATOM     29  O   UNL     1     113.994 126.352 138.913  0.00  0.00    +0.000 OA
ATOM     30  O   UNL     1     111.519 126.395 138.894  0.00  0.00    +0.000 OA
ATOM     31  O   UNL     1     111.487 126.813 140.274  0.00  0.00    +0.000 OA
ATOM     32  O   UNL     1     114.006 127.195 141.702  0.00  0.00    +0.000 OA
ATOM     33  C   UNL     1     112.758 126.167 138.220  0.00  0.00    +0.000 A 
ATOM     34  C   UNL     1     113.583 126.153 138.226  0.00  0.00    +0.000 A 
ATOM     35  C   UNL     1     112.344 126.381 138.900  0.00  0.00    +0.000 A 
ATOM     36  C   UNL     1     112.755 126.580 139.587  0.00  0.00    +0.000 A 
ATOM     37  C   UNL     1     113.579 126.566 139.594  0.00  0.00    +0.000 A 
ATOM     38  C   UNL     1     112.312 126.802 140.290  0.00  0.00    +0.000 A 
ATOM     39  C   UNL     1     114.019 126.772 140.303  0.00  0.00    +0.000 A 
ATOM     40  C   UNL     1     112.733 127.010 141.009  0.00  0.00    +0.000 A 
ATOM     41  C   UNL     1     113.593 126.996 141.016  0.00  0.00    +0.000 A 
BRANCH  34  43
ATOM     42  O   UNL     1     115.242 125.297 135.504  0.00  0.00    +0.000 OA
ATOM     43  C   UNL     1     113.998 125.939 137.546  0.00  0.00    +0.000 A 
ATOM     44  C   UNL     1     114.177 125.147 137.404  0.00  0.00    +0.000 A 
ATOM     45  C   UNL     1     114.233 126.518 137.007  0.00  0.00    +0.000 A 
ATOM     46  C   UNL     1     114.592 124.932 136.723  0.00  0.00    +0.000 A 
ATOM     47  C   UNL     1     114.647 126.304 136.327  0.00  0.00    +0.000 A 
ATOM     48  C   UNL     1     114.827 125.512 136.185  0.00  0.00    +0.000 A 
ENDBRANCH  34  43
ENDBRANCH  28  33
ENDBRANCH   6  28
TORSDOF 11
ENDMDL
MODEL 8
REMARK VINA RESULT:      -8.6      2.826      5.994
REMARK  Name = 14630678
REMARK  11 active torsions:
REMARK  status: ('A' for Active; 'I' for Inactive)
REMARK    1  A    between atoms: O_2  and  C_15
REMARK    2  A    between atoms: O_2  and  C_22
REMARK    3  A    between atoms: O_3  and  C_16
REMARK    4  A    between atoms: O_3  and  C_23
REMARK    5  A    between atoms: O_4  and  C_17
REMARK    6  A    between atoms: O_4  and  C_24
REMARK    7  A    between atoms: O_5  and  C_19
REMARK    8  A    between atoms: O_5  and  C_21
REMARK    9  A    between atoms: C_23  and  C_30
REMARK   10  A    between atoms: C_25  and  C_32
REMARK   11  A    between atoms: C_35  and  C_40
REMARK                            x       y       z     vdW  Elec       q    Type
REMARK                         _______ _______ _______ _____ _____    ______ ____
ROOT
ATOM      1  O   UNL     1     111.303 129.552 140.584  0.00  0.00    +0.000 OA
ATOM      2  C   UNL     1     111.770 130.047 139.081  0.00  0.00    +0.000 C 
ATOM      3  C   UNL     1     112.047 129.333 139.384  0.00  0.00    +0.000 C 
ATOM      4  C   UNL     1     111.258 130.516 139.529  0.00  0.00    +0.000 C 
ATOM      5  C   UNL     1     111.814 129.085 140.136  0.00  0.00    +0.000 C 
ATOM      6  C   UNL     1     111.025 130.268 140.281  0.00  0.00    +0.000 C 
ATOM      7  C   UNL     1     112.092 128.369 140.439  0.00  0.00    +0.000 C 
ENDROOT
BRANCH   2   8
ATOM      8  O   UNL     1     112.003 130.295 138.329  0.00  0.00    +0.000 OA
BRANCH   8  10
ATOM      9  O   UNL     1     113.159 130.927 138.883  0.00  0.00    +0.000 OA
ATOM     10  C   UNL     1     112.730 130.672 138.226  0.00  0.00    +0.000 C 
ATOM     11  C   UNL     1     113.027 130.794 137.466  0.00  0.00    +0.000 C 
ENDBRANCH   8  10
ENDBRANCH   2   8
BRANCH   3  12
ATOM     12  O   UNL     1     112.558 128.865 138.936  0.00  0.00    +0.000 OA
BRANCH  12  14
ATOM     13  O   UNL     1     111.513 127.939 138.629  0.00  0.00    +0.000 OA
ATOM     14  C   UNL     1     112.317 128.117 138.683  0.00  0.00    +0.000 C 
BRANCH  14  15
ATOM     15  C   UNL     1     112.879 127.548 138.483  0.00  0.00    +0.000 C 
ATOM     16  C   UNL     1     112.764 127.067 137.823  0.00  0.00    +0.000 C 
BRANCH  16  18
ATOM     17  O   UNL     1     115.016 124.790 137.026  0.00  0.00    +0.000 OA
ATOM     18  C   UNL     1     113.327 126.498 137.624  0.00  0.00    +0.000 A 
ATOM     19  C   UNL     1     113.642 126.478 136.862  0.00  0.00    +0.000 A 
ATOM     20  C   UNL     1     113.574 125.948 138.186  0.00  0.00    +0.000 A 
ATOM     21  C   UNL     1     114.205 125.910 136.662  0.00  0.00    +0.000 A 
ATOM     22  C   UNL     1     114.138 125.378 137.988  0.00  0.00    +0.000 A 
ATOM     23  C   UNL     1     114.453 125.359 137.225  0.00  0.00    +0.000 A 
ENDBRANCH  16  18
ENDBRANCH  14  15
ENDBRANCH  12  14
ENDBRANCH   3  12
BRANCH   4  24
ATOM     24  O   UNL     1     110.981 131.230 139.226  0.00  0.00    +0.000 OA
BRANCH  24  26
ATOM     25  O   UNL     1     109.963 130.536 138.502  0.00  0.00    +0.000 OA
ATOM     26  C   UNL     1     110.306 131.244 138.751  0.00  0.00    +0.000 C 
ATOM     27  C   UNL     1     109.975 131.964 138.525  0.00  0.00    +0.000 C 
ENDBRANCH  24  26
ENDBRANCH   4  24
BRANCH   6  28
ATOM     28  O   UNL     1     110.514 130.735 140.729  0.00  0.00    +0.000 OA
BRANCH  28  33
ATOM     29  O   UNL     1     110.151 130.659 142.880  0.00  0.00    +0.000 OA
ATOM     30  O   UNL     1     111.937 131.339 141.307  0.00  0.00    +0.000 OA
ATOM     31  O   UNL     1     112.793 131.728 142.401  0.00  0.00    +0.000 OA
ATOM     32  O   UNL     1     111.824 131.422 145.140  0.00  0.00    +0.000 OA
ATOM     33  C   UNL     1     110.631 130.810 141.543  0.00  0.00    +0.000 A 
ATOM     34  C   UNL     1     110.035 130.583 142.067  0.00  0.00    +0.000 A 
ATOM     35  C   UNL     1     111.342 131.112 141.831  0.00  0.00    +0.000 A 
ATOM     36  C   UNL     1     111.458 131.187 142.644  0.00  0.00    +0.000 A 
ATOM     37  C   UNL     1     110.863 130.961 143.169  0.00  0.00    +0.000 A 
ATOM     38  C   UNL     1     112.203 131.504 142.933  0.00  0.00    +0.000 A 
ATOM     39  C   UNL     1     110.971 131.034 144.018  0.00  0.00    +0.000 A 
ATOM     40  C   UNL     1     112.331 131.585 143.779  0.00  0.00    +0.000 A 
ATOM     41  C   UNL     1     111.710 131.348 144.326  0.00  0.00    +0.000 A 
BRANCH  34  43
ATOM     42  O   UNL     1     107.189 129.375 140.912  0.00  0.00    +0.000 OA
ATOM     43  C   UNL     1     109.324 130.281 141.778  0.00  0.00    +0.000 A 
ATOM     44  C   UNL     1     108.731 130.795 141.525  0.00  0.00    +0.000 A 
ATOM     45  C   UNL     1     109.206 129.465 141.742  0.00  0.00    +0.000 A 
ATOM     46  C   UNL     1     108.018 130.493 141.236  0.00  0.00    +0.000 A 
ATOM     47  C   UNL     1     108.495 129.164 141.454  0.00  0.00    +0.000 A 
ATOM     48  C   UNL     1     107.901 129.677 141.201  0.00  0.00    +0.000 A 
ENDBRANCH  34  43
ENDBRANCH  28  33
ENDBRANCH   6  28
TORSDOF 11
ENDMDL
MODEL 9
REMARK VINA RESULT:      -8.6      3.601      6.282
REMARK  Name = 14630678
REMARK  11 active torsions:
REMARK  status: ('A' for Active; 'I' for Inactive)
REMARK    1  A    between atoms: O_2  and  C_15
REMARK    2  A    between atoms: O_2  and  C_22
REMARK    3  A    between atoms: O_3  and  C_16
REMARK    4  A    between atoms: O_3  and  C_23
REMARK    5  A    between atoms: O_4  and  C_17
REMARK    6  A    between atoms: O_4  and  C_24
REMARK    7  A    between atoms: O_5  and  C_19
REMARK    8  A    between atoms: O_5  and  C_21
REMARK    9  A    between atoms: C_23  and  C_30
REMARK   10  A    between atoms: C_25  and  C_32
REMARK   11  A    between atoms: C_35  and  C_40
REMARK                            x       y       z     vdW  Elec       q    Type
REMARK                         _______ _______ _______ _____ _____    ______ ____
ROOT
ATOM      1  O   UNL     1     112.147 129.871 141.423  0.00  0.00    +0.000 OA
ATOM      2  C   UNL     1     110.792 129.395 142.235  0.00  0.00    +0.000 C 
ATOM      3  C   UNL     1     111.218 130.051 142.494  0.00  0.00    +0.000 C 
ATOM      4  C   UNL     1     111.043 128.975 141.570  0.00  0.00    +0.000 C 
ATOM      5  C   UNL     1     111.895 130.289 142.087  0.00  0.00    +0.000 C 
ATOM      6  C   UNL     1     111.720 129.213 141.164  0.00  0.00    +0.000 C 
ATOM      7  C   UNL     1     112.322 130.947 142.346  0.00  0.00    +0.000 C 
ENDROOT
BRANCH   2   8
ATOM      8  O   UNL     1     110.115 129.156 142.641  0.00  0.00    +0.000 OA
BRANCH   8  10
ATOM      9  O   UNL     1     109.312 130.022 141.836  0.00  0.00    +0.000 OA
ATOM     10  C   UNL     1     109.391 129.523 142.488  0.00  0.00    +0.000 C 
ATOM     11  C   UNL     1     108.748 129.392 142.988  0.00  0.00    +0.000 C 
ENDBRANCH   8  10
ENDBRANCH   2   8
BRANCH   3  12
ATOM     12  O   UNL     1     110.967 130.471 143.158  0.00  0.00    +0.000 OA
BRANCH  12  14
ATOM     13  O   UNL     1     111.934 129.862 144.017  0.00  0.00    +0.000 OA
ATOM     14  C   UNL     1     111.444 130.500 143.831  0.00  0.00    +0.000 C 
BRANCH  14  15
ATOM     15  C   UNL     1     111.430 131.165 144.319  0.00  0.00    +0.000 C 
ATOM     16  C   UNL     1     111.283 131.082 145.126  0.00  0.00    +0.000 C 
BRANCH  16  18
ATOM     17  O   UNL     1     111.229 133.747 147.072  0.00  0.00    +0.000 OA
ATOM     18  C   UNL     1     111.270 131.749 145.613  0.00  0.00    +0.000 A 
ATOM     19  C   UNL     1     110.558 132.141 145.756  0.00  0.00    +0.000 A 
ATOM     20  C   UNL     1     111.967 132.022 145.957  0.00  0.00    +0.000 A 
ATOM     21  C   UNL     1     110.544 132.807 146.242  0.00  0.00    +0.000 A 
ATOM     22  C   UNL     1     111.954 132.689 146.443  0.00  0.00    +0.000 A 
ATOM     23  C   UNL     1     111.243 133.081 146.586  0.00  0.00    +0.000 A 
ENDBRANCH  16  18
ENDBRANCH  14  15
ENDBRANCH  12  14
ENDBRANCH   3  12
BRANCH   4  24
ATOM     24  O   UNL     1     110.617 128.318 141.312  0.00  0.00    +0.000 OA
BRANCH  24  26
ATOM     25  O   UNL     1     111.264 127.502 142.291  0.00  0.00    +0.000 OA
ATOM     26  C   UNL     1     110.769 127.574 141.635  0.00  0.00    +0.000 C 
ATOM     27  C   UNL     1     110.427 126.902 141.302  0.00  0.00    +0.000 C 
ENDBRANCH  24  26
ENDBRANCH   4  24
BRANCH   6  28
ATOM     28  O   UNL     1     111.972 128.794 140.500  0.00  0.00    +0.000 OA
BRANCH  28  33
ATOM     29  O   UNL     1     113.341 129.440 138.927  0.00  0.00    +0.000 OA
ATOM     30  O   UNL     1     111.050 129.925 139.730  0.00  0.00    +0.000 OA
ATOM     31  O   UNL     1     110.864 130.910 138.691  0.00  0.00    +0.000 OA
ATOM     32  O   UNL     1     113.037 131.412 136.805  0.00  0.00    +0.000 OA
ATOM     33  C   UNL     1     112.275 129.198 139.847  0.00  0.00    +0.000 A 
ATOM     34  C   UNL     1     113.038 129.036 139.580  0.00  0.00    +0.000 A 
ATOM     35  C   UNL     1     111.814 129.763 139.462  0.00  0.00    +0.000 A 
ATOM     36  C   UNL     1     112.116 130.167 138.810  0.00  0.00    +0.000 A 
ATOM     37  C   UNL     1     112.880 130.006 138.542  0.00  0.00    +0.000 A 
ATOM     38  C   UNL     1     111.627 130.755 138.417  0.00  0.00    +0.000 A 
ATOM     39  C   UNL     1     113.207 130.419 137.863  0.00  0.00    +0.000 A 
ATOM     40  C   UNL     1     111.936 131.179 137.737  0.00  0.00    +0.000 A 
ATOM     41  C   UNL     1     112.732 131.010 137.458  0.00  0.00    +0.000 A 
BRANCH  34  43
ATOM     42  O   UNL     1     114.883 126.774 141.120  0.00  0.00    +0.000 OA
ATOM     43  C   UNL     1     113.499 128.471 139.964  0.00  0.00    +0.000 A 
ATOM     44  C   UNL     1     114.058 128.705 140.524  0.00  0.00    +0.000 A 
ATOM     45  C   UNL     1     113.402 127.670 139.790  0.00  0.00    +0.000 A 
ATOM     46  C   UNL     1     114.519 128.140 140.910  0.00  0.00    +0.000 A 
ATOM     47  C   UNL     1     113.863 127.105 140.174  0.00  0.00    +0.000 A 
ATOM     48  C   UNL     1     114.421 127.340 140.734  0.00  0.00    +0.000 A 
ENDBRANCH  34  43
ENDBRANCH  28  33
ENDBRANCH   6  28
TORSDOF 11
ENDMDL
MODEL 10
REMARK VINA RESULT:      -8.5      2.199      4.215
REMARK  Name = 14630678
REMARK  11 active torsions:
REMARK  status: ('A' for Active; 'I' for Inactive)
REMARK    1  A    between atoms: O_2  and  C_15
REMARK    2  A    between atoms: O_2  and  C_22
REMARK    3  A    between atoms: O_3  and  C_16
REMARK    4  A    between atoms: O_3  and  C_23
REMARK    5  A    between atoms: O_4  and  C_17
REMARK    6  A    between atoms: O_4  and  C_24
REMARK    7  A    between atoms: O_5  and  C_19
REMARK    8  A    between atoms: O_5  and  C_21
REMARK    9  A    between atoms: C_23  and  C_30
REMARK   10  A    between atoms: C_25  and  C_32
REMARK   11  A    between atoms: C_35  and  C_40
REMARK                            x       y       z     vdW  Elec       q    Type
REMARK                         _______ _______ _______ _____ _____    ______ ____
ROOT
ATOM      1  O   UNL     1     111.486 127.741 137.866  0.00  0.00    +0.000 OA
ATOM      2  C   UNL     1     112.150 129.229 137.607  0.00  0.00    +0.000 C 
ATOM      3  C   UNL     1     111.978 128.982 138.374  0.00  0.00    +0.000 C 
ATOM      4  C   UNL     1     111.990 128.732 136.967  0.00  0.00    +0.000 C 
ATOM      5  C   UNL     1     111.646 128.238 138.504  0.00  0.00    +0.000 C 
ATOM      6  C   UNL     1     111.658 127.988 137.097  0.00  0.00    +0.000 C 
ATOM      7  C   UNL     1     111.474 127.991 139.273  0.00  0.00    +0.000 C 
ENDROOT
BRANCH   2   8
ATOM      8  O   UNL     1     112.482 129.973 137.477  0.00  0.00    +0.000 OA
BRANCH   8  10
ATOM      9  O   UNL     1     113.798 129.427 137.588  0.00  0.00    +0.000 OA
ATOM     10  C   UNL     1     113.296 130.081 137.558  0.00  0.00    +0.000 C 
ATOM     11  C   UNL     1     113.608 130.844 137.609  0.00  0.00    +0.000 C 
ENDBRANCH   8  10
ENDBRANCH   2   8
BRANCH   3  12
ATOM     12  O   UNL     1     112.138 129.479 139.013  0.00  0.00    +0.000 OA
BRANCH  12  14
ATOM     13  O   UNL     1     110.793 129.940 139.156  0.00  0.00    +0.000 OA
ATOM     14  C   UNL     1     111.522 129.747 139.492  0.00  0.00    +0.000 C 
BRANCH  14  15
ATOM     15  C   UNL     1     111.633 129.821 140.306  0.00  0.00    +0.000 C 
ATOM     16  C   UNL     1     111.445 130.529 140.685  0.00  0.00    +0.000 C 
BRANCH  16  18
ATOM     17  O   UNL     1     111.889 130.822 143.942  0.00  0.00    +0.000 OA
ATOM     18  C   UNL     1     111.557 130.602 141.500  0.00  0.00    +0.000 A 
ATOM     19  C   UNL     1     110.904 130.634 142.004  0.00  0.00    +0.000 A 
ATOM     20  C   UNL     1     112.319 130.643 141.810  0.00  0.00    +0.000 A 
ATOM     21  C   UNL     1     111.015 130.707 142.818  0.00  0.00    +0.000 A 
ATOM     22  C   UNL     1     112.431 130.717 142.624  0.00  0.00    +0.000 A 
ATOM     23  C   UNL     1     111.779 130.748 143.128  0.00  0.00    +0.000 A 
ENDBRANCH  16  18
ENDBRANCH  14  15
ENDBRANCH  12  14
ENDBRANCH   3  12
BRANCH   4  24
ATOM     24  O   UNL     1     112.161 128.978 136.200  0.00  0.00    +0.000 OA
BRANCH  24  26
ATOM     25  O   UNL     1     110.950 129.736 136.157  0.00  0.00    +0.000 OA
ATOM     26  C   UNL     1     111.607 129.417 135.773  0.00  0.00    +0.000 C 
ATOM     27  C   UNL     1     111.710 129.537 134.964  0.00  0.00    +0.000 C 
ENDBRANCH  24  26
ENDBRANCH   4  24
BRANCH   6  28
ATOM     28  O   UNL     1     111.497 127.490 136.459  0.00  0.00    +0.000 OA
BRANCH  28  33
ATOM     29  O   UNL     1     111.090 125.347 136.507  0.00  0.00    +0.000 OA
ATOM     30  O   UNL     1     112.999 126.896 136.794  0.00  0.00    +0.000 OA
ATOM     31  O   UNL     1     113.896 125.792 137.038  0.00  0.00    +0.000 OA
ATOM     32  O   UNL     1     112.841 123.069 136.991  0.00  0.00    +0.000 OA
ATOM     33  C   UNL     1     111.612 126.677 136.531  0.00  0.00    +0.000 A 
ATOM     34  C   UNL     1     110.975 126.161 136.435  0.00  0.00    +0.000 A 
ATOM     35  C   UNL     1     112.363 126.380 136.698  0.00  0.00    +0.000 A 
ATOM     36  C   UNL     1     112.478 125.566 136.770  0.00  0.00    +0.000 A 
ATOM     37  C   UNL     1     111.842 125.049 136.674  0.00  0.00    +0.000 A 
ATOM     38  C   UNL     1     113.265 125.268 136.944  0.00  0.00    +0.000 A 
ATOM     39  C   UNL     1     111.948 124.200 136.746  0.00  0.00    +0.000 A 
ATOM     40  C   UNL     1     113.392 124.422 137.020  0.00  0.00    +0.000 A 
ATOM     41  C   UNL     1     112.728 123.883 136.920  0.00  0.00    +0.000 A 
BRANCH  34  43
ATOM     42  O   UNL     1     107.970 127.349 135.765  0.00  0.00    +0.000 OA
ATOM     43  C   UNL     1     110.225 126.457 136.268  0.00  0.00    +0.000 A 
ATOM     44  C   UNL     1     110.019 126.645 135.491  0.00  0.00    +0.000 A 
ATOM     45  C   UNL     1     109.679 126.568 136.877  0.00  0.00    +0.000 A 
ATOM     46  C   UNL     1     109.267 126.942 135.323  0.00  0.00    +0.000 A 
ATOM     47  C   UNL     1     108.928 126.864 136.710  0.00  0.00    +0.000 A 
ATOM     48  C   UNL     1     108.722 127.052 135.933  0.00  0.00    +0.000 A 
ENDBRANCH  34  43
ENDBRANCH  28  33
ENDBRANCH   6  28
TORSDOF 11
ENDMDL
