MODEL 1
REMARK VINA RESULT:      -8.9      0.000      0.000
REMARK  Name = 44259481
REMARK  7 active torsions:
REMARK  status: ('A' for Active; 'I' for Inactive)
REMARK    1  A    between atoms: O_2  and  C_19
REMARK    2  A    between atoms: O_2  and  C_21
REMARK    3  A    between atoms: O_6  and  C_20
REMARK    4  A    between atoms: O_6  and  C_26
REMARK    5  A    between atoms: O_11  and  C_35
REMARK    6  A    between atoms: C_17  and  C_20
REMARK    7  A    between atoms: C_22  and  C_25
REMARK                            x       y       z     vdW  Elec       q    Type
REMARK                         _______ _______ _______ _____ _____    ______ ____
ROOT
ATOM      1  O   UNL     1     113.542 126.761 136.783  0.00  0.00    +0.000 OA
ATOM      2  O   UNL     1     111.583 125.425 136.069  0.00  0.00    +0.000 OA
ATOM      3  O   UNL     1     112.273 124.196 136.379  0.00  0.00    +0.000 OA
ATOM      4  O   UNL     1     114.995 124.322 137.431  0.00  0.00    +0.000 OA
ATOM      5  C   UNL     1     112.209 126.694 136.268  0.00  0.00    +0.000 A 
ATOM      6  C   UNL     1     112.863 127.140 136.506  0.00  0.00    +0.000 A 
ATOM      7  C   UNL     1     112.236 125.871 136.307  0.00  0.00    +0.000 A 
ATOM      8  C   UNL     1     112.915 125.492 136.584  0.00  0.00    +0.000 A 
ATOM      9  C   UNL     1     113.567 125.937 136.821  0.00  0.00    +0.000 A 
ATOM     10  C   UNL     1     112.930 124.634 136.619  0.00  0.00    +0.000 A 
ATOM     11  C   UNL     1     114.280 125.556 137.111  0.00  0.00    +0.000 A 
ATOM     12  C   UNL     1     113.634 124.233 136.906  0.00  0.00    +0.000 A 
ATOM     13  C   UNL     1     114.314 124.698 137.154  0.00  0.00    +0.000 A 
ENDROOT
BRANCH   6  16
ATOM     14  O   UNL     1     112.968 129.548 134.972  0.00  0.00    +0.000 OA
ATOM     15  O   UNL     1     112.755 130.434 136.347  0.00  0.00    +0.000 OA
ATOM     16  C   UNL     1     112.836 127.963 136.467  0.00  0.00    +0.000 A 
ATOM     17  C   UNL     1     112.729 128.406 137.155  0.00  0.00    +0.000 A 
ATOM     18  C   UNL     1     112.916 128.344 135.739  0.00  0.00    +0.000 A 
ATOM     19  C   UNL     1     112.702 129.230 137.115  0.00  0.00    +0.000 A 
ATOM     20  C   UNL     1     112.889 129.168 135.700  0.00  0.00    +0.000 A 
ATOM     21  C   UNL     1     112.782 129.610 136.388  0.00  0.00    +0.000 A 
BRANCH  19  22
ATOM     22  O   UNL     1     112.596 129.673 137.803  0.00  0.00    +0.000 OA
ATOM     23  C   UNL     1     112.931 129.419 138.513  0.00  0.00    +0.000 C 
ENDBRANCH  19  22
ENDBRANCH   6  16
BRANCH   5  24
ATOM     24  O   UNL     1     111.531 127.073 135.992  0.00  0.00    +0.000 OA
BRANCH  24  33
ATOM     25  O   UNL     1     110.785 126.785 137.177  0.00  0.00    +0.000 OA
ATOM     26  O   UNL     1     108.636 126.578 137.498  0.00  0.00    +0.000 OA
ATOM     27  O   UNL     1     108.680 126.906 135.881  0.00  0.00    +0.000 OA
ATOM     28  O   UNL     1     110.127 127.153 135.128  0.00  0.00    +0.000 OA
ATOM     29  C   UNL     1     109.361 126.702 137.121  0.00  0.00    +0.000 C 
ATOM     30  C   UNL     1     109.382 126.865 136.313  0.00  0.00    +0.000 C 
ATOM     31  C   UNL     1     110.062 126.661 137.553  0.00  0.00    +0.000 C 
ATOM     32  C   UNL     1     110.106 126.989 135.936  0.00  0.00    +0.000 C 
ATOM     33  C   UNL     1     110.808 126.949 136.368  0.00  0.00    +0.000 C 
BRANCH  31  34
ATOM     34  C   UNL     1     110.040 126.497 138.361  0.00  0.00    +0.000 C 
BRANCH  34  35
ATOM     35  O   UNL     1     110.544 126.896 138.878  0.00  0.00    +0.000 OA
BRANCH  35  37
ATOM     36  O   UNL     1     110.934 125.851 139.770  0.00  0.00    +0.000 OA
ATOM     37  C   UNL     1     110.654 126.617 139.646  0.00  0.00    +0.000 C 
ATOM     38  C   UNL     1     110.484 127.102 140.291  0.00  0.00    +0.000 C 
ENDBRANCH  35  37
ENDBRANCH  34  35
ENDBRANCH  31  34
ENDBRANCH  24  33
ENDBRANCH   5  24
TORSDOF 7
ENDMDL
MODEL 2
REMARK VINA RESULT:      -8.9      1.608      2.971
REMARK  Name = 44259481
REMARK  7 active torsions:
REMARK  status: ('A' for Active; 'I' for Inactive)
REMARK    1  A    between atoms: O_2  and  C_19
REMARK    2  A    between atoms: O_2  and  C_21
REMARK    3  A    between atoms: O_6  and  C_20
REMARK    4  A    between atoms: O_6  and  C_26
REMARK    5  A    between atoms: O_11  and  C_35
REMARK    6  A    between atoms: C_17  and  C_20
REMARK    7  A    between atoms: C_22  and  C_25
REMARK                            x       y       z     vdW  Elec       q    Type
REMARK                         _______ _______ _______ _____ _____    ______ ____
ROOT
ATOM      1  O   UNL     1     113.792 126.244 138.223  0.00  0.00    +0.000 OA
ATOM      2  O   UNL     1     111.721 124.956 137.798  0.00  0.00    +0.000 OA
ATOM      3  O   UNL     1     112.353 124.242 136.715  0.00  0.00    +0.000 OA
ATOM      4  O   UNL     1     115.133 124.842 136.050  0.00  0.00    +0.000 OA
ATOM      5  C   UNL     1     112.431 125.946 138.544  0.00  0.00    +0.000 A 
ATOM      6  C   UNL     1     113.122 126.376 138.685  0.00  0.00    +0.000 A 
ATOM      7  C   UNL     1     112.411 125.385 137.939  0.00  0.00    +0.000 A 
ATOM      8  C   UNL     1     113.082 125.254 137.476  0.00  0.00    +0.000 A 
ATOM      9  C   UNL     1     113.771 125.683 137.618  0.00  0.00    +0.000 A 
ATOM     10  C   UNL     1     113.048 124.666 136.850  0.00  0.00    +0.000 A 
ATOM     11  C   UNL     1     114.476 125.555 137.143  0.00  0.00    +0.000 A 
ATOM     12  C   UNL     1     113.742 124.524 136.364  0.00  0.00    +0.000 A 
ATOM     13  C   UNL     1     114.461 124.972 136.512  0.00  0.00    +0.000 A 
ENDROOT
BRANCH   6  16
ATOM     14  O   UNL     1     113.300 127.011 141.466  0.00  0.00    +0.000 OA
ATOM     15  O   UNL     1     113.200 128.618 141.106  0.00  0.00    +0.000 OA
ATOM     16  C   UNL     1     113.141 126.937 139.290  0.00  0.00    +0.000 A 
ATOM     17  C   UNL     1     113.091 127.740 139.110  0.00  0.00    +0.000 A 
ATOM     18  C   UNL     1     113.211 126.693 140.076  0.00  0.00    +0.000 A 
ATOM     19  C   UNL     1     113.111 128.300 139.715  0.00  0.00    +0.000 A 
ATOM     20  C   UNL     1     113.230 127.254 140.680  0.00  0.00    +0.000 A 
ATOM     21  C   UNL     1     113.180 128.058 140.500  0.00  0.00    +0.000 A 
BRANCH  19  22
ATOM     22  O   UNL     1     113.061 129.104 139.535  0.00  0.00    +0.000 OA
ATOM     23  C   UNL     1     113.409 129.395 138.845  0.00  0.00    +0.000 C 
ENDBRANCH  19  22
ENDBRANCH   6  16
BRANCH   5  24
ATOM     24  O   UNL     1     111.761 126.078 139.007  0.00  0.00    +0.000 OA
BRANCH  24  33
ATOM     25  O   UNL     1     111.061 126.768 137.969  0.00  0.00    +0.000 OA
ATOM     26  O   UNL     1     108.923 126.979 137.583  0.00  0.00    +0.000 OA
ATOM     27  O   UNL     1     108.904 126.050 138.947  0.00  0.00    +0.000 OA
ATOM     28  O   UNL     1     110.323 125.599 139.658  0.00  0.00    +0.000 OA
ATOM     29  C   UNL     1     109.633 126.754 137.939  0.00  0.00    +0.000 C 
ATOM     30  C   UNL     1     109.623 126.289 138.621  0.00  0.00    +0.000 C 
ATOM     31  C   UNL     1     110.352 126.993 137.614  0.00  0.00    +0.000 C 
ATOM     32  C   UNL     1     110.333 126.064 138.977  0.00  0.00    +0.000 C 
ATOM     33  C   UNL     1     111.052 126.303 138.651  0.00  0.00    +0.000 C 
BRANCH  31  34
ATOM     34  C   UNL     1     110.362 127.458 136.932  0.00  0.00    +0.000 C 
BRANCH  34  35
ATOM     35  O   UNL     1     110.910 128.069 136.856  0.00  0.00    +0.000 OA
BRANCH  35  37
ATOM     36  O   UNL     1     110.505 129.110 135.965  0.00  0.00    +0.000 OA
ATOM     37  C   UNL     1     110.990 128.465 136.137  0.00  0.00    +0.000 C 
ATOM     38  C   UNL     1     111.555 128.218 135.589  0.00  0.00    +0.000 C 
ENDBRANCH  35  37
ENDBRANCH  34  35
ENDBRANCH  31  34
ENDBRANCH  24  33
ENDBRANCH   5  24
TORSDOF 7
ENDMDL
MODEL 3
REMARK VINA RESULT:      -8.9      1.439      4.018
REMARK  Name = 44259481
REMARK  7 active torsions:
REMARK  status: ('A' for Active; 'I' for Inactive)
REMARK    1  A    between atoms: O_2  and  C_19
REMARK    2  A    between atoms: O_2  and  C_21
REMARK    3  A    between atoms: O_6  and  C_20
REMARK    4  A    between atoms: O_6  and  C_26
REMARK    5  A    between atoms: O_11  and  C_35
REMARK    6  A    between atoms: C_17  and  C_20
REMARK    7  A    between atoms: C_22  and  C_25
REMARK                            x       y       z     vdW  Elec       q    Type
REMARK                         _______ _______ _______ _____ _____    ______ ____
ROOT
ATOM      1  O   UNL     1     112.979 127.634 135.857  0.00  0.00    +0.000 OA
ATOM      2  O   UNL     1     112.467 128.936 137.900  0.00  0.00    +0.000 OA
ATOM      3  O   UNL     1     113.247 130.051 137.418  0.00  0.00    +0.000 OA
ATOM      4  O   UNL     1     114.569 129.843 134.822  0.00  0.00    +0.000 OA
ATOM      5  C   UNL     1     112.334 127.740 137.129  0.00  0.00    +0.000 A 
ATOM      6  C   UNL     1     112.504 127.306 136.447  0.00  0.00    +0.000 A 
ATOM      7  C   UNL     1     112.638 128.502 137.218  0.00  0.00    +0.000 A 
ATOM      8  C   UNL     1     113.112 128.829 136.628  0.00  0.00    +0.000 A 
ATOM      9  C   UNL     1     113.282 128.395 135.948  0.00  0.00    +0.000 A 
ATOM     10  C   UNL     1     113.423 129.624 136.734  0.00  0.00    +0.000 A 
ATOM     11  C   UNL     1     113.775 128.725 135.326  0.00  0.00    +0.000 A 
ATOM     12  C   UNL     1     113.917 129.971 136.123  0.00  0.00    +0.000 A 
ATOM     13  C   UNL     1     114.095 129.518 135.414  0.00  0.00    +0.000 A 
ENDROOT
BRANCH   6  16
ATOM     14  O   UNL     1     112.586 124.519 137.077  0.00  0.00    +0.000 OA
ATOM     15  O   UNL     1     111.289 124.259 136.090  0.00  0.00    +0.000 OA
ATOM     16  C   UNL     1     112.200 126.545 136.358  0.00  0.00    +0.000 A 
ATOM     17  C   UNL     1     111.552 126.414 135.864  0.00  0.00    +0.000 A 
ATOM     18  C   UNL     1     112.545 125.913 136.762  0.00  0.00    +0.000 A 
ATOM     19  C   UNL     1     111.249 125.652 135.775  0.00  0.00    +0.000 A 
ATOM     20  C   UNL     1     112.241 125.151 136.672  0.00  0.00    +0.000 A 
ATOM     21  C   UNL     1     111.593 125.021 136.179  0.00  0.00    +0.000 A 
BRANCH  19  22
ATOM     22  O   UNL     1     110.600 125.522 135.282  0.00  0.00    +0.000 OA
ATOM     23  C   UNL     1     110.490 125.992 134.612  0.00  0.00    +0.000 C 
ENDBRANCH  19  22
ENDBRANCH   6  16
BRANCH   5  24
ATOM     24  O   UNL     1     111.860 127.413 137.719  0.00  0.00    +0.000 OA
BRANCH  24  33
ATOM     25  O   UNL     1     110.710 128.201 137.404  0.00  0.00    +0.000 OA
ATOM     26  O   UNL     1     109.110 128.965 138.677  0.00  0.00    +0.000 OA
ATOM     27  O   UNL     1     110.034 128.165 139.785  0.00  0.00    +0.000 OA
ATOM     28  O   UNL     1     111.409 127.388 139.306  0.00  0.00    +0.000 OA
ATOM     29  C   UNL     1     109.798 128.577 138.437  0.00  0.00    +0.000 C 
ATOM     30  C   UNL     1     110.259 128.177 138.991  0.00  0.00    +0.000 C 
ATOM     31  C   UNL     1     110.023 128.589 137.643  0.00  0.00    +0.000 C 
ATOM     32  C   UNL     1     110.947 127.788 138.751  0.00  0.00    +0.000 C 
ATOM     33  C   UNL     1     111.173 127.801 137.958  0.00  0.00    +0.000 C 
BRANCH  31  34
ATOM     34  C   UNL     1     109.560 128.990 137.090  0.00  0.00    +0.000 C 
BRANCH  34  35
ATOM     35  O   UNL     1     109.366 128.628 136.375  0.00  0.00    +0.000 OA
BRANCH  35  37
ATOM     36  O   UNL     1     108.146 129.027 135.748  0.00  0.00    +0.000 OA
ATOM     37  C   UNL     1     108.970 129.055 135.790  0.00  0.00    +0.000 C 
ATOM     38  C   UNL     1     109.395 129.508 135.249  0.00  0.00    +0.000 C 
ENDBRANCH  35  37
ENDBRANCH  34  35
ENDBRANCH  31  34
ENDBRANCH  24  33
ENDBRANCH   5  24
TORSDOF 7
ENDMDL
MODEL 4
REMARK VINA RESULT:      -8.8      1.499      4.123
REMARK  Name = 44259481
REMARK  7 active torsions:
REMARK  status: ('A' for Active; 'I' for Inactive)
REMARK    1  A    between atoms: O_2  and  C_19
REMARK    2  A    between atoms: O_2  and  C_21
REMARK    3  A    between atoms: O_6  and  C_20
REMARK    4  A    between atoms: O_6  and  C_26
REMARK    5  A    between atoms: O_11  and  C_35
REMARK    6  A    between atoms: C_17  and  C_20
REMARK    7  A    between atoms: C_22  and  C_25
REMARK                            x       y       z     vdW  Elec       q    Type
REMARK                         _______ _______ _______ _____ _____    ______ ____
ROOT
ATOM      1  O   UNL     1     112.758 127.400 136.789  0.00  0.00    +0.000 OA
ATOM      2  O   UNL     1     111.082 128.051 138.492  0.00  0.00    +0.000 OA
ATOM      3  O   UNL     1     111.311 129.450 138.223  0.00  0.00    +0.000 OA
ATOM      4  O   UNL     1     113.273 130.204 136.195  0.00  0.00    +0.000 OA
ATOM      5  C   UNL     1     111.797 127.036 137.783  0.00  0.00    +0.000 A 
ATOM      6  C   UNL     1     112.355 126.819 137.215  0.00  0.00    +0.000 A 
ATOM      7  C   UNL     1     111.641 127.834 137.924  0.00  0.00    +0.000 A 
ATOM      8  C   UNL     1     112.043 128.415 137.498  0.00  0.00    +0.000 A 
ATOM      9  C   UNL     1     112.601 128.198 136.931  0.00  0.00    +0.000 A 
ATOM     10  C   UNL     1     111.871 129.242 137.654  0.00  0.00    +0.000 A 
ATOM     11  C   UNL     1     113.027 128.793 136.480  0.00  0.00    +0.000 A 
ATOM     12  C   UNL     1     112.287 129.852 137.214  0.00  0.00    +0.000 A 
ATOM     13  C   UNL     1     112.869 129.626 136.622  0.00  0.00    +0.000 A 
ENDROOT
BRANCH   6  16
ATOM     14  O   UNL     1     111.587 124.312 136.080  0.00  0.00    +0.000 OA
ATOM     15  O   UNL     1     112.976 123.628 136.651  0.00  0.00    +0.000 OA
ATOM     16  C   UNL     1     112.511 126.022 137.075  0.00  0.00    +0.000 A 
ATOM     17  C   UNL     1     113.205 125.680 137.360  0.00  0.00    +0.000 A 
ATOM     18  C   UNL     1     111.971 125.565 136.648  0.00  0.00    +0.000 A 
ATOM     19  C   UNL     1     113.360 124.882 137.219  0.00  0.00    +0.000 A 
ATOM     20  C   UNL     1     112.127 124.768 136.507  0.00  0.00    +0.000 A 
ATOM     21  C   UNL     1     112.821 124.426 136.792  0.00  0.00    +0.000 A 
BRANCH  19  22
ATOM     22  O   UNL     1     114.054 124.540 137.504  0.00  0.00    +0.000 OA
ATOM     23  C   UNL     1     114.743 124.991 137.564  0.00  0.00    +0.000 C 
ENDBRANCH  19  22
ENDBRANCH   6  16
BRANCH   5  24
ATOM     24  O   UNL     1     111.394 126.456 138.209  0.00  0.00    +0.000 OA
BRANCH  24  33
ATOM     25  O   UNL     1     112.107 126.722 139.419  0.00  0.00    +0.000 OA
ATOM     26  O   UNL     1     111.537 126.432 141.506  0.00  0.00    +0.000 OA
ATOM     27  O   UNL     1     110.184 125.887 140.735  0.00  0.00    +0.000 OA
ATOM     28  O   UNL     1     110.113 125.899 139.087  0.00  0.00    +0.000 OA
ATOM     29  C   UNL     1     111.502 126.438 140.681  0.00  0.00    +0.000 C 
ATOM     30  C   UNL     1     110.825 126.165 140.296  0.00  0.00    +0.000 C 
ATOM     31  C   UNL     1     112.143 126.716 140.242  0.00  0.00    +0.000 C 
ATOM     32  C   UNL     1     110.789 126.171 139.471  0.00  0.00    +0.000 C 
ATOM     33  C   UNL     1     111.430 126.450 139.033  0.00  0.00    +0.000 C 
BRANCH  31  34
ATOM     34  C   UNL     1     112.819 126.989 140.629  0.00  0.00    +0.000 C 
BRANCH  34  35
ATOM     35  O   UNL     1     113.560 126.892 140.281  0.00  0.00    +0.000 OA
BRANCH  35  37
ATOM     36  O   UNL     1     114.781 126.761 141.012  0.00  0.00    +0.000 OA
ATOM     37  C   UNL     1     114.227 127.235 140.626  0.00  0.00    +0.000 C 
ATOM     38  C   UNL     1     114.339 128.051 140.586  0.00  0.00    +0.000 C 
ENDBRANCH  35  37
ENDBRANCH  34  35
ENDBRANCH  31  34
ENDBRANCH  24  33
ENDBRANCH   5  24
TORSDOF 7
ENDMDL
MODEL 5
REMARK VINA RESULT:      -8.7      1.215      4.206
REMARK  Name = 44259481
REMARK  7 active torsions:
REMARK  status: ('A' for Active; 'I' for Inactive)
REMARK    1  A    between atoms: O_2  and  C_19
REMARK    2  A    between atoms: O_2  and  C_21
REMARK    3  A    between atoms: O_6  and  C_20
REMARK    4  A    between atoms: O_6  and  C_26
REMARK    5  A    between atoms: O_11  and  C_35
REMARK    6  A    between atoms: C_17  and  C_20
REMARK    7  A    between atoms: C_22  and  C_25
REMARK                            x       y       z     vdW  Elec       q    Type
REMARK                         _______ _______ _______ _____ _____    ______ ____
ROOT
ATOM      1  O   UNL     1     112.996 127.106 136.380  0.00  0.00    +0.000 OA
ATOM      2  O   UNL     1     113.008 128.376 138.506  0.00  0.00    +0.000 OA
ATOM      3  O   UNL     1     112.671 129.596 137.812  0.00  0.00    +0.000 OA
ATOM      4  O   UNL     1     112.316 129.528 134.913  0.00  0.00    +0.000 OA
ATOM      5  C   UNL     1     113.169 127.145 137.799  0.00  0.00    +0.000 A 
ATOM      6  C   UNL     1     113.165 126.721 137.090  0.00  0.00    +0.000 A 
ATOM      7  C   UNL     1     113.004 127.953 137.797  0.00  0.00    +0.000 A 
ATOM      8  C   UNL     1     112.835 128.338 137.087  0.00  0.00    +0.000 A 
ATOM      9  C   UNL     1     112.832 127.915 136.379  0.00  0.00    +0.000 A 
ATOM     10  C   UNL     1     112.665 129.180 137.098  0.00  0.00    +0.000 A 
ATOM     11  C   UNL     1     112.657 128.304 135.633  0.00  0.00    +0.000 A 
ATOM     12  C   UNL     1     112.488 129.587 136.363  0.00  0.00    +0.000 A 
ATOM     13  C   UNL     1     112.485 129.146 135.625  0.00  0.00    +0.000 A 
ENDROOT
BRANCH   6  16
ATOM     14  O   UNL     1     115.046 124.581 137.317  0.00  0.00    +0.000 OA
ATOM     15  O   UNL     1     113.828 123.488 137.100  0.00  0.00    +0.000 OA
ATOM     16  C   UNL     1     113.330 125.913 137.093  0.00  0.00    +0.000 A 
ATOM     17  C   UNL     1     112.722 125.367 136.984  0.00  0.00    +0.000 A 
ATOM     18  C   UNL     1     114.105 125.651 137.204  0.00  0.00    +0.000 A 
ATOM     19  C   UNL     1     112.888 124.559 136.987  0.00  0.00    +0.000 A 
ATOM     20  C   UNL     1     114.271 124.843 137.206  0.00  0.00    +0.000 A 
ATOM     21  C   UNL     1     113.662 124.297 137.098  0.00  0.00    +0.000 A 
BRANCH  19  22
ATOM     22  O   UNL     1     112.279 124.012 136.879  0.00  0.00    +0.000 OA
ATOM     23  C   UNL     1     111.680 124.165 136.332  0.00  0.00    +0.000 C 
ENDBRANCH  19  22
ENDBRANCH   6  16
BRANCH   5  24
ATOM     24  O   UNL     1     113.338 126.760 138.509  0.00  0.00    +0.000 OA
BRANCH  24  33
ATOM     25  O   UNL     1     111.980 126.771 138.954  0.00  0.00    +0.000 OA
ATOM     26  O   UNL     1     111.136 126.791 140.967  0.00  0.00    +0.000 OA
ATOM     27  O   UNL     1     112.751 126.784 141.306  0.00  0.00    +0.000 OA
ATOM     28  O   UNL     1     113.852 126.768 140.077  0.00  0.00    +0.000 OA
ATOM     29  C   UNL     1     111.687 126.783 140.352  0.00  0.00    +0.000 C 
ATOM     30  C   UNL     1     112.494 126.779 140.522  0.00  0.00    +0.000 C 
ATOM     31  C   UNL     1     111.430 126.778 139.568  0.00  0.00    +0.000 C 
ATOM     32  C   UNL     1     113.045 126.772 139.907  0.00  0.00    +0.000 C 
ATOM     33  C   UNL     1     112.788 126.767 139.123  0.00  0.00    +0.000 C 
BRANCH  31  34
ATOM     34  C   UNL     1     110.622 126.782 139.399  0.00  0.00    +0.000 C 
BRANCH  34  35
ATOM     35  O   UNL     1     110.316 126.262 138.837  0.00  0.00    +0.000 OA
BRANCH  35  37
ATOM     36  O   UNL     1     108.900 126.193 139.017  0.00  0.00    +0.000 OA
ATOM     37  C   UNL     1     109.552 126.374 138.545  0.00  0.00    +0.000 C 
ATOM     38  C   UNL     1     109.440 126.665 137.781  0.00  0.00    +0.000 C 
ENDBRANCH  35  37
ENDBRANCH  34  35
ENDBRANCH  31  34
ENDBRANCH  24  33
ENDBRANCH   5  24
TORSDOF 7
ENDMDL
MODEL 6
REMARK VINA RESULT:      -8.7      1.291      4.377
REMARK  Name = 44259481
REMARK  7 active torsions:
REMARK  status: ('A' for Active; 'I' for Inactive)
REMARK    1  A    between atoms: O_2  and  C_19
REMARK    2  A    between atoms: O_2  and  C_21
REMARK    3  A    between atoms: O_6  and  C_20
REMARK    4  A    between atoms: O_6  and  C_26
REMARK    5  A    between atoms: O_11  and  C_35
REMARK    6  A    between atoms: C_17  and  C_20
REMARK    7  A    between atoms: C_22  and  C_25
REMARK                            x       y       z     vdW  Elec       q    Type
REMARK                         _______ _______ _______ _____ _____    ______ ____
ROOT
ATOM      1  O   UNL     1     112.222 128.356 138.325  0.00  0.00    +0.000 OA
ATOM      2  O   UNL     1     113.817 127.255 136.785  0.00  0.00    +0.000 OA
ATOM      3  O   UNL     1     113.685 128.331 135.834  0.00  0.00    +0.000 OA
ATOM      4  O   UNL     1     111.906 130.563 136.452  0.00  0.00    +0.000 OA
ATOM      5  C   UNL     1     113.094 127.266 138.018  0.00  0.00    +0.000 A 
ATOM      6  C   UNL     1     112.562 127.633 138.531  0.00  0.00    +0.000 A 
ATOM      7  C   UNL     1     113.285 127.622 137.299  0.00  0.00    +0.000 A 
ATOM      8  C   UNL     1     112.945 128.345 137.093  0.00  0.00    +0.000 A 
ATOM      9  C   UNL     1     112.414 128.711 137.606  0.00  0.00    +0.000 A 
ATOM     10  C   UNL     1     113.153 128.705 136.341  0.00  0.00    +0.000 A 
ATOM     11  C   UNL     1     112.052 129.464 137.403  0.00  0.00    +0.000 A 
ATOM     12  C   UNL     1     112.802 129.458 136.120  0.00  0.00    +0.000 A 
ATOM     13  C   UNL     1     112.248 129.840 136.655  0.00  0.00    +0.000 A 
ENDROOT
BRANCH   6  16
ATOM     14  O   UNL     1     113.238 126.997 141.234  0.00  0.00    +0.000 OA
ATOM     15  O   UNL     1     111.800 126.208 141.409  0.00  0.00    +0.000 OA
ATOM     16  C   UNL     1     112.371 127.277 139.250  0.00  0.00    +0.000 A 
ATOM     17  C   UNL     1     111.651 126.882 139.337  0.00  0.00    +0.000 A 
ATOM     18  C   UNL     1     112.900 127.315 139.883  0.00  0.00    +0.000 A 
ATOM     19  C   UNL     1     111.461 126.526 140.057  0.00  0.00    +0.000 A 
ATOM     20  C   UNL     1     112.709 126.959 140.602  0.00  0.00    +0.000 A 
ATOM     21  C   UNL     1     111.990 126.564 140.689  0.00  0.00    +0.000 A 
BRANCH  19  22
ATOM     22  O   UNL     1     110.742 126.131 140.144  0.00  0.00    +0.000 OA
ATOM     23  C   UNL     1     110.069 126.409 139.755  0.00  0.00    +0.000 C 
ENDBRANCH  19  22
ENDBRANCH   6  16
BRANCH   5  24
ATOM     24  O   UNL     1     113.434 126.543 138.224  0.00  0.00    +0.000 OA
BRANCH  24  33
ATOM     25  O   UNL     1     112.594 125.777 137.359  0.00  0.00    +0.000 OA
ATOM     26  O   UNL     1     112.953 123.891 136.320  0.00  0.00    +0.000 OA
ATOM     27  O   UNL     1     114.393 124.097 137.099  0.00  0.00    +0.000 OA
ATOM     28  O   UNL     1     114.633 125.423 138.051  0.00  0.00    +0.000 OA
ATOM     29  C   UNL     1     113.073 124.554 136.796  0.00  0.00    +0.000 C 
ATOM     30  C   UNL     1     113.793 124.657 137.185  0.00  0.00    +0.000 C 
ATOM     31  C   UNL     1     112.473 125.114 136.883  0.00  0.00    +0.000 C 
ATOM     32  C   UNL     1     113.913 125.320 137.662  0.00  0.00    +0.000 C 
ATOM     33  C   UNL     1     113.314 125.880 137.748  0.00  0.00    +0.000 C 
BRANCH  31  34
ATOM     34  C   UNL     1     111.753 125.010 136.493  0.00  0.00    +0.000 C 
BRANCH  34  35
ATOM     35  O   UNL     1     111.481 125.585 135.969  0.00  0.00    +0.000 OA
BRANCH  35  37
ATOM     36  O   UNL     1     110.102 125.599 136.344  0.00  0.00    +0.000 OA
ATOM     37  C   UNL     1     110.683 125.608 135.758  0.00  0.00    +0.000 C 
ATOM     38  C   UNL     1     110.467 125.639 134.963  0.00  0.00    +0.000 C 
ENDBRANCH  35  37
ENDBRANCH  34  35
ENDBRANCH  31  34
ENDBRANCH  24  33
ENDBRANCH   5  24
TORSDOF 7
ENDMDL
MODEL 7
REMARK VINA RESULT:      -8.6      1.108      2.360
REMARK  Name = 44259481
REMARK  7 active torsions:
REMARK  status: ('A' for Active; 'I' for Inactive)
REMARK    1  A    between atoms: O_2  and  C_19
REMARK    2  A    between atoms: O_2  and  C_21
REMARK    3  A    between atoms: O_6  and  C_20
REMARK    4  A    between atoms: O_6  and  C_26
REMARK    5  A    between atoms: O_11  and  C_35
REMARK    6  A    between atoms: C_17  and  C_20
REMARK    7  A    between atoms: C_22  and  C_25
REMARK                            x       y       z     vdW  Elec       q    Type
REMARK                         _______ _______ _______ _____ _____    ______ ____
ROOT
ATOM      1  O   UNL     1     113.586 127.346 136.663  0.00  0.00    +0.000 OA
ATOM      2  O   UNL     1     112.337 126.050 138.363  0.00  0.00    +0.000 OA
ATOM      3  O   UNL     1     113.125 124.873 138.087  0.00  0.00    +0.000 OA
ATOM      4  O   UNL     1     115.216 125.011 136.052  0.00  0.00    +0.000 OA
ATOM      5  C   UNL     1     112.564 127.273 137.660  0.00  0.00    +0.000 A 
ATOM      6  C   UNL     1     112.980 127.705 137.093  0.00  0.00    +0.000 A 
ATOM      7  C   UNL     1     112.754 126.482 137.796  0.00  0.00    +0.000 A 
ATOM      8  C   UNL     1     113.359 126.122 137.366  0.00  0.00    +0.000 A 
ATOM      9  C   UNL     1     113.775 126.554 136.800  0.00  0.00    +0.000 A 
ATOM     10  C   UNL     1     113.547 125.298 137.518  0.00  0.00    +0.000 A 
ATOM     11  C   UNL     1     114.408 126.192 136.346  0.00  0.00    +0.000 A 
ATOM     12  C   UNL     1     114.177 124.917 137.074  0.00  0.00    +0.000 A 
ATOM     13  C   UNL     1     114.610 125.368 136.483  0.00  0.00    +0.000 A 
ENDROOT
BRANCH   6  16
ATOM     14  O   UNL     1     113.088 130.448 137.889  0.00  0.00    +0.000 OA
ATOM     15  O   UNL     1     112.222 130.870 136.550  0.00  0.00    +0.000 OA
ATOM     16  C   UNL     1     112.790 128.496 136.956  0.00  0.00    +0.000 A 
ATOM     17  C   UNL     1     112.358 128.707 136.287  0.00  0.00    +0.000 A 
ATOM     18  C   UNL     1     113.034 129.076 137.491  0.00  0.00    +0.000 A 
ATOM     19  C   UNL     1     112.168 129.499 136.151  0.00  0.00    +0.000 A 
ATOM     20  C   UNL     1     112.844 129.867 137.354  0.00  0.00    +0.000 A 
ATOM     21  C   UNL     1     112.411 130.079 136.685  0.00  0.00    +0.000 A 
BRANCH  19  22
ATOM     22  O   UNL     1     111.735 129.710 135.482  0.00  0.00    +0.000 OA
ATOM     23  C   UNL     1     111.800 129.264 134.790  0.00  0.00    +0.000 C 
ENDBRANCH  19  22
ENDBRANCH   6  16
BRANCH   5  24
ATOM     24  O   UNL     1     111.958 127.632 138.089  0.00  0.00    +0.000 OA
BRANCH  24  33
ATOM     25  O   UNL     1     110.925 126.934 137.391  0.00  0.00    +0.000 OA
ATOM     26  O   UNL     1     108.908 126.376 138.009  0.00  0.00    +0.000 OA
ATOM     27  O   UNL     1     109.448 127.144 139.365  0.00  0.00    +0.000 OA
ATOM     28  O   UNL     1     110.973 127.772 139.406  0.00  0.00    +0.000 OA
ATOM     29  C   UNL     1     109.671 126.690 138.029  0.00  0.00    +0.000 C 
ATOM     30  C   UNL     1     109.941 127.074 138.707  0.00  0.00    +0.000 C 
ATOM     31  C   UNL     1     110.163 126.620 137.371  0.00  0.00    +0.000 C 
ATOM     32  C   UNL     1     110.704 127.388 138.727  0.00  0.00    +0.000 C 
ATOM     33  C   UNL     1     111.196 127.318 138.069  0.00  0.00    +0.000 C 
BRANCH  31  34
ATOM     34  C   UNL     1     109.893 126.236 136.692  0.00  0.00    +0.000 C 
BRANCH  34  35
ATOM     35  O   UNL     1     110.070 126.540 135.947  0.00  0.00    +0.000 OA
BRANCH  35  37
ATOM     36  O   UNL     1     109.150 126.121 134.937  0.00  0.00    +0.000 OA
ATOM     37  C   UNL     1     109.905 126.098 135.270  0.00  0.00    +0.000 C 
ATOM     38  C   UNL     1     110.493 125.634 134.926  0.00  0.00    +0.000 C 
ENDBRANCH  35  37
ENDBRANCH  34  35
ENDBRANCH  31  34
ENDBRANCH  24  33
ENDBRANCH   5  24
TORSDOF 7
ENDMDL
MODEL 8
REMARK VINA RESULT:      -8.6      1.382      4.369
REMARK  Name = 44259481
REMARK  7 active torsions:
REMARK  status: ('A' for Active; 'I' for Inactive)
REMARK    1  A    between atoms: O_2  and  C_19
REMARK    2  A    between atoms: O_2  and  C_21
REMARK    3  A    between atoms: O_6  and  C_20
REMARK    4  A    between atoms: O_6  and  C_26
REMARK    5  A    between atoms: O_11  and  C_35
REMARK    6  A    between atoms: C_17  and  C_20
REMARK    7  A    between atoms: C_22  and  C_25
REMARK                            x       y       z     vdW  Elec       q    Type
REMARK                         _______ _______ _______ _____ _____    ______ ____
ROOT
ATOM      1  O   UNL     1     111.413 126.928 136.689  0.00  0.00    +0.000 OA
ATOM      2  O   UNL     1     112.040 128.849 135.259  0.00  0.00    +0.000 OA
ATOM      3  O   UNL     1     110.653 129.145 134.998  0.00  0.00    +0.000 OA
ATOM      4  O   UNL     1     108.591 127.464 136.206  0.00  0.00    +0.000 OA
ATOM      5  C   UNL     1     112.418 127.753 136.095  0.00  0.00    +0.000 A 
ATOM      6  C   UNL     1     112.208 127.112 136.572  0.00  0.00    +0.000 A 
ATOM      7  C   UNL     1     111.831 128.208 135.736  0.00  0.00    +0.000 A 
ATOM      8  C   UNL     1     111.035 128.024 135.853  0.00  0.00    +0.000 A 
ATOM      9  C   UNL     1     110.827 127.384 136.329  0.00  0.00    +0.000 A 
ATOM     10  C   UNL     1     110.434 128.506 135.473  0.00  0.00    +0.000 A 
ATOM     11  C   UNL     1     110.002 127.181 136.459  0.00  0.00    +0.000 A 
ATOM     12  C   UNL     1     109.604 128.319 135.590  0.00  0.00    +0.000 A 
ATOM     13  C   UNL     1     109.386 127.651 136.087  0.00  0.00    +0.000 A 
ENDROOT
BRANCH   6  16
ATOM     14  O   UNL     1     114.246 125.116 136.395  0.00  0.00    +0.000 OA
ATOM     15  O   UNL     1     114.556 125.290 138.006  0.00  0.00    +0.000 OA
ATOM     16  C   UNL     1     112.795 126.657 136.931  0.00  0.00    +0.000 A 
ATOM     17  C   UNL     1     112.950 126.744 137.737  0.00  0.00    +0.000 A 
ATOM     18  C   UNL     1     113.227 126.114 136.484  0.00  0.00    +0.000 A 
ATOM     19  C   UNL     1     113.537 126.289 138.095  0.00  0.00    +0.000 A 
ATOM     20  C   UNL     1     113.814 125.659 136.843  0.00  0.00    +0.000 A 
ATOM     21  C   UNL     1     113.969 125.746 137.648  0.00  0.00    +0.000 A 
BRANCH  19  22
ATOM     22  O   UNL     1     113.693 126.376 138.900  0.00  0.00    +0.000 OA
ATOM     23  C   UNL     1     113.077 126.547 139.423  0.00  0.00    +0.000 C 
ENDBRANCH  19  22
ENDBRANCH   6  16
BRANCH   5  24
ATOM     24  O   UNL     1     113.213 127.938 135.978  0.00  0.00    +0.000 OA
BRANCH  24  33
ATOM     25  O   UNL     1     113.176 129.096 136.815  0.00  0.00    +0.000 OA
ATOM     26  O   UNL     1     114.341 130.941 136.754  0.00  0.00    +0.000 OA
ATOM     27  O   UNL     1     114.979 130.127 135.469  0.00  0.00    +0.000 OA
ATOM     28  O   UNL     1     114.415 128.625 135.081  0.00  0.00    +0.000 OA
ATOM     29  C   UNL     1     114.059 130.189 136.560  0.00  0.00    +0.000 C 
ATOM     30  C   UNL     1     114.378 129.783 135.918  0.00  0.00    +0.000 C 
ATOM     31  C   UNL     1     113.458 129.846 137.009  0.00  0.00    +0.000 C 
ATOM     32  C   UNL     1     114.096 129.032 135.723  0.00  0.00    +0.000 C 
ATOM     33  C   UNL     1     113.495 128.688 136.172  0.00  0.00    +0.000 C 
BRANCH  31  34
ATOM     34  C   UNL     1     113.139 130.253 137.652  0.00  0.00    +0.000 C 
BRANCH  34  35
ATOM     35  O   UNL     1     112.978 129.855 138.355  0.00  0.00    +0.000 OA
BRANCH  35  37
ATOM     36  O   UNL     1     112.959 130.701 139.506  0.00  0.00    +0.000 OA
ATOM     37  C   UNL     1     112.559 130.232 138.958  0.00  0.00    +0.000 C 
ATOM     38  C   UNL     1     111.742 130.141 139.012  0.00  0.00    +0.000 C 
ENDBRANCH  35  37
ENDBRANCH  34  35
ENDBRANCH  31  34
ENDBRANCH  24  33
ENDBRANCH   5  24
TORSDOF 7
ENDMDL
MODEL 9
REMARK VINA RESULT:      -8.6      1.420      4.110
REMARK  Name = 44259481
REMARK  7 active torsions:
REMARK  status: ('A' for Active; 'I' for Inactive)
REMARK    1  A    between atoms: O_2  and  C_19
REMARK    2  A    between atoms: O_2  and  C_21
REMARK    3  A    between atoms: O_6  and  C_20
REMARK    4  A    between atoms: O_6  and  C_26
REMARK    5  A    between atoms: O_11  and  C_35
REMARK    6  A    between atoms: C_17  and  C_20
REMARK    7  A    between atoms: C_22  and  C_25
REMARK                            x       y       z     vdW  Elec       q    Type
REMARK                         _______ _______ _______ _____ _____    ______ ____
ROOT
ATOM      1  O   UNL     1     112.954 126.394 139.205  0.00  0.00    +0.000 OA
ATOM      2  O   UNL     1     113.126 128.680 138.270  0.00  0.00    +0.000 OA
ATOM      3  O   UNL     1     112.767 129.258 139.542  0.00  0.00    +0.000 OA
ATOM      4  O   UNL     1     112.223 127.490 141.802  0.00  0.00    +0.000 OA
ATOM      5  C   UNL     1     113.219 127.264 138.102  0.00  0.00    +0.000 A 
ATOM      6  C   UNL     1     113.161 126.502 138.414  0.00  0.00    +0.000 A 
ATOM      7  C   UNL     1     113.068 127.918 138.582  0.00  0.00    +0.000 A 
ATOM      8  C   UNL     1     112.861 127.810 139.373  0.00  0.00    +0.000 A 
ATOM      9  C   UNL     1     112.804 127.049 139.684  0.00  0.00    +0.000 A 
ATOM     10  C   UNL     1     112.707 128.500 139.862  0.00  0.00    +0.000 A 
ATOM     11  C   UNL     1     112.588 126.923 140.506  0.00  0.00    +0.000 A 
ATOM     12  C   UNL     1     112.490 128.395 140.687  0.00  0.00    +0.000 A 
ATOM     13  C   UNL     1     112.431 127.601 141.011  0.00  0.00    +0.000 A 
ENDROOT
BRANCH   6  16
ATOM     14  O   UNL     1     115.019 124.768 137.105  0.00  0.00    +0.000 OA
ATOM     15  O   UNL     1     113.765 123.887 136.493  0.00  0.00    +0.000 OA
ATOM     16  C   UNL     1     113.311 125.848 137.934  0.00  0.00    +0.000 A 
ATOM     17  C   UNL     1     112.685 125.407 137.628  0.00  0.00    +0.000 A 
ATOM     18  C   UNL     1     114.090 125.635 137.759  0.00  0.00    +0.000 A 
ATOM     19  C   UNL     1     112.836 124.753 137.148  0.00  0.00    +0.000 A 
ATOM     20  C   UNL     1     114.240 124.981 137.279  0.00  0.00    +0.000 A 
ATOM     21  C   UNL     1     113.613 124.540 136.973  0.00  0.00    +0.000 A 
BRANCH  19  22
ATOM     22  O   UNL     1     112.210 124.312 136.842  0.00  0.00    +0.000 OA
ATOM     23  C   UNL     1     111.556 124.140 137.316  0.00  0.00    +0.000 C 
ENDBRANCH  19  22
ENDBRANCH   6  16
BRANCH   5  24
ATOM     24  O   UNL     1     113.426 127.371 137.310  0.00  0.00    +0.000 OA
BRANCH  24  33
ATOM     25  O   UNL     1     112.105 127.739 136.909  0.00  0.00    +0.000 OA
ATOM     26  O   UNL     1     111.410 129.023 135.285  0.00  0.00    +0.000 OA
ATOM     27  O   UNL     1     113.044 129.112 135.076  0.00  0.00    +0.000 OA
ATOM     28  O   UNL     1     114.052 128.286 136.088  0.00  0.00    +0.000 OA
ATOM     29  C   UNL     1     111.914 128.609 135.792  0.00  0.00    +0.000 C 
ATOM     30  C   UNL     1     112.731 128.655 135.687  0.00  0.00    +0.000 C 
ATOM     31  C   UNL     1     111.601 128.152 136.403  0.00  0.00    +0.000 C 
ATOM     32  C   UNL     1     113.236 128.241 136.194  0.00  0.00    +0.000 C 
ATOM     33  C   UNL     1     112.922 127.784 136.805  0.00  0.00    +0.000 C 
BRANCH  31  34
ATOM     34  C   UNL     1     110.784 128.108 136.507  0.00  0.00    +0.000 C 
BRANCH  34  35
ATOM     35  O   UNL     1     110.424 127.379 136.646  0.00  0.00    +0.000 OA
BRANCH  35  37
ATOM     36  O   UNL     1     109.376 127.732 137.550  0.00  0.00    +0.000 OA
ATOM     37  C   UNL     1     109.630 127.345 136.867  0.00  0.00    +0.000 C 
ATOM     38  C   UNL     1     109.090 126.926 136.407  0.00  0.00    +0.000 C 
ENDBRANCH  35  37
ENDBRANCH  34  35
ENDBRANCH  31  34
ENDBRANCH  24  33
ENDBRANCH   5  24
TORSDOF 7
ENDMDL
MODEL 10
REMARK VINA RESULT:      -8.6      1.611      3.390
REMARK  Name = 44259481
REMARK  7 active torsions:
REMARK  status: ('A' for Active; 'I' for Inactive)
REMARK    1  A    between atoms: O_2  and  C_19
REMARK    2  A    between atoms: O_2  and  C_21
REMARK    3  A    between atoms: O_6  and  C_20
REMARK    4  A    between atoms: O_6  and  C_26
REMARK    5  A    between atoms: O_11  and  C_35
REMARK    6  A    between atoms: C_17  and  C_20
REMARK    7  A    between atoms: C_22  and  C_25
REMARK                            x       y       z     vdW  Elec       q    Type
REMARK                         _______ _______ _______ _____ _____    ______ ____
ROOT
ATOM      1  O   UNL     1     113.024 127.372 136.185  0.00  0.00    +0.000 OA
ATOM      2  O   UNL     1     111.260 128.717 135.086  0.00  0.00    +0.000 OA
ATOM      3  O   UNL     1     112.238 129.668 134.615  0.00  0.00    +0.000 OA
ATOM      4  O   UNL     1     115.054 129.249 135.268  0.00  0.00    +0.000 OA
ATOM      5  C   UNL     1     111.647 127.582 135.862  0.00  0.00    +0.000 A 
ATOM      6  C   UNL     1     112.236 127.133 136.229  0.00  0.00    +0.000 A 
ATOM      7  C   UNL     1     111.848 128.269 135.453  0.00  0.00    +0.000 A 
ATOM      8  C   UNL     1     112.637 128.508 135.409  0.00  0.00    +0.000 A 
ATOM      9  C   UNL     1     113.224 128.060 135.775  0.00  0.00    +0.000 A 
ATOM     10  C   UNL     1     112.833 129.225 134.978  0.00  0.00    +0.000 A 
ATOM     11  C   UNL     1     114.049 128.297 135.737  0.00  0.00    +0.000 A 
ATOM     12  C   UNL     1     113.652 129.480 134.929  0.00  0.00    +0.000 A 
ATOM     13  C   UNL     1     114.265 129.012 135.311  0.00  0.00    +0.000 A 
ENDROOT
BRANCH   6  16
ATOM     14  O   UNL     1     111.482 124.377 136.217  0.00  0.00    +0.000 OA
ATOM     15  O   UNL     1     111.431 124.384 137.867  0.00  0.00    +0.000 OA
ATOM     16  C   UNL     1     112.035 126.446 136.639  0.00  0.00    +0.000 A 
ATOM     17  C   UNL     1     112.009 126.450 137.463  0.00  0.00    +0.000 A 
ATOM     18  C   UNL     1     111.859 125.755 136.223  0.00  0.00    +0.000 A 
ATOM     19  C   UNL     1     111.808 125.762 137.872  0.00  0.00    +0.000 A 
ATOM     20  C   UNL     1     111.658 125.068 136.633  0.00  0.00    +0.000 A 
ATOM     21  C   UNL     1     111.632 125.072 137.458  0.00  0.00    +0.000 A 
BRANCH  19  22
ATOM     22  O   UNL     1     111.782 125.766 138.697  0.00  0.00    +0.000 OA
ATOM     23  C   UNL     1     112.283 126.264 139.124  0.00  0.00    +0.000 C 
ENDBRANCH  19  22
ENDBRANCH   6  16
BRANCH   5  24
ATOM     24  O   UNL     1     110.859 127.343 135.906  0.00  0.00    +0.000 OA
BRANCH  24  33
ATOM     25  O   UNL     1     110.472 128.371 136.821  0.00  0.00    +0.000 OA
ATOM     26  O   UNL     1     108.571 129.412 137.080  0.00  0.00    +0.000 OA
ATOM     27  O   UNL     1     108.201 128.390 135.838  0.00  0.00    +0.000 OA
ATOM     28  O   UNL     1     109.345 127.356 135.251  0.00  0.00    +0.000 OA
ATOM     29  C   UNL     1     109.144 128.894 136.786  0.00  0.00    +0.000 C 
ATOM     30  C   UNL     1     108.958 128.384 136.165  0.00  0.00    +0.000 C 
ATOM     31  C   UNL     1     109.901 128.888 137.114  0.00  0.00    +0.000 C 
ATOM     32  C   UNL     1     109.530 127.866 135.872  0.00  0.00    +0.000 C 
ATOM     33  C   UNL     1     110.287 127.860 136.200  0.00  0.00    +0.000 C 
BRANCH  31  34
ATOM     34  C   UNL     1     110.085 129.399 137.735  0.00  0.00    +0.000 C 
BRANCH  34  35
ATOM     35  O   UNL     1     110.490 129.117 138.395  0.00  0.00    +0.000 OA
BRANCH  35  37
ATOM     36  O   UNL     1     110.366 129.784 139.652  0.00  0.00    +0.000 OA
ATOM     37  C   UNL     1     110.786 129.645 138.956  0.00  0.00    +0.000 C 
ATOM     38  C   UNL     1     111.500 130.034 138.821  0.00  0.00    +0.000 C 
ENDBRANCH  35  37
ENDBRANCH  34  35
ENDBRANCH  31  34
ENDBRANCH  24  33
ENDBRANCH   5  24
TORSDOF 7
ENDMDL
