MODEL 1
REMARK VINA RESULT:      -9.2      0.000      0.000
REMARK  Name = 12137511
REMARK  5 active torsions:
REMARK  status: ('A' for Active; 'I' for Inactive)
REMARK    1  A    between atoms: O_2  and  C_15
REMARK    2  A    between atoms: O_2  and  C_17
REMARK    3  A    between atoms: O_8  and  C_29
REMARK    4  A    between atoms: O_9  and  C_30
REMARK    5  A    between atoms: C_18  and  C_21
REMARK                            x       y       z     vdW  Elec       q    Type
REMARK                         _______ _______ _______ _____ _____    ______ ____
ROOT
ATOM      1  O   UNL     1     105.450 124.533 147.969  0.00  0.00    +0.000 OA
ATOM      2  O   UNL     1     107.900 125.802 147.116  0.00  0.00    +0.000 OA
ATOM      3  O   UNL     1     107.891 124.122 149.503  0.00  0.00    +0.000 OA
ATOM      4  C   UNL     1     105.460 125.356 146.801  0.00  0.00    +0.000 A 
ATOM      5  C   UNL     1     105.052 124.872 147.331  0.00  0.00    +0.000 A 
ATOM      6  C   UNL     1     106.265 125.500 146.910  0.00  0.00    +0.000 A 
ATOM      7  C   UNL     1     106.662 125.160 147.548  0.00  0.00    +0.000 A 
ATOM      8  C   UNL     1     106.254 124.676 148.077  0.00  0.00    +0.000 A 
ATOM      9  C   UNL     1     107.501 125.317 147.650  0.00  0.00    +0.000 A 
ATOM     10  C   UNL     1     106.658 124.317 148.746  0.00  0.00    +0.000 A 
ATOM     11  C   UNL     1     107.920 124.966 148.313  0.00  0.00    +0.000 A 
ATOM     12  C   UNL     1     107.496 124.463 148.864  0.00  0.00    +0.000 A 
ENDROOT
BRANCH   5  14
ATOM     13  O   UNL     1     101.832 124.297 146.895  0.00  0.00    +0.000 OA
ATOM     14  C   UNL     1     104.248 124.729 147.222  0.00  0.00    +0.000 A 
ATOM     15  C   UNL     1     104.001 124.072 146.788  0.00  0.00    +0.000 A 
ATOM     16  C   UNL     1     103.689 125.241 147.548  0.00  0.00    +0.000 A 
ATOM     17  C   UNL     1     102.884 125.098 147.439  0.00  0.00    +0.000 A 
ATOM     18  C   UNL     1     103.195 123.928 146.679  0.00  0.00    +0.000 A 
ATOM     19  C   UNL     1     102.637 124.441 147.004  0.00  0.00    +0.000 A 
BRANCH  17  20
ATOM     20  O   UNL     1     102.325 125.610 147.764  0.00  0.00    +0.000 OA
ATOM     21  C   UNL     1     102.424 125.897 148.531  0.00  0.00    +0.000 C 
ENDBRANCH  17  20
BRANCH  18  22
ATOM     22  O   UNL     1     102.948 123.272 146.244  0.00  0.00    +0.000 OA
ATOM     23  C   UNL     1     103.506 122.790 145.873  0.00  0.00    +0.000 C 
ENDBRANCH  18  22
ENDBRANCH   5  14
BRANCH   4  24
ATOM     24  O   UNL     1     105.063 125.696 146.163  0.00  0.00    +0.000 OA
BRANCH  24  32
ATOM     25  O   UNL     1     105.828 125.178 145.073  0.00  0.00    +0.000 OA
ATOM     26  O   UNL     1     105.890 127.430 144.047  0.00  0.00    +0.000 OA
ATOM     27  O   UNL     1     105.104 127.197 145.479  0.00  0.00    +0.000 OA
ATOM     28  O   UNL     1     106.634 126.161 143.299  0.00  0.00    +0.000 OA
ATOM     29  C   UNL     1     105.869 126.679 144.389  0.00  0.00    +0.000 C 
ATOM     30  C   UNL     1     105.476 126.562 145.105  0.00  0.00    +0.000 C 
ATOM     31  C   UNL     1     106.242 126.045 144.015  0.00  0.00    +0.000 C 
ATOM     32  C   UNL     1     105.456 125.812 145.447  0.00  0.00    +0.000 C 
ATOM     33  C   UNL     1     106.221 125.294 144.357  0.00  0.00    +0.000 C 
ENDBRANCH  24  32
ENDBRANCH   4  24
TORSDOF 5
ENDMDL
MODEL 2
REMARK VINA RESULT:      -8.8     11.561     13.215
REMARK  Name = 12137511
REMARK  5 active torsions:
REMARK  status: ('A' for Active; 'I' for Inactive)
REMARK    1  A    between atoms: O_2  and  C_15
REMARK    2  A    between atoms: O_2  and  C_17
REMARK    3  A    between atoms: O_8  and  C_29
REMARK    4  A    between atoms: O_9  and  C_30
REMARK    5  A    between atoms: C_18  and  C_21
REMARK                            x       y       z     vdW  Elec       q    Type
REMARK                         _______ _______ _______ _____ _____    ______ ____
ROOT
ATOM      1  O   UNL     1     112.816 126.762 136.609  0.00  0.00    +0.000 OA
ATOM      2  O   UNL     1     110.481 125.475 135.499  0.00  0.00    +0.000 OA
ATOM      3  O   UNL     1     112.635 123.856 136.623  0.00  0.00    +0.000 OA
ATOM      4  C   UNL     1     111.760 127.550 136.058  0.00  0.00    +0.000 A 
ATOM      5  C   UNL     1     112.497 127.501 136.425  0.00  0.00    +0.000 A 
ATOM      6  C   UNL     1     111.342 126.862 135.876  0.00  0.00    +0.000 A 
ATOM      7  C   UNL     1     111.662 126.125 136.060  0.00  0.00    +0.000 A 
ATOM      8  C   UNL     1     112.399 126.075 136.427  0.00  0.00    +0.000 A 
ATOM      9  C   UNL     1     111.218 125.415 135.866  0.00  0.00    +0.000 A 
ATOM     10  C   UNL     1     112.743 125.312 136.625  0.00  0.00    +0.000 A 
ATOM     11  C   UNL     1     111.545 124.644 136.055  0.00  0.00    +0.000 A 
ATOM     12  C   UNL     1     112.313 124.592 136.437  0.00  0.00    +0.000 A 
ENDROOT
BRANCH   5  14
ATOM     13  O   UNL     1     114.166 130.252 137.154  0.00  0.00    +0.000 OA
ATOM     14  C   UNL     1     112.914 128.188 136.607  0.00  0.00    +0.000 A 
ATOM     15  C   UNL     1     112.850 128.522 137.358  0.00  0.00    +0.000 A 
ATOM     16  C   UNL     1     113.396 128.542 136.038  0.00  0.00    +0.000 A 
ATOM     17  C   UNL     1     113.813 129.230 136.220  0.00  0.00    +0.000 A 
ATOM     18  C   UNL     1     113.268 129.211 137.541  0.00  0.00    +0.000 A 
ATOM     19  C   UNL     1     113.749 129.564 136.972  0.00  0.00    +0.000 A 
BRANCH  17  20
ATOM     20  O   UNL     1     114.294 129.584 135.651  0.00  0.00    +0.000 OA
ATOM     21  C   UNL     1     114.651 129.124 135.068  0.00  0.00    +0.000 C 
ENDBRANCH  17  20
BRANCH  18  22
ATOM     22  O   UNL     1     113.204 129.545 138.293  0.00  0.00    +0.000 OA
ATOM     23  C   UNL     1     113.012 129.070 138.940  0.00  0.00    +0.000 C 
ENDBRANCH  18  22
ENDBRANCH   5  14
BRANCH   4  24
ATOM     24  O   UNL     1     111.440 128.288 135.873  0.00  0.00    +0.000 OA
BRANCH  24  32
ATOM     25  O   UNL     1     110.194 128.149 136.558  0.00  0.00    +0.000 OA
ATOM     26  O   UNL     1     109.034 129.251 134.669  0.00  0.00    +0.000 OA
ATOM     27  O   UNL     1     110.667 129.023 134.614  0.00  0.00    +0.000 OA
ATOM     28  O   UNL     1     108.173 128.745 135.983  0.00  0.00    +0.000 OA
ATOM     29  C   UNL     1     109.421 128.884 135.299  0.00  0.00    +0.000 C 
ATOM     30  C   UNL     1     110.237 128.769 135.272  0.00  0.00    +0.000 C 
ATOM     31  C   UNL     1     108.990 128.631 135.956  0.00  0.00    +0.000 C 
ATOM     32  C   UNL     1     110.623 128.402 135.901  0.00  0.00    +0.000 C 
ATOM     33  C   UNL     1     109.377 128.263 136.585  0.00  0.00    +0.000 C 
ENDBRANCH  24  32
ENDBRANCH   4  24
TORSDOF 5
ENDMDL
MODEL 3
REMARK VINA RESULT:      -8.8     11.567     13.181
REMARK  Name = 12137511
REMARK  5 active torsions:
REMARK  status: ('A' for Active; 'I' for Inactive)
REMARK    1  A    between atoms: O_2  and  C_15
REMARK    2  A    between atoms: O_2  and  C_17
REMARK    3  A    between atoms: O_8  and  C_29
REMARK    4  A    between atoms: O_9  and  C_30
REMARK    5  A    between atoms: C_18  and  C_21
REMARK                            x       y       z     vdW  Elec       q    Type
REMARK                         _______ _______ _______ _____ _____    ______ ____
ROOT
ATOM      1  O   UNL     1     112.843 126.765 136.611  0.00  0.00    +0.000 OA
ATOM      2  O   UNL     1     110.513 125.464 135.505  0.00  0.00    +0.000 OA
ATOM      3  O   UNL     1     112.677 123.858 136.629  0.00  0.00    +0.000 OA
ATOM      4  C   UNL     1     111.782 127.547 136.060  0.00  0.00    +0.000 A 
ATOM      5  C   UNL     1     112.520 127.501 136.426  0.00  0.00    +0.000 A 
ATOM      6  C   UNL     1     111.368 126.856 135.879  0.00  0.00    +0.000 A 
ATOM      7  C   UNL     1     111.692 126.121 136.064  0.00  0.00    +0.000 A 
ATOM      8  C   UNL     1     112.430 126.075 136.431  0.00  0.00    +0.000 A 
ATOM      9  C   UNL     1     111.251 125.409 135.871  0.00  0.00    +0.000 A 
ATOM     10  C   UNL     1     112.777 125.314 136.629  0.00  0.00    +0.000 A 
ATOM     11  C   UNL     1     111.583 124.640 136.062  0.00  0.00    +0.000 A 
ATOM     12  C   UNL     1     112.351 124.592 136.443  0.00  0.00    +0.000 A 
ENDROOT
BRANCH   5  14
ATOM     13  O   UNL     1     114.177 130.263 137.148  0.00  0.00    +0.000 OA
ATOM     14  C   UNL     1     112.934 128.191 136.606  0.00  0.00    +0.000 A 
ATOM     15  C   UNL     1     113.420 128.541 136.039  0.00  0.00    +0.000 A 
ATOM     16  C   UNL     1     112.862 128.532 137.354  0.00  0.00    +0.000 A 
ATOM     17  C   UNL     1     113.276 129.222 137.535  0.00  0.00    +0.000 A 
ATOM     18  C   UNL     1     113.835 129.232 136.220  0.00  0.00    +0.000 A 
ATOM     19  C   UNL     1     113.762 129.572 136.968  0.00  0.00    +0.000 A 
BRANCH  17  20
ATOM     20  O   UNL     1     113.204 129.563 138.283  0.00  0.00    +0.000 OA
ATOM     21  C   UNL     1     112.997 129.098 138.931  0.00  0.00    +0.000 C 
ENDBRANCH  17  20
BRANCH  18  22
ATOM     22  O   UNL     1     114.321 129.581 135.652  0.00  0.00    +0.000 OA
ATOM     23  C   UNL     1     114.611 129.131 135.025  0.00  0.00    +0.000 C 
ENDBRANCH  18  22
ENDBRANCH   5  14
BRANCH   4  24
ATOM     24  O   UNL     1     111.458 128.282 135.874  0.00  0.00    +0.000 OA
BRANCH  24  32
ATOM     25  O   UNL     1     110.212 128.136 136.558  0.00  0.00    +0.000 OA
ATOM     26  O   UNL     1     109.048 129.232 134.667  0.00  0.00    +0.000 OA
ATOM     27  O   UNL     1     110.683 129.013 134.614  0.00  0.00    +0.000 OA
ATOM     28  O   UNL     1     108.189 128.721 135.980  0.00  0.00    +0.000 OA
ATOM     29  C   UNL     1     109.436 128.867 135.298  0.00  0.00    +0.000 C 
ATOM     30  C   UNL     1     110.254 128.757 135.271  0.00  0.00    +0.000 C 
ATOM     31  C   UNL     1     109.006 128.612 135.954  0.00  0.00    +0.000 C 
ATOM     32  C   UNL     1     110.641 128.392 135.901  0.00  0.00    +0.000 C 
ATOM     33  C   UNL     1     109.394 128.246 136.584  0.00  0.00    +0.000 C 
ENDBRANCH  24  32
ENDBRANCH   4  24
TORSDOF 5
ENDMDL
MODEL 4
REMARK VINA RESULT:      -8.8     10.299     12.486
REMARK  Name = 12137511
REMARK  5 active torsions:
REMARK  status: ('A' for Active; 'I' for Inactive)
REMARK    1  A    between atoms: O_2  and  C_15
REMARK    2  A    between atoms: O_2  and  C_17
REMARK    3  A    between atoms: O_8  and  C_29
REMARK    4  A    between atoms: O_9  and  C_30
REMARK    5  A    between atoms: C_18  and  C_21
REMARK                            x       y       z     vdW  Elec       q    Type
REMARK                         _______ _______ _______ _____ _____    ______ ____
ROOT
ATOM      1  O   UNL     1     112.858 127.330 136.437  0.00  0.00    +0.000 OA
ATOM      2  O   UNL     1     112.037 129.620 134.880  0.00  0.00    +0.000 OA
ATOM      3  O   UNL     1     114.878 129.055 135.245  0.00  0.00    +0.000 OA
ATOM      4  C   UNL     1     111.469 127.610 136.256  0.00  0.00    +0.000 A 
ATOM      5  C   UNL     1     112.067 127.139 136.573  0.00  0.00    +0.000 A 
ATOM      6  C   UNL     1     111.662 128.272 135.802  0.00  0.00    +0.000 A 
ATOM      7  C   UNL     1     112.453 128.462 135.667  0.00  0.00    +0.000 A 
ATOM      8  C   UNL     1     113.051 127.991 135.984  0.00  0.00    +0.000 A 
ATOM      9  C   UNL     1     112.642 129.154 135.193  0.00  0.00    +0.000 A 
ATOM     10  C   UNL     1     113.879 128.179 135.850  0.00  0.00    +0.000 A 
ATOM     11  C   UNL     1     113.464 129.357 135.048  0.00  0.00    +0.000 A 
ATOM     12  C   UNL     1     114.086 128.867 135.379  0.00  0.00    +0.000 A 
ENDROOT
BRANCH   5  14
ATOM     13  O   UNL     1     111.294 124.491 138.386  0.00  0.00    +0.000 OA
ATOM     14  C   UNL     1     111.874 126.477 137.026  0.00  0.00    +0.000 A 
ATOM     15  C   UNL     1     111.713 125.757 136.657  0.00  0.00    +0.000 A 
ATOM     16  C   UNL     1     111.842 126.535 137.849  0.00  0.00    +0.000 A 
ATOM     17  C   UNL     1     111.648 125.874 138.302  0.00  0.00    +0.000 A 
ATOM     18  C   UNL     1     111.519 125.095 137.110  0.00  0.00    +0.000 A 
ATOM     19  C   UNL     1     111.487 125.154 137.933  0.00  0.00    +0.000 A 
BRANCH  17  20
ATOM     20  O   UNL     1     111.616 125.931 139.124  0.00  0.00    +0.000 OA
ATOM     21  C   UNL     1     112.091 126.477 139.519  0.00  0.00    +0.000 C 
ENDBRANCH  17  20
BRANCH  18  22
ATOM     22  O   UNL     1     111.358 124.375 136.741  0.00  0.00    +0.000 OA
ATOM     23  C   UNL     1     111.854 124.099 136.142  0.00  0.00    +0.000 C 
ENDBRANCH  18  22
ENDBRANCH   5  14
BRANCH   4  24
ATOM     24  O   UNL     1     110.678 127.420 136.391  0.00  0.00    +0.000 OA
BRANCH  24  32
ATOM     25  O   UNL     1     110.265 128.635 137.020  0.00  0.00    +0.000 OA
ATOM     26  O   UNL     1     108.158 128.589 135.721  0.00  0.00    +0.000 OA
ATOM     27  O   UNL     1     109.273 127.390 135.526  0.00  0.00    +0.000 OA
ATOM     28  O   UNL     1     108.446 129.820 136.782  0.00  0.00    +0.000 OA
ATOM     29  C   UNL     1     108.860 128.604 136.154  0.00  0.00    +0.000 C 
ATOM     30  C   UNL     1     109.418 128.005 136.057  0.00  0.00    +0.000 C 
ATOM     31  C   UNL     1     109.004 129.220 136.685  0.00  0.00    +0.000 C 
ATOM     32  C   UNL     1     110.120 128.020 136.489  0.00  0.00    +0.000 C 
ATOM     33  C   UNL     1     109.707 129.235 137.118  0.00  0.00    +0.000 C 
ENDBRANCH  24  32
ENDBRANCH   4  24
TORSDOF 5
ENDMDL
MODEL 5
REMARK VINA RESULT:      -8.7      9.619     12.514
REMARK  Name = 12137511
REMARK  5 active torsions:
REMARK  status: ('A' for Active; 'I' for Inactive)
REMARK    1  A    between atoms: O_2  and  C_15
REMARK    2  A    between atoms: O_2  and  C_17
REMARK    3  A    between atoms: O_8  and  C_29
REMARK    4  A    between atoms: O_9  and  C_30
REMARK    5  A    between atoms: C_18  and  C_21
REMARK                            x       y       z     vdW  Elec       q    Type
REMARK                         _______ _______ _______ _____ _____    ______ ____
ROOT
ATOM      1  O   UNL     1     113.091 127.295 136.235  0.00  0.00    +0.000 OA
ATOM      2  O   UNL     1     113.236 129.514 138.079  0.00  0.00    +0.000 OA
ATOM      3  O   UNL     1     114.310 129.798 135.379  0.00  0.00    +0.000 OA
ATOM      4  C   UNL     1     112.567 127.162 137.557  0.00  0.00    +0.000 A 
ATOM      5  C   UNL     1     112.718 126.840 136.813  0.00  0.00    +0.000 A 
ATOM      6  C   UNL     1     112.790 127.939 137.724  0.00  0.00    +0.000 A 
ATOM      7  C   UNL     1     113.163 128.393 137.146  0.00  0.00    +0.000 A 
ATOM      8  C   UNL     1     113.314 128.072 136.401  0.00  0.00    +0.000 A 
ATOM      9  C   UNL     1     113.390 129.201 137.332  0.00  0.00    +0.000 A 
ATOM     10  C   UNL     1     113.702 128.536 135.791  0.00  0.00    +0.000 A 
ATOM     11  C   UNL     1     113.780 129.680 136.734  0.00  0.00    +0.000 A 
ATOM     12  C   UNL     1     113.937 129.345 135.958  0.00  0.00    +0.000 A 
ENDROOT
BRANCH   5  14
ATOM     13  O   UNL     1     111.825 123.733 136.147  0.00  0.00    +0.000 OA
ATOM     14  C   UNL     1     112.495 126.064 136.647  0.00  0.00    +0.000 A 
ATOM     15  C   UNL     1     111.739 125.905 136.358  0.00  0.00    +0.000 A 
ATOM     16  C   UNL     1     113.028 125.446 136.769  0.00  0.00    +0.000 A 
ATOM     17  C   UNL     1     112.805 124.669 136.603  0.00  0.00    +0.000 A 
ATOM     18  C   UNL     1     111.515 125.127 136.191  0.00  0.00    +0.000 A 
ATOM     19  C   UNL     1     112.049 124.510 136.314  0.00  0.00    +0.000 A 
BRANCH  17  20
ATOM     20  O   UNL     1     113.338 124.051 136.725  0.00  0.00    +0.000 OA
ATOM     21  C   UNL     1     114.126 124.215 136.901  0.00  0.00    +0.000 C 
ENDBRANCH  17  20
BRANCH  18  22
ATOM     22  O   UNL     1     110.759 124.968 135.902  0.00  0.00    +0.000 OA
ATOM     23  C   UNL     1     110.408 125.483 135.361  0.00  0.00    +0.000 C 
ENDBRANCH  18  22
ENDBRANCH   5  14
BRANCH   4  24
ATOM     24  O   UNL     1     112.193 126.707 138.136  0.00  0.00    +0.000 OA
BRANCH  24  32
ATOM     25  O   UNL     1     113.214 126.755 139.134  0.00  0.00    +0.000 OA
ATOM     26  O   UNL     1     111.488 127.055 140.883  0.00  0.00    +0.000 OA
ATOM     27  O   UNL     1     111.043 126.907 139.302  0.00  0.00    +0.000 OA
ATOM     28  O   UNL     1     113.084 127.002 141.300  0.00  0.00    +0.000 OA
ATOM     29  C   UNL     1     112.064 126.955 140.300  0.00  0.00    +0.000 C 
ATOM     30  C   UNL     1     111.841 126.881 139.509  0.00  0.00    +0.000 C 
ATOM     31  C   UNL     1     112.861 126.929 140.509  0.00  0.00    +0.000 C 
ATOM     32  C   UNL     1     112.416 126.781 138.927  0.00  0.00    +0.000 C 
ATOM     33  C   UNL     1     113.437 126.828 139.925  0.00  0.00    +0.000 C 
ENDBRANCH  24  32
ENDBRANCH   4  24
TORSDOF 5
ENDMDL
MODEL 6
REMARK VINA RESULT:      -8.7      9.603     12.483
REMARK  Name = 12137511
REMARK  5 active torsions:
REMARK  status: ('A' for Active; 'I' for Inactive)
REMARK    1  A    between atoms: O_2  and  C_15
REMARK    2  A    between atoms: O_2  and  C_17
REMARK    3  A    between atoms: O_8  and  C_29
REMARK    4  A    between atoms: O_9  and  C_30
REMARK    5  A    between atoms: C_18  and  C_21
REMARK                            x       y       z     vdW  Elec       q    Type
REMARK                         _______ _______ _______ _____ _____    ______ ____
ROOT
ATOM      1  O   UNL     1     113.085 127.301 136.255  0.00  0.00    +0.000 OA
ATOM      2  O   UNL     1     113.223 129.513 138.107  0.00  0.00    +0.000 OA
ATOM      3  O   UNL     1     114.287 129.813 135.404  0.00  0.00    +0.000 OA
ATOM      4  C   UNL     1     112.566 127.158 137.578  0.00  0.00    +0.000 A 
ATOM      5  C   UNL     1     112.716 126.841 136.832  0.00  0.00    +0.000 A 
ATOM      6  C   UNL     1     112.785 127.936 137.748  0.00  0.00    +0.000 A 
ATOM      7  C   UNL     1     113.154 128.395 137.170  0.00  0.00    +0.000 A 
ATOM      8  C   UNL     1     113.304 128.077 136.424  0.00  0.00    +0.000 A 
ATOM      9  C   UNL     1     113.377 129.204 137.358  0.00  0.00    +0.000 A 
ATOM     10  C   UNL     1     113.688 128.546 135.814  0.00  0.00    +0.000 A 
ATOM     11  C   UNL     1     113.761 129.687 136.761  0.00  0.00    +0.000 A 
ATOM     12  C   UNL     1     113.918 129.356 135.984  0.00  0.00    +0.000 A 
ENDROOT
BRANCH   5  14
ATOM     13  O   UNL     1     111.842 123.731 136.157  0.00  0.00    +0.000 OA
ATOM     14  C   UNL     1     112.498 126.064 136.663  0.00  0.00    +0.000 A 
ATOM     15  C   UNL     1     113.034 125.449 136.785  0.00  0.00    +0.000 A 
ATOM     16  C   UNL     1     111.743 125.901 136.373  0.00  0.00    +0.000 A 
ATOM     17  C   UNL     1     111.524 125.124 136.204  0.00  0.00    +0.000 A 
ATOM     18  C   UNL     1     112.815 124.671 136.617  0.00  0.00    +0.000 A 
ATOM     19  C   UNL     1     112.060 124.509 136.326  0.00  0.00    +0.000 A 
BRANCH  17  20
ATOM     20  O   UNL     1     110.769 124.961 135.913  0.00  0.00    +0.000 OA
ATOM     21  C   UNL     1     110.418 125.470 135.368  0.00  0.00    +0.000 C 
ENDBRANCH  17  20
BRANCH  18  22
ATOM     22  O   UNL     1     113.351 124.056 136.739  0.00  0.00    +0.000 OA
ATOM     23  C   UNL     1     114.141 124.225 136.911  0.00  0.00    +0.000 C 
ENDBRANCH  18  22
ENDBRANCH   5  14
BRANCH   4  24
ATOM     24  O   UNL     1     112.197 126.700 138.156  0.00  0.00    +0.000 OA
BRANCH  24  32
ATOM     25  O   UNL     1     113.219 126.757 139.153  0.00  0.00    +0.000 OA
ATOM     26  O   UNL     1     111.491 127.029 140.906  0.00  0.00    +0.000 OA
ATOM     27  O   UNL     1     111.046 126.880 139.324  0.00  0.00    +0.000 OA
ATOM     28  O   UNL     1     113.088 126.996 141.320  0.00  0.00    +0.000 OA
ATOM     29  C   UNL     1     112.067 126.938 140.321  0.00  0.00    +0.000 C 
ATOM     30  C   UNL     1     111.844 126.864 139.530  0.00  0.00    +0.000 C 
ATOM     31  C   UNL     1     112.865 126.922 140.529  0.00  0.00    +0.000 C 
ATOM     32  C   UNL     1     112.420 126.774 138.947  0.00  0.00    +0.000 C 
ATOM     33  C   UNL     1     113.441 126.832 139.944  0.00  0.00    +0.000 C 
ENDBRANCH  24  32
ENDBRANCH   4  24
TORSDOF 5
ENDMDL
MODEL 7
REMARK VINA RESULT:      -8.7     11.010     13.323
REMARK  Name = 12137511
REMARK  5 active torsions:
REMARK  status: ('A' for Active; 'I' for Inactive)
REMARK    1  A    between atoms: O_2  and  C_15
REMARK    2  A    between atoms: O_2  and  C_17
REMARK    3  A    between atoms: O_8  and  C_29
REMARK    4  A    between atoms: O_9  and  C_30
REMARK    5  A    between atoms: C_18  and  C_21
REMARK                            x       y       z     vdW  Elec       q    Type
REMARK                         _______ _______ _______ _____ _____    ______ ____
ROOT
ATOM      1  O   UNL     1     111.807 126.138 136.191  0.00  0.00    +0.000 OA
ATOM      2  O   UNL     1     110.733 128.306 134.612  0.00  0.00    +0.000 OA
ATOM      3  O   UNL     1     109.351 125.735 134.679  0.00  0.00    +0.000 OA
ATOM      4  C   UNL     1     112.480 127.398 136.155  0.00  0.00    +0.000 A 
ATOM      5  C   UNL     1     112.433 126.620 136.427  0.00  0.00    +0.000 A 
ATOM      6  C   UNL     1     111.900 127.692 135.646  0.00  0.00    +0.000 A 
ATOM      7  C   UNL     1     111.275 127.209 135.410  0.00  0.00    +0.000 A 
ATOM      8  C   UNL     1     111.228 126.432 135.682  0.00  0.00    +0.000 A 
ATOM      9  C   UNL     1     110.678 127.527 134.879  0.00  0.00    +0.000 A 
ATOM     10  C   UNL     1     110.581 125.919 135.443  0.00  0.00    +0.000 A 
ATOM     11  C   UNL     1     110.024 127.029 134.630  0.00  0.00    +0.000 A 
ATOM     12  C   UNL     1     109.975 126.220 134.914  0.00  0.00    +0.000 A 
ENDROOT
BRANCH   5  14
ATOM     13  O   UNL     1     114.750 125.443 138.462  0.00  0.00    +0.000 OA
ATOM     14  C   UNL     1     113.012 126.326 136.935  0.00  0.00    +0.000 A 
ATOM     15  C   UNL     1     113.694 125.980 136.627  0.00  0.00    +0.000 A 
ATOM     16  C   UNL     1     112.909 126.378 137.753  0.00  0.00    +0.000 A 
ATOM     17  C   UNL     1     113.488 126.084 138.261  0.00  0.00    +0.000 A 
ATOM     18  C   UNL     1     114.274 125.686 137.136  0.00  0.00    +0.000 A 
ATOM     19  C   UNL     1     114.170 125.738 137.953  0.00  0.00    +0.000 A 
BRANCH  17  20
ATOM     20  O   UNL     1     113.385 126.136 139.078  0.00  0.00    +0.000 OA
ATOM     21  C   UNL     1     112.642 126.308 139.391  0.00  0.00    +0.000 C 
ENDBRANCH  17  20
BRANCH  18  22
ATOM     22  O   UNL     1     114.956 125.339 136.828  0.00  0.00    +0.000 OA
ATOM     23  C   UNL     1     114.938 124.987 136.082  0.00  0.00    +0.000 C 
ENDBRANCH  18  22
ENDBRANCH   5  14
BRANCH   4  24
ATOM     24  O   UNL     1     113.105 127.881 136.391  0.00  0.00    +0.000 OA
BRANCH  24  32
ATOM     25  O   UNL     1     112.346 128.929 136.996  0.00  0.00    +0.000 OA
ATOM     26  O   UNL     1     113.860 130.608 135.985  0.00  0.00    +0.000 OA
ATOM     27  O   UNL     1     114.114 129.000 135.717  0.00  0.00    +0.000 OA
ATOM     28  O   UNL     1     112.597 131.097 136.927  0.00  0.00    +0.000 OA
ATOM     29  C   UNL     1     113.355 130.048 136.322  0.00  0.00    +0.000 C 
ATOM     30  C   UNL     1     113.482 129.244 136.188  0.00  0.00    +0.000 C 
ATOM     31  C   UNL     1     112.724 130.293 136.793  0.00  0.00    +0.000 C 
ATOM     32  C   UNL     1     112.978 128.685 136.525  0.00  0.00    +0.000 C 
ATOM     33  C   UNL     1     112.219 129.733 137.130  0.00  0.00    +0.000 C 
ENDBRANCH  24  32
ENDBRANCH   4  24
TORSDOF 5
ENDMDL
