MODEL 1
REMARK VINA RESULT:      -8.9      0.000      0.000
REMARK  Name = 44257565
REMARK  4 active torsions:
REMARK  status: ('A' for Active; 'I' for Inactive)
REMARK    1  A    between atoms: O_2  and  C_14
REMARK    2  A    between atoms: O_2  and  C_16
REMARK    3  A    between atoms: C_13  and  C_15
REMARK    4  A    between atoms: C_23  and  C_25
REMARK                            x       y       z     vdW  Elec       q    Type
REMARK                         _______ _______ _______ _____ _____    ______ ____
ROOT
ATOM      1  O   UNL     1     113.020 127.715 137.586  0.00  0.00    +0.000 OA
ATOM      2  O   UNL     1     114.157 129.182 135.229  0.00  0.00    +0.000 OA
ATOM      3  C   UNL     1     112.489 130.271 138.311  0.00  0.00    +0.000 A 
ATOM      4  C   UNL     1     112.536 129.231 138.341  0.00  0.00    +0.000 A 
ATOM      5  C   UNL     1     112.884 130.780 137.493  0.00  0.00    +0.000 A 
ATOM      6  C   UNL     1     112.978 128.714 137.551  0.00  0.00    +0.000 A 
ATOM      7  C   UNL     1     113.357 129.203 136.766  0.00  0.00    +0.000 A 
ATOM      8  C   UNL     1     113.321 130.243 136.715  0.00  0.00    +0.000 A 
ATOM      9  C   UNL     1     113.778 128.693 136.015  0.00  0.00    +0.000 A 
ATOM     10  C   UNL     1     113.441 127.205 136.836  0.00  0.00    +0.000 A 
ATOM     11  C   UNL     1     113.820 127.694 136.050  0.00  0.00    +0.000 A 
ENDROOT
BRANCH  10  13
ATOM     12  O   UNL     1     111.911 126.115 136.151  0.00  0.00    +0.000 OA
ATOM     13  C   UNL     1     113.483 126.207 136.872  0.00  0.00    +0.000 A 
ATOM     14  C   UNL     1     112.718 125.662 136.529  0.00  0.00    +0.000 A 
ATOM     15  C   UNL     1     114.290 125.754 137.250  0.00  0.00    +0.000 A 
ATOM     16  C   UNL     1     112.760 124.663 136.566  0.00  0.00    +0.000 A 
ATOM     17  C   UNL     1     114.332 124.755 137.286  0.00  0.00    +0.000 A 
ATOM     18  C   UNL     1     113.568 124.210 136.944  0.00  0.00    +0.000 A 
ENDBRANCH  10  13
BRANCH   3  19
ATOM     19  O   UNL     1     112.067 130.777 139.063  0.00  0.00    +0.000 OA
BRANCH  19  28
ATOM     20  O   UNL     1     110.517 130.742 138.293  0.00  0.00    +0.000 OA
ATOM     21  O   UNL     1     109.197 131.323 140.924  0.00  0.00    +0.000 OA
ATOM     22  O   UNL     1     108.086 131.094 139.277  0.00  0.00    +0.000 OA
ATOM     23  O   UNL     1     111.188 131.164 140.817  0.00  0.00    +0.000 OA
ATOM     24  C   UNL     1     109.637 131.129 140.047  0.00  0.00    +0.000 C 
ATOM     25  C   UNL     1     109.081 131.015 139.223  0.00  0.00    +0.000 C 
ATOM     26  C   UNL     1     110.632 131.050 139.994  0.00  0.00    +0.000 C 
ATOM     27  C   UNL     1     109.521 130.822 138.346  0.00  0.00    +0.000 C 
ATOM     28  C   UNL     1     111.072 130.856 139.117  0.00  0.00    +0.000 C 
BRANCH  27  30
ATOM     29  O   UNL     1     109.403 130.480 136.653  0.00  0.00    +0.000 OA
ATOM     30  C   UNL     1     108.966 130.707 137.523  0.00  0.00    +0.000 C 
ENDBRANCH  27  30
ENDBRANCH  19  28
ENDBRANCH   3  19
TORSDOF 4
ENDMDL
MODEL 2
REMARK VINA RESULT:      -8.7      3.005      3.866
REMARK  Name = 44257565
REMARK  4 active torsions:
REMARK  status: ('A' for Active; 'I' for Inactive)
REMARK    1  A    between atoms: O_2  and  C_14
REMARK    2  A    between atoms: O_2  and  C_16
REMARK    3  A    between atoms: C_13  and  C_15
REMARK    4  A    between atoms: C_23  and  C_25
REMARK                            x       y       z     vdW  Elec       q    Type
REMARK                         _______ _______ _______ _____ _____    ______ ____
ROOT
ATOM      1  O   UNL     1     111.875 126.599 137.734  0.00  0.00    +0.000 OA
ATOM      2  O   UNL     1     114.636 125.518 137.277  0.00  0.00    +0.000 OA
ATOM      3  C   UNL     1     112.961 127.009 140.181  0.00  0.00    +0.000 A 
ATOM      4  C   UNL     1     112.269 126.996 139.403  0.00  0.00    +0.000 A 
ATOM      5  C   UNL     1     113.920 126.633 140.023  0.00  0.00    +0.000 A 
ATOM      6  C   UNL     1     112.545 126.608 138.476  0.00  0.00    +0.000 A 
ATOM      7  C   UNL     1     113.465 126.248 138.324  0.00  0.00    +0.000 A 
ATOM      8  C   UNL     1     114.173 126.250 139.088  0.00  0.00    +0.000 A 
ATOM      9  C   UNL     1     113.715 125.878 137.430  0.00  0.00    +0.000 A 
ATOM     10  C   UNL     1     112.126 126.230 136.839  0.00  0.00    +0.000 A 
ATOM     11  C   UNL     1     113.046 125.869 136.687  0.00  0.00    +0.000 A 
ENDROOT
BRANCH  10  13
ATOM     12  O   UNL     1     111.825 127.875 135.742  0.00  0.00    +0.000 OA
ATOM     13  C   UNL     1     111.456 126.221 136.097  0.00  0.00    +0.000 A 
ATOM     14  C   UNL     1     111.305 127.043 135.548  0.00  0.00    +0.000 A 
ATOM     15  C   UNL     1     110.936 125.389 135.903  0.00  0.00    +0.000 A 
ATOM     16  C   UNL     1     110.635 127.034 134.806  0.00  0.00    +0.000 A 
ATOM     17  C   UNL     1     110.265 125.380 135.161  0.00  0.00    +0.000 A 
ATOM     18  C   UNL     1     110.115 126.202 134.612  0.00  0.00    +0.000 A 
ENDBRANCH  10  13
BRANCH   3  19
ATOM     19  O   UNL     1     112.707 127.379 141.075  0.00  0.00    +0.000 OA
BRANCH  19  28
ATOM     20  O   UNL     1     113.484 128.890 140.738  0.00  0.00    +0.000 OA
ATOM     21  O   UNL     1     111.849 130.208 142.880  0.00  0.00    +0.000 OA
ATOM     22  O   UNL     1     113.171 131.279 141.829  0.00  0.00    +0.000 OA
ATOM     23  O   UNL     1     111.617 128.258 142.503  0.00  0.00    +0.000 OA
ATOM     24  C   UNL     1     112.394 129.769 142.166  0.00  0.00    +0.000 C 
ATOM     25  C   UNL     1     113.055 130.304 141.641  0.00  0.00    +0.000 C 
ATOM     26  C   UNL     1     112.278 128.793 141.978  0.00  0.00    +0.000 C 
ATOM     27  C   UNL     1     113.600 129.865 140.927  0.00  0.00    +0.000 C 
ATOM     28  C   UNL     1     112.823 128.354 141.264  0.00  0.00    +0.000 C 
BRANCH  27  30
ATOM     29  O   UNL     1     114.349 130.258 139.415  0.00  0.00    +0.000 OA
ATOM     30  C   UNL     1     114.261 130.401 140.401  0.00  0.00    +0.000 C 
ENDBRANCH  27  30
ENDBRANCH  19  28
ENDBRANCH   3  19
TORSDOF 4
ENDMDL
MODEL 3
REMARK VINA RESULT:      -8.6      8.141     10.631
REMARK  Name = 44257565
REMARK  4 active torsions:
REMARK  status: ('A' for Active; 'I' for Inactive)
REMARK    1  A    between atoms: O_2  and  C_14
REMARK    2  A    between atoms: O_2  and  C_16
REMARK    3  A    between atoms: C_13  and  C_15
REMARK    4  A    between atoms: C_23  and  C_25
REMARK                            x       y       z     vdW  Elec       q    Type
REMARK                         _______ _______ _______ _____ _____    ______ ____
ROOT
ATOM      1  O   UNL     1     106.422 125.628 146.417  0.00  0.00    +0.000 OA
ATOM      2  O   UNL     1     106.107 128.571 146.906  0.00  0.00    +0.000 OA
ATOM      3  C   UNL     1     105.666 126.445 143.947  0.00  0.00    +0.000 A 
ATOM      4  C   UNL     1     105.960 125.823 144.729  0.00  0.00    +0.000 A 
ATOM      5  C   UNL     1     105.556 127.467 144.117  0.00  0.00    +0.000 A 
ATOM      6  C   UNL     1     106.140 126.231 145.670  0.00  0.00    +0.000 A 
ATOM      7  C   UNL     1     106.035 127.212 145.833  0.00  0.00    +0.000 A 
ATOM      8  C   UNL     1     105.742 127.853 145.066  0.00  0.00    +0.000 A 
ATOM      9  C   UNL     1     106.212 127.590 146.742  0.00  0.00    +0.000 A 
ATOM     10  C   UNL     1     106.599 126.006 147.326  0.00  0.00    +0.000 A 
ATOM     11  C   UNL     1     106.494 126.986 147.488  0.00  0.00    +0.000 A 
ENDROOT
BRANCH  10  13
ATOM     12  O   UNL     1     108.509 125.431 147.481  0.00  0.00    +0.000 OA
ATOM     13  C   UNL     1     106.881 125.402 148.071  0.00  0.00    +0.000 A 
ATOM     14  C   UNL     1     107.835 125.114 148.149  0.00  0.00    +0.000 A 
ATOM     15  C   UNL     1     106.208 125.085 148.739  0.00  0.00    +0.000 A 
ATOM     16  C   UNL     1     108.117 124.510 148.895  0.00  0.00    +0.000 A 
ATOM     17  C   UNL     1     106.489 124.481 149.485  0.00  0.00    +0.000 A 
ATOM     18  C   UNL     1     107.443 124.194 149.563  0.00  0.00    +0.000 A 
ENDBRANCH  10  13
BRANCH   3  19
ATOM     19  O   UNL     1     105.490 126.064 143.040  0.00  0.00    +0.000 OA
BRANCH  19  28
ATOM     20  O   UNL     1     107.020 126.517 142.366  0.00  0.00    +0.000 OA
ATOM     21  O   UNL     1     107.000 124.050 140.660  0.00  0.00    +0.000 OA
ATOM     22  O   UNL     1     108.537 125.326 140.556  0.00  0.00    +0.000 OA
ATOM     23  O   UNL     1     105.477 124.419 141.902  0.00  0.00    +0.000 OA
ATOM     24  C   UNL     1     107.007 124.873 141.229  0.00  0.00    +0.000 C 
ATOM     25  C   UNL     1     107.775 125.510 141.177  0.00  0.00    +0.000 C 
ATOM     26  C   UNL     1     106.245 125.057 141.850  0.00  0.00    +0.000 C 
ATOM     27  C   UNL     1     107.782 126.333 141.745  0.00  0.00    +0.000 C 
ATOM     28  C   UNL     1     106.252 125.880 142.419  0.00  0.00    +0.000 C 
BRANCH  27  30
ATOM     29  O   UNL     1     108.744 127.584 142.459  0.00  0.00    +0.000 OA
ATOM     30  C   UNL     1     108.550 126.971 141.693  0.00  0.00    +0.000 C 
ENDBRANCH  27  30
ENDBRANCH  19  28
ENDBRANCH   3  19
TORSDOF 4
ENDMDL
MODEL 4
REMARK VINA RESULT:      -8.6      7.288     10.342
REMARK  Name = 44257565
REMARK  4 active torsions:
REMARK  status: ('A' for Active; 'I' for Inactive)
REMARK    1  A    between atoms: O_2  and  C_14
REMARK    2  A    between atoms: O_2  and  C_16
REMARK    3  A    between atoms: C_13  and  C_15
REMARK    4  A    between atoms: C_23  and  C_25
REMARK                            x       y       z     vdW  Elec       q    Type
REMARK                         _______ _______ _______ _____ _____    ______ ____
ROOT
ATOM      1  O   UNL     1     104.569 128.181 142.356  0.00  0.00    +0.000 OA
ATOM      2  O   UNL     1     107.174 129.541 141.754  0.00  0.00    +0.000 OA
ATOM      3  C   UNL     1     106.307 126.299 143.236  0.00  0.00    +0.000 A 
ATOM      4  C   UNL     1     105.412 126.779 143.008  0.00  0.00    +0.000 A 
ATOM      5  C   UNL     1     107.212 126.771 143.027  0.00  0.00    +0.000 A 
ATOM      6  C   UNL     1     105.433 127.725 142.573  0.00  0.00    +0.000 A 
ATOM      7  C   UNL     1     106.301 128.179 142.372  0.00  0.00    +0.000 A 
ATOM      8  C   UNL     1     107.209 127.718 142.592  0.00  0.00    +0.000 A 
ATOM      9  C   UNL     1     106.306 129.087 141.955  0.00  0.00    +0.000 A 
ATOM     10  C   UNL     1     104.574 129.089 141.938  0.00  0.00    +0.000 A 
ATOM     11  C   UNL     1     105.442 129.543 141.737  0.00  0.00    +0.000 A 
ENDROOT
BRANCH  10  13
ATOM     12  O   UNL     1     103.570 128.593 140.281  0.00  0.00    +0.000 OA
ATOM     13  C   UNL     1     103.710 129.544 141.721  0.00  0.00    +0.000 A 
ATOM     14  C   UNL     1     103.208 129.296 140.893  0.00  0.00    +0.000 A 
ATOM     15  C   UNL     1     103.348 130.247 142.333  0.00  0.00    +0.000 A 
ATOM     16  C   UNL     1     102.344 129.751 140.677  0.00  0.00    +0.000 A 
ATOM     17  C   UNL     1     102.484 130.702 142.117  0.00  0.00    +0.000 A 
ATOM     18  C   UNL     1     101.982 130.454 141.289  0.00  0.00    +0.000 A 
ENDBRANCH  10  13
BRANCH   3  19
ATOM     19  O   UNL     1     106.299 125.390 143.654  0.00  0.00    +0.000 OA
BRANCH  19  28
ATOM     20  O   UNL     1     106.677 125.865 145.276  0.00  0.00    +0.000 OA
ATOM     21  O   UNL     1     104.704 123.863 146.323  0.00  0.00    +0.000 OA
ATOM     22  O   UNL     1     105.740 125.006 147.596  0.00  0.00    +0.000 OA
ATOM     23  O   UNL     1     104.984 124.055 144.352  0.00  0.00    +0.000 OA
ATOM     24  C   UNL     1     105.362 124.530 145.974  0.00  0.00    +0.000 C 
ATOM     25  C   UNL     1     105.880 125.102 146.610  0.00  0.00    +0.000 C 
ATOM     26  C   UNL     1     105.502 124.626 144.988  0.00  0.00    +0.000 C 
ATOM     27  C   UNL     1     106.537 125.769 146.261  0.00  0.00    +0.000 C 
ATOM     28  C   UNL     1     106.159 125.294 144.639  0.00  0.00    +0.000 C 
BRANCH  27  30
ATOM     29  O   UNL     1     107.628 127.083 146.550  0.00  0.00    +0.000 OA
ATOM     30  C   UNL     1     107.055 126.341 146.898  0.00  0.00    +0.000 C 
ENDBRANCH  27  30
ENDBRANCH  19  28
ENDBRANCH   3  19
TORSDOF 4
ENDMDL
MODEL 5
REMARK VINA RESULT:      -8.6      1.584      2.387
REMARK  Name = 44257565
REMARK  4 active torsions:
REMARK  status: ('A' for Active; 'I' for Inactive)
REMARK    1  A    between atoms: O_2  and  C_14
REMARK    2  A    between atoms: O_2  and  C_16
REMARK    3  A    between atoms: C_13  and  C_15
REMARK    4  A    between atoms: C_23  and  C_25
REMARK                            x       y       z     vdW  Elec       q    Type
REMARK                         _______ _______ _______ _____ _____    ______ ____
ROOT
ATOM      1  O   UNL     1     112.924 127.507 138.222  0.00  0.00    +0.000 OA
ATOM      2  O   UNL     1     113.935 127.189 141.028  0.00  0.00    +0.000 OA
ATOM      3  C   UNL     1     112.354 129.961 139.217  0.00  0.00    +0.000 A 
ATOM      4  C   UNL     1     112.429 129.165 138.550  0.00  0.00    +0.000 A 
ATOM      5  C   UNL     1     112.705 129.851 140.191  0.00  0.00    +0.000 A 
ATOM      6  C   UNL     1     112.855 128.268 138.867  0.00  0.00    +0.000 A 
ATOM      7  C   UNL     1     113.192 128.162 139.803  0.00  0.00    +0.000 A 
ATOM      8  C   UNL     1     113.127 128.945 140.486  0.00  0.00    +0.000 A 
ATOM      9  C   UNL     1     113.597 127.296 140.093  0.00  0.00    +0.000 A 
ATOM     10  C   UNL     1     113.330 126.640 138.512  0.00  0.00    +0.000 A 
ATOM     11  C   UNL     1     113.667 126.535 139.447  0.00  0.00    +0.000 A 
ENDROOT
BRANCH  10  13
ATOM     12  O   UNL     1     111.775 125.410 138.246  0.00  0.00    +0.000 OA
ATOM     13  C   UNL     1     113.398 125.880 137.866  0.00  0.00    +0.000 A 
ATOM     14  C   UNL     1     112.622 125.265 137.733  0.00  0.00    +0.000 A 
ATOM     15  C   UNL     1     114.245 125.735 137.354  0.00  0.00    +0.000 A 
ATOM     16  C   UNL     1     112.691 124.504 137.087  0.00  0.00    +0.000 A 
ATOM     17  C   UNL     1     114.314 124.974 136.708  0.00  0.00    +0.000 A 
ATOM     18  C   UNL     1     113.537 124.359 136.574  0.00  0.00    +0.000 A 
ENDBRANCH  10  13
BRANCH   3  19
ATOM     19  O   UNL     1     111.947 130.827 138.923  0.00  0.00    +0.000 OA
BRANCH  19  28
ATOM     20  O   UNL     1     110.396 130.349 139.528  0.00  0.00    +0.000 OA
ATOM     21  O   UNL     1     109.099 132.522 137.917  0.00  0.00    +0.000 OA
ATOM     22  O   UNL     1     107.980 131.320 139.058  0.00  0.00    +0.000 OA
ATOM     23  O   UNL     1     111.083 132.275 137.849  0.00  0.00    +0.000 OA
ATOM     24  C   UNL     1     109.532 131.798 138.454  0.00  0.00    +0.000 C 
ATOM     25  C   UNL     1     108.972 131.197 139.024  0.00  0.00    +0.000 C 
ATOM     26  C   UNL     1     110.523 131.674 138.420  0.00  0.00    +0.000 C 
ATOM     27  C   UNL     1     109.405 130.472 139.561  0.00  0.00    +0.000 C 
ATOM     28  C   UNL     1     110.956 130.950 138.957  0.00  0.00    +0.000 C 
BRANCH  27  30
ATOM     29  O   UNL     1     109.013 128.885 140.134  0.00  0.00    +0.000 OA
ATOM     30  C   UNL     1     108.845 129.871 140.132  0.00  0.00    +0.000 C 
ENDBRANCH  27  30
ENDBRANCH  19  28
ENDBRANCH   3  19
TORSDOF 4
ENDMDL
MODEL 6
REMARK VINA RESULT:      -8.4      2.432      3.086
REMARK  Name = 44257565
REMARK  4 active torsions:
REMARK  status: ('A' for Active; 'I' for Inactive)
REMARK    1  A    between atoms: O_2  and  C_14
REMARK    2  A    between atoms: O_2  and  C_16
REMARK    3  A    between atoms: C_13  and  C_15
REMARK    4  A    between atoms: C_23  and  C_25
REMARK                            x       y       z     vdW  Elec       q    Type
REMARK                         _______ _______ _______ _____ _____    ______ ____
ROOT
ATOM      1  O   UNL     1     113.017 126.885 138.364  0.00  0.00    +0.000 OA
ATOM      2  O   UNL     1     112.063 128.885 136.342  0.00  0.00    +0.000 OA
ATOM      3  C   UNL     1     113.491 129.188 139.708  0.00  0.00    +0.000 A 
ATOM      4  C   UNL     1     113.442 128.171 139.488  0.00  0.00    +0.000 A 
ATOM      5  C   UNL     1     113.160 129.883 139.007  0.00  0.00    +0.000 A 
ATOM      6  C   UNL     1     113.061 127.863 138.568  0.00  0.00    +0.000 A 
ATOM      7  C   UNL     1     112.743 128.529 137.895  0.00  0.00    +0.000 A 
ATOM      8  C   UNL     1     112.783 129.551 138.093  0.00  0.00    +0.000 A 
ATOM      9  C   UNL     1     112.381 128.218 137.016  0.00  0.00    +0.000 A 
ATOM     10  C   UNL     1     112.654 126.573 137.485  0.00  0.00    +0.000 A 
ATOM     11  C   UNL     1     112.336 127.240 136.811  0.00  0.00    +0.000 A 
ENDROOT
BRANCH  10  13
ATOM     12  O   UNL     1     111.016 125.526 137.953  0.00  0.00    +0.000 OA
ATOM     13  C   UNL     1     112.610 125.596 137.281  0.00  0.00    +0.000 A 
ATOM     14  C   UNL     1     111.791 125.072 137.515  0.00  0.00    +0.000 A 
ATOM     15  C   UNL     1     113.386 125.141 136.843  0.00  0.00    +0.000 A 
ATOM     16  C   UNL     1     111.748 124.094 137.310  0.00  0.00    +0.000 A 
ATOM     17  C   UNL     1     113.342 124.163 136.638  0.00  0.00    +0.000 A 
ATOM     18  C   UNL     1     112.523 123.639 136.872  0.00  0.00    +0.000 A 
ENDBRANCH  10  13
BRANCH   3  19
ATOM     19  O   UNL     1     113.854 129.496 140.588  0.00  0.00    +0.000 OA
BRANCH  19  28
ATOM     20  O   UNL     1     112.508 129.175 141.629  0.00  0.00    +0.000 OA
ATOM     21  O   UNL     1     112.800 131.902 142.846  0.00  0.00    +0.000 OA
ATOM     22  O   UNL     1     111.356 130.672 143.482  0.00  0.00    +0.000 OA
ATOM     23  O   UNL     1     114.049 131.313 141.399  0.00  0.00    +0.000 OA
ATOM     24  C   UNL     1     112.703 130.993 142.440  0.00  0.00    +0.000 C 
ATOM     25  C   UNL     1     111.981 130.378 142.758  0.00  0.00    +0.000 C 
ATOM     26  C   UNL     1     113.327 130.699 141.717  0.00  0.00    +0.000 C 
ATOM     27  C   UNL     1     111.883 129.469 142.353  0.00  0.00    +0.000 C 
ATOM     28  C   UNL     1     113.230 129.790 141.311  0.00  0.00    +0.000 C 
BRANCH  27  30
ATOM     29  O   UNL     1     111.260 127.866 142.557  0.00  0.00    +0.000 OA
ATOM     30  C   UNL     1     111.161 128.855 142.670  0.00  0.00    +0.000 C 
ENDBRANCH  27  30
ENDBRANCH  19  28
ENDBRANCH   3  19
TORSDOF 4
ENDMDL
MODEL 7
REMARK VINA RESULT:      -8.3      2.112      3.268
REMARK  Name = 44257565
REMARK  4 active torsions:
REMARK  status: ('A' for Active; 'I' for Inactive)
REMARK    1  A    between atoms: O_2  and  C_14
REMARK    2  A    between atoms: O_2  and  C_16
REMARK    3  A    between atoms: C_13  and  C_15
REMARK    4  A    between atoms: C_23  and  C_25
REMARK                            x       y       z     vdW  Elec       q    Type
REMARK                         _______ _______ _______ _____ _____    ______ ____
ROOT
ATOM      1  O   UNL     1     111.625 127.217 137.527  0.00  0.00    +0.000 OA
ATOM      2  O   UNL     1     112.322 127.945 140.352  0.00  0.00    +0.000 OA
ATOM      3  C   UNL     1     109.696 129.050 138.039  0.00  0.00    +0.000 A 
ATOM      4  C   UNL     1     110.270 128.342 137.534  0.00  0.00    +0.000 A 
ATOM      5  C   UNL     1     109.938 129.302 139.020  0.00  0.00    +0.000 A 
ATOM      6  C   UNL     1     111.078 127.896 138.018  0.00  0.00    +0.000 A 
ATOM      7  C   UNL     1     111.310 128.139 138.959  0.00  0.00    +0.000 A 
ATOM      8  C   UNL     1     110.751 128.844 139.484  0.00  0.00    +0.000 A 
ATOM      9  C   UNL     1     112.089 127.702 139.410  0.00  0.00    +0.000 A 
ATOM     10  C   UNL     1     112.404 126.781 137.978  0.00  0.00    +0.000 A 
ATOM     11  C   UNL     1     112.636 127.024 138.919  0.00  0.00    +0.000 A 
ENDROOT
BRANCH  10  13
ATOM     12  O   UNL     1     111.782 124.883 137.871  0.00  0.00    +0.000 OA
ATOM     13  C   UNL     1     112.949 126.103 137.487  0.00  0.00    +0.000 A 
ATOM     14  C   UNL     1     112.639 125.154 137.433  0.00  0.00    +0.000 A 
ATOM     15  C   UNL     1     113.807 126.373 137.048  0.00  0.00    +0.000 A 
ATOM     16  C   UNL     1     113.186 124.476 136.941  0.00  0.00    +0.000 A 
ATOM     17  C   UNL     1     114.353 125.695 136.557  0.00  0.00    +0.000 A 
ATOM     18  C   UNL     1     114.043 124.747 136.503  0.00  0.00    +0.000 A 
ENDBRANCH  10  13
BRANCH   3  19
ATOM     19  O   UNL     1     108.918 129.484 137.585  0.00  0.00    +0.000 OA
BRANCH  19  28
ATOM     20  O   UNL     1     109.653 131.038 137.375  0.00  0.00    +0.000 OA
ATOM     21  O   UNL     1     108.273 131.332 134.727  0.00  0.00    +0.000 OA
ATOM     22  O   UNL     1     109.468 132.788 135.399  0.00  0.00    +0.000 OA
ATOM     23  O   UNL     1     107.998 129.680 135.820  0.00  0.00    +0.000 OA
ATOM     24  C   UNL     1     108.733 131.234 135.610  0.00  0.00    +0.000 C 
ATOM     25  C   UNL     1     109.330 131.962 135.946  0.00  0.00    +0.000 C 
ATOM     26  C   UNL     1     108.596 130.408 136.156  0.00  0.00    +0.000 C 
ATOM     27  C   UNL     1     109.790 131.864 136.828  0.00  0.00    +0.000 C 
ATOM     28  C   UNL     1     109.056 130.310 137.039  0.00  0.00    +0.000 C 
BRANCH  27  30
ATOM     29  O   UNL     1     110.510 132.725 138.148  0.00  0.00    +0.000 OA
ATOM     30  C   UNL     1     110.388 132.592 137.164  0.00  0.00    +0.000 C 
ENDBRANCH  27  30
ENDBRANCH  19  28
ENDBRANCH   3  19
TORSDOF 4
ENDMDL
MODEL 8
REMARK VINA RESULT:      -8.3      6.229     10.388
REMARK  Name = 44257565
REMARK  4 active torsions:
REMARK  status: ('A' for Active; 'I' for Inactive)
REMARK    1  A    between atoms: O_2  and  C_14
REMARK    2  A    between atoms: O_2  and  C_16
REMARK    3  A    between atoms: C_13  and  C_15
REMARK    4  A    between atoms: C_23  and  C_25
REMARK                            x       y       z     vdW  Elec       q    Type
REMARK                         _______ _______ _______ _____ _____    ______ ____
ROOT
ATOM      1  O   UNL     1     103.139 130.684 142.191  0.00  0.00    +0.000 OA
ATOM      2  O   UNL     1     102.484 129.146 139.700  0.00  0.00    +0.000 OA
ATOM      3  C   UNL     1     104.746 128.529 142.524  0.00  0.00    +0.000 A 
ATOM      4  C   UNL     1     104.277 129.441 142.702  0.00  0.00    +0.000 A 
ATOM      5  C   UNL     1     104.519 127.994 141.659  0.00  0.00    +0.000 A 
ATOM      6  C   UNL     1     103.586 129.807 142.013  0.00  0.00    +0.000 A 
ATOM      7  C   UNL     1     103.368 129.294 141.183  0.00  0.00    +0.000 A 
ATOM      8  C   UNL     1     103.825 128.380 140.984  0.00  0.00    +0.000 A 
ATOM      9  C   UNL     1     102.703 129.658 140.531  0.00  0.00    +0.000 A 
ATOM     10  C   UNL     1     102.474 131.048 141.539  0.00  0.00    +0.000 A 
ATOM     11  C   UNL     1     102.256 130.535 140.709  0.00  0.00    +0.000 A 
ENDROOT
BRANCH  10  13
ATOM     12  O   UNL     1     103.316 132.748 140.904  0.00  0.00    +0.000 OA
ATOM     13  C   UNL     1     102.028 131.925 141.717  0.00  0.00    +0.000 A 
ATOM     14  C   UNL     1     102.448 132.774 141.400  0.00  0.00    +0.000 A 
ATOM     15  C   UNL     1     101.160 131.952 142.213  0.00  0.00    +0.000 A 
ATOM     16  C   UNL     1     102.001 133.651 141.579  0.00  0.00    +0.000 A 
ATOM     17  C   UNL     1     100.713 132.828 142.392  0.00  0.00    +0.000 A 
ATOM     18  C   UNL     1     101.133 133.678 142.075  0.00  0.00    +0.000 A 
ENDBRANCH  10  13
BRANCH   3  19
ATOM     19  O   UNL     1     105.410 128.168 143.178  0.00  0.00    +0.000 OA
BRANCH  19  28
ATOM     20  O   UNL     1     106.750 128.824 142.299  0.00  0.00    +0.000 OA
ATOM     21  O   UNL     1     108.421 128.752 144.789  0.00  0.00    +0.000 OA
ATOM     22  O   UNL     1     109.204 129.432 143.079  0.00  0.00    +0.000 OA
ATOM     23  O   UNL     1     106.524 128.120 144.839  0.00  0.00    +0.000 OA
ATOM     24  C   UNL     1     107.864 128.776 143.959  0.00  0.00    +0.000 C 
ATOM     25  C   UNL     1     108.256 129.116 143.104  0.00  0.00    +0.000 C 
ATOM     26  C   UNL     1     106.916 128.460 143.984  0.00  0.00    +0.000 C 
ATOM     27  C   UNL     1     107.699 129.141 142.274  0.00  0.00    +0.000 C 
ATOM     28  C   UNL     1     106.359 128.484 143.153  0.00  0.00    +0.000 C 
BRANCH  27  30
ATOM     29  O   UNL     1     107.497 129.891 140.726  0.00  0.00    +0.000 OA
ATOM     30  C   UNL     1     108.090 129.481 141.419  0.00  0.00    +0.000 C 
ENDBRANCH  27  30
ENDBRANCH  19  28
ENDBRANCH   3  19
TORSDOF 4
ENDMDL
MODEL 9
REMARK VINA RESULT:      -8.3      8.254     10.673
REMARK  Name = 44257565
REMARK  4 active torsions:
REMARK  status: ('A' for Active; 'I' for Inactive)
REMARK    1  A    between atoms: O_2  and  C_14
REMARK    2  A    between atoms: O_2  and  C_16
REMARK    3  A    between atoms: C_13  and  C_15
REMARK    4  A    between atoms: C_23  and  C_25
REMARK                            x       y       z     vdW  Elec       q    Type
REMARK                         _______ _______ _______ _____ _____    ______ ____
ROOT
ATOM      1  O   UNL     1     105.006 128.703 143.136  0.00  0.00    +0.000 OA
ATOM      2  O   UNL     1     104.788 126.920 140.733  0.00  0.00    +0.000 OA
ATOM      3  C   UNL     1     106.405 126.553 144.007  0.00  0.00    +0.000 A 
ATOM      4  C   UNL     1     105.955 127.492 143.992  0.00  0.00    +0.000 A 
ATOM      5  C   UNL     1     106.330 125.934 143.173  0.00  0.00    +0.000 A 
ATOM      6  C   UNL     1     105.435 127.800 143.143  0.00  0.00    +0.000 A 
ATOM      7  C   UNL     1     105.363 127.205 142.343  0.00  0.00    +0.000 A 
ATOM      8  C   UNL     1     105.805 126.262 142.335  0.00  0.00    +0.000 A 
ATOM      9  C   UNL     1     104.861 127.514 141.535  0.00  0.00    +0.000 A 
ATOM     10  C   UNL     1     104.503 129.012 142.328  0.00  0.00    +0.000 A 
ATOM     11  C   UNL     1     104.431 128.417 141.527  0.00  0.00    +0.000 A 
ENDROOT
BRANCH  10  13
ATOM     12  O   UNL     1     105.461 130.569 141.518  0.00  0.00    +0.000 OA
ATOM     13  C   UNL     1     104.074 129.914 142.322  0.00  0.00    +0.000 A 
ATOM     14  C   UNL     1     104.553 130.693 141.917  0.00  0.00    +0.000 A 
ATOM     15  C   UNL     1     103.166 130.038 142.721  0.00  0.00    +0.000 A 
ATOM     16  C   UNL     1     104.122 131.596 141.911  0.00  0.00    +0.000 A 
ATOM     17  C   UNL     1     102.735 130.941 142.714  0.00  0.00    +0.000 A 
ATOM     18  C   UNL     1     103.214 131.720 142.310  0.00  0.00    +0.000 A 
ENDBRANCH  10  13
BRANCH   3  19
ATOM     19  O   UNL     1     106.906 126.248 144.817  0.00  0.00    +0.000 OA
BRANCH  19  28
ATOM     20  O   UNL     1     105.641 125.228 145.416  0.00  0.00    +0.000 OA
ATOM     21  O   UNL     1     106.482 125.838 148.230  0.00  0.00    +0.000 OA
ATOM     22  O   UNL     1     104.936 124.616 147.891  0.00  0.00    +0.000 OA
ATOM     23  O   UNL     1     107.467 126.654 146.693  0.00  0.00    +0.000 OA
ATOM     24  C   UNL     1     106.201 125.635 147.292  0.00  0.00    +0.000 C 
ATOM     25  C   UNL     1     105.428 125.024 147.123  0.00  0.00    +0.000 C 
ATOM     26  C   UNL     1     106.694 126.043 146.523  0.00  0.00    +0.000 C 
ATOM     27  C   UNL     1     105.148 124.820 146.184  0.00  0.00    +0.000 C 
ATOM     28  C   UNL     1     106.414 125.840 145.585  0.00  0.00    +0.000 C 
BRANCH  27  30
ATOM     29  O   UNL     1     104.081 124.022 145.078  0.00  0.00    +0.000 OA
ATOM     30  C   UNL     1     104.375 124.209 146.015  0.00  0.00    +0.000 C 
ENDBRANCH  27  30
ENDBRANCH  19  28
ENDBRANCH   3  19
TORSDOF 4
ENDMDL
MODEL 10
REMARK VINA RESULT:      -8.3      1.745      2.713
REMARK  Name = 44257565
REMARK  4 active torsions:
REMARK  status: ('A' for Active; 'I' for Inactive)
REMARK    1  A    between atoms: O_2  and  C_14
REMARK    2  A    between atoms: O_2  and  C_16
REMARK    3  A    between atoms: C_13  and  C_15
REMARK    4  A    between atoms: C_23  and  C_25
REMARK                            x       y       z     vdW  Elec       q    Type
REMARK                         _______ _______ _______ _____ _____    ______ ____
ROOT
ATOM      1  O   UNL     1     112.110 127.353 136.698  0.00  0.00    +0.000 OA
ATOM      2  O   UNL     1     109.929 125.725 135.437  0.00  0.00    +0.000 OA
ATOM      3  C   UNL     1     110.238 129.274 136.316  0.00  0.00    +0.000 A 
ATOM      4  C   UNL     1     111.129 128.812 136.593  0.00  0.00    +0.000 A 
ATOM      5  C   UNL     1     109.481 128.709 135.877  0.00  0.00    +0.000 A 
ATOM      6  C   UNL     1     111.251 127.790 136.429  0.00  0.00    +0.000 A 
ATOM      7  C   UNL     1     110.524 127.248 136.009  0.00  0.00    +0.000 A 
ATOM      8  C   UNL     1     109.625 127.688 135.723  0.00  0.00    +0.000 A 
ATOM      9  C   UNL     1     110.656 126.268 135.857  0.00  0.00    +0.000 A 
ATOM     10  C   UNL     1     112.241 126.373 136.547  0.00  0.00    +0.000 A 
ATOM     11  C   UNL     1     111.514 125.831 136.126  0.00  0.00    +0.000 A 
ENDROOT
BRANCH  10  13
ATOM     12  O   UNL     1     112.527 125.814 138.446  0.00  0.00    +0.000 OA
ATOM     13  C   UNL     1     113.099 125.937 136.816  0.00  0.00    +0.000 A 
ATOM     14  C   UNL     1     113.242 125.657 137.766  0.00  0.00    +0.000 A 
ATOM     15  C   UNL     1     113.815 125.780 136.136  0.00  0.00    +0.000 A 
ATOM     16  C   UNL     1     114.101 125.221 138.034  0.00  0.00    +0.000 A 
ATOM     17  C   UNL     1     114.674 125.343 136.405  0.00  0.00    +0.000 A 
ATOM     18  C   UNL     1     114.817 125.064 137.354  0.00  0.00    +0.000 A 
ENDBRANCH  10  13
BRANCH   3  19
ATOM     19  O   UNL     1     110.110 130.254 136.469  0.00  0.00    +0.000 OA
BRANCH  19  28
ATOM     20  O   UNL     1     109.650 129.993 138.118  0.00  0.00    +0.000 OA
ATOM     21  O   UNL     1     110.250 132.866 138.740  0.00  0.00    +0.000 OA
ATOM     22  O   UNL     1     109.589 131.647 140.181  0.00  0.00    +0.000 OA
ATOM     23  O   UNL     1     110.510 132.169 136.883  0.00  0.00    +0.000 OA
ATOM     24  C   UNL     1     110.050 131.908 138.532  0.00  0.00    +0.000 C 
ATOM     25  C   UNL     1     109.719 131.299 139.253  0.00  0.00    +0.000 C 
ATOM     26  C   UNL     1     110.180 131.560 137.604  0.00  0.00    +0.000 C 
ATOM     27  C   UNL     1     109.519 130.341 139.046  0.00  0.00    +0.000 C 
ATOM     28  C   UNL     1     109.980 130.602 137.397  0.00  0.00    +0.000 C 
BRANCH  27  30
ATOM     29  O   UNL     1     108.952 128.785 139.551  0.00  0.00    +0.000 OA
ATOM     30  C   UNL     1     109.189 129.732 139.767  0.00  0.00    +0.000 C 
ENDBRANCH  27  30
ENDBRANCH  19  28
ENDBRANCH   3  19
TORSDOF 4
ENDMDL
