MODEL 1
REMARK VINA RESULT:      -9.7      0.000      0.000
REMARK  Name = 5320826
REMARK  4 active torsions:
REMARK  status: ('A' for Active; 'I' for Inactive)
REMARK    1  A    between atoms: O_2  and  C_18
REMARK    2  A    between atoms: O_2  and  C_20
REMARK    3  A    between atoms: C_17  and  C_19
REMARK    4  A    between atoms: C_27  and  C_29
REMARK                            x       y       z     vdW  Elec       q    Type
REMARK                         _______ _______ _______ _____ _____    ______ ____
ROOT
ATOM      1  O   UNL     1     105.415 126.263 144.233  0.00  0.00    +0.000 OA
ATOM      2  O   UNL     1     106.525 124.736 147.009  0.00  0.00    +0.000 OA
ATOM      3  O   UNL     1     107.248 126.163 146.464  0.00  0.00    +0.000 OA
ATOM      4  O   UNL     1     106.761 127.978 144.133  0.00  0.00    +0.000 OA
ATOM      5  O   UNL     1     107.310 127.232 145.498  0.00  0.00    +0.000 OA
ATOM      6  C   UNL     1     105.591 124.770 145.888  0.00  0.00    +0.000 A 
ATOM      7  C   UNL     1     105.309 125.164 145.177  0.00  0.00    +0.000 A 
ATOM      8  C   UNL     1     106.248 125.107 146.326  0.00  0.00    +0.000 A 
ATOM      9  C   UNL     1     105.690 125.889 144.915  0.00  0.00    +0.000 A 
ATOM     10  C   UNL     1     106.321 126.212 145.337  0.00  0.00    +0.000 A 
ATOM     11  C   UNL     1     106.616 125.832 146.049  0.00  0.00    +0.000 A 
ATOM     12  C   UNL     1     106.678 126.908 145.076  0.00  0.00    +0.000 A 
ATOM     13  C   UNL     1     105.772 126.959 143.972  0.00  0.00    +0.000 A 
ATOM     14  C   UNL     1     106.404 127.282 144.394  0.00  0.00    +0.000 A 
ENDROOT
BRANCH  13  17
ATOM     15  O   UNL     1     105.582 127.079 141.123  0.00  0.00    +0.000 OA
ATOM     16  O   UNL     1     104.676 128.453 141.242  0.00  0.00    +0.000 OA
ATOM     17  C   UNL     1     105.498 127.333 143.289  0.00  0.00    +0.000 A 
ATOM     18  C   UNL     1     105.677 127.019 142.547  0.00  0.00    +0.000 A 
ATOM     19  C   UNL     1     105.045 128.020 143.349  0.00  0.00    +0.000 A 
ATOM     20  C   UNL     1     105.403 127.392 141.865  0.00  0.00    +0.000 A 
ATOM     21  C   UNL     1     104.772 128.393 142.666  0.00  0.00    +0.000 A 
ATOM     22  C   UNL     1     104.950 128.079 141.924  0.00  0.00    +0.000 A 
ENDBRANCH  13  17
BRANCH   6  23
ATOM     23  O   UNL     1     105.232 124.074 146.146  0.00  0.00    +0.000 OA
BRANCH  23  32
ATOM     24  O   UNL     1     104.078 124.624 146.785  0.00  0.00    +0.000 OA
ATOM     25  O   UNL     1     102.668 122.877 145.744  0.00  0.00    +0.000 OA
ATOM     26  O   UNL     1     101.985 124.010 146.729  0.00  0.00    +0.000 OA
ATOM     27  O   UNL     1     104.291 122.909 145.452  0.00  0.00    +0.000 OA
ATOM     28  C   UNL     1     103.138 123.460 146.091  0.00  0.00    +0.000 C 
ATOM     29  C   UNL     1     102.797 124.026 146.584  0.00  0.00    +0.000 C 
ATOM     30  C   UNL     1     103.950 123.476 145.945  0.00  0.00    +0.000 C 
ATOM     31  C   UNL     1     103.267 124.608 146.931  0.00  0.00    +0.000 C 
ATOM     32  C   UNL     1     104.421 124.058 146.292  0.00  0.00    +0.000 C 
BRANCH  31  34
ATOM     33  O   UNL     1     103.302 125.394 148.125  0.00  0.00    +0.000 OA
ATOM     34  C   UNL     1     102.925 125.174 147.424  0.00  0.00    +0.000 C 
ENDBRANCH  31  34
ENDBRANCH  23  32
ENDBRANCH   6  23
TORSDOF 4
ENDMDL
MODEL 2
REMARK VINA RESULT:      -9.6      1.059      4.817
REMARK  Name = 5320826
REMARK  4 active torsions:
REMARK  status: ('A' for Active; 'I' for Inactive)
REMARK    1  A    between atoms: O_2  and  C_18
REMARK    2  A    between atoms: O_2  and  C_20
REMARK    3  A    between atoms: C_17  and  C_19
REMARK    4  A    between atoms: C_27  and  C_29
REMARK                            x       y       z     vdW  Elec       q    Type
REMARK                         _______ _______ _______ _____ _____    ______ ____
ROOT
ATOM      1  O   UNL     1     104.262 124.454 145.861  0.00  0.00    +0.000 OA
ATOM      2  O   UNL     1     107.331 125.760 146.247  0.00  0.00    +0.000 OA
ATOM      3  O   UNL     1     106.476 125.162 147.577  0.00  0.00    +0.000 OA
ATOM      4  O   UNL     1     103.780 123.904 147.918  0.00  0.00    +0.000 OA
ATOM      5  O   UNL     1     105.288 124.544 148.112  0.00  0.00    +0.000 OA
ATOM      6  C   UNL     1     106.221 125.409 145.365  0.00  0.00    +0.000 A 
ATOM      7  C   UNL     1     105.435 125.074 145.270  0.00  0.00    +0.000 A 
ATOM      8  C   UNL     1     106.577 125.440 146.146  0.00  0.00    +0.000 A 
ATOM      9  C   UNL     1     105.016 124.775 145.958  0.00  0.00    +0.000 A 
ATOM     10  C   UNL     1     105.358 124.805 146.708  0.00  0.00    +0.000 A 
ATOM     11  C   UNL     1     106.142 125.136 146.822  0.00  0.00    +0.000 A 
ATOM     12  C   UNL     1     104.946 124.515 147.361  0.00  0.00    +0.000 A 
ATOM     13  C   UNL     1     103.850 124.164 146.514  0.00  0.00    +0.000 A 
ATOM     14  C   UNL     1     104.192 124.194 147.264  0.00  0.00    +0.000 A 
ENDROOT
BRANCH  13  17
ATOM     15  O   UNL     1     101.008 124.452 146.605  0.00  0.00    +0.000 OA
ATOM     16  O   UNL     1     100.834 122.883 146.127  0.00  0.00    +0.000 OA
ATOM     17  C   UNL     1     103.096 123.843 146.417  0.00  0.00    +0.000 A 
ATOM     18  C   UNL     1     102.429 124.309 146.560  0.00  0.00    +0.000 A 
ATOM     19  C   UNL     1     103.009 123.059 146.178  0.00  0.00    +0.000 A 
ATOM     20  C   UNL     1     101.675 123.988 146.463  0.00  0.00    +0.000 A 
ATOM     21  C   UNL     1     102.255 122.739 146.082  0.00  0.00    +0.000 A 
ATOM     22  C   UNL     1     101.588 123.203 146.224  0.00  0.00    +0.000 A 
ENDBRANCH  13  17
BRANCH   6  23
ATOM     23  O   UNL     1     106.631 125.699 144.710  0.00  0.00    +0.000 OA
BRANCH  23  32
ATOM     24  O   UNL     1     105.940 126.937 144.528  0.00  0.00    +0.000 OA
ATOM     25  O   UNL     1     105.872 126.540 142.086  0.00  0.00    +0.000 OA
ATOM     26  O   UNL     1     105.205 127.909 142.718  0.00  0.00    +0.000 OA
ATOM     27  O   UNL     1     106.585 125.434 143.082  0.00  0.00    +0.000 OA
ATOM     28  C   UNL     1     105.895 126.672 142.900  0.00  0.00    +0.000 C 
ATOM     29  C   UNL     1     105.561 127.357 143.216  0.00  0.00    +0.000 C 
ATOM     30  C   UNL     1     106.252 126.119 143.398  0.00  0.00    +0.000 C 
ATOM     31  C   UNL     1     105.584 127.489 144.030  0.00  0.00    +0.000 C 
ATOM     32  C   UNL     1     106.274 126.251 144.212  0.00  0.00    +0.000 C 
BRANCH  31  34
ATOM     33  O   UNL     1     105.638 128.583 144.948  0.00  0.00    +0.000 OA
ATOM     34  C   UNL     1     105.250 128.174 144.346  0.00  0.00    +0.000 C 
ENDBRANCH  31  34
ENDBRANCH  23  32
ENDBRANCH   6  23
TORSDOF 4
ENDMDL
MODEL 3
REMARK VINA RESULT:      -9.4      1.715      3.348
REMARK  Name = 5320826
REMARK  4 active torsions:
REMARK  status: ('A' for Active; 'I' for Inactive)
REMARK    1  A    between atoms: O_2  and  C_18
REMARK    2  A    between atoms: O_2  and  C_20
REMARK    3  A    between atoms: C_17  and  C_19
REMARK    4  A    between atoms: C_27  and  C_29
REMARK                            x       y       z     vdW  Elec       q    Type
REMARK                         _______ _______ _______ _____ _____    ______ ____
ROOT
ATOM      1  O   UNL     1     105.005 127.828 142.428  0.00  0.00    +0.000 OA
ATOM      2  O   UNL     1     107.778 125.935 142.463  0.00  0.00    +0.000 OA
ATOM      3  O   UNL     1     107.819 127.511 141.855  0.00  0.00    +0.000 OA
ATOM      4  O   UNL     1     105.768 129.670 141.540  0.00  0.00    +0.000 OA
ATOM      5  O   UNL     1     107.133 128.744 141.556  0.00  0.00    +0.000 OA
ATOM      6  C   UNL     1     106.355 126.078 142.760  0.00  0.00    +0.000 A 
ATOM      7  C   UNL     1     105.647 126.566 142.749  0.00  0.00    +0.000 A 
ATOM      8  C   UNL     1     107.093 126.396 142.457  0.00  0.00    +0.000 A 
ATOM      9  C   UNL     1     105.688 127.364 142.436  0.00  0.00    +0.000 A 
ATOM     10  C   UNL     1     106.397 127.670 142.145  0.00  0.00    +0.000 A 
ATOM     11  C   UNL     1     107.115 127.197 142.148  0.00  0.00    +0.000 A 
ATOM     12  C   UNL     1     106.424 128.438 141.847  0.00  0.00    +0.000 A 
ATOM     13  C   UNL     1     105.032 128.597 142.129  0.00  0.00    +0.000 A 
ATOM     14  C   UNL     1     105.741 128.902 141.839  0.00  0.00    +0.000 A 
ENDROOT
BRANCH  13  17
ATOM     15  O   UNL     1     102.662 129.490 140.805  0.00  0.00    +0.000 OA
ATOM     16  O   UNL     1     102.302 130.450 142.097  0.00  0.00    +0.000 OA
ATOM     17  C   UNL     1     104.350 129.060 142.122  0.00  0.00    +0.000 A 
ATOM     18  C   UNL     1     103.847 129.043 141.467  0.00  0.00    +0.000 A 
ATOM     19  C   UNL     1     104.170 129.540 142.768  0.00  0.00    +0.000 A 
ATOM     20  C   UNL     1     103.165 129.506 141.459  0.00  0.00    +0.000 A 
ATOM     21  C   UNL     1     103.487 130.003 142.759  0.00  0.00    +0.000 A 
ATOM     22  C   UNL     1     102.985 129.987 142.105  0.00  0.00    +0.000 A 
ENDBRANCH  13  17
BRANCH   6  23
ATOM     23  O   UNL     1     106.326 125.309 143.059  0.00  0.00    +0.000 OA
BRANCH  23  32
ATOM     24  O   UNL     1     106.376 125.632 144.450  0.00  0.00    +0.000 OA
ATOM     25  O   UNL     1     104.698 123.873 144.918  0.00  0.00    +0.000 OA
ATOM     26  O   UNL     1     105.307 124.781 146.152  0.00  0.00    +0.000 OA
ATOM     27  O   UNL     1     105.207 124.137 143.371  0.00  0.00    +0.000 OA
ATOM     28  C   UNL     1     105.257 124.459 144.762  0.00  0.00    +0.000 C 
ATOM     29  C   UNL     1     105.562 124.914 145.379  0.00  0.00    +0.000 C 
ATOM     30  C   UNL     1     105.512 124.591 143.988  0.00  0.00    +0.000 C 
ATOM     31  C   UNL     1     106.121 125.500 145.223  0.00  0.00    +0.000 C 
ATOM     32  C   UNL     1     106.071 125.178 143.832  0.00  0.00    +0.000 C 
BRANCH  31  34
ATOM     33  O   UNL     1     107.239 126.081 145.898  0.00  0.00    +0.000 OA
ATOM     34  C   UNL     1     106.426 125.954 145.841  0.00  0.00    +0.000 C 
ENDBRANCH  31  34
ENDBRANCH  23  32
ENDBRANCH   6  23
TORSDOF 4
ENDMDL
MODEL 4
REMARK VINA RESULT:      -9.3      7.958     10.969
REMARK  Name = 5320826
REMARK  4 active torsions:
REMARK  status: ('A' for Active; 'I' for Inactive)
REMARK    1  A    between atoms: O_2  and  C_18
REMARK    2  A    between atoms: O_2  and  C_20
REMARK    3  A    between atoms: C_17  and  C_19
REMARK    4  A    between atoms: C_27  and  C_29
REMARK                            x       y       z     vdW  Elec       q    Type
REMARK                         _______ _______ _______ _____ _____    ______ ____
ROOT
ATOM      1  O   UNL     1     110.781 126.616 137.847  0.00  0.00    +0.000 OA
ATOM      2  O   UNL     1     109.812 125.825 134.731  0.00  0.00    +0.000 OA
ATOM      3  O   UNL     1     110.838 124.801 135.600  0.00  0.00    +0.000 OA
ATOM      4  O   UNL     1     112.047 124.907 138.337  0.00  0.00    +0.000 OA
ATOM      5  O   UNL     1     111.574 124.514 136.807  0.00  0.00    +0.000 OA
ATOM      6  C   UNL     1     109.772 126.754 135.857  0.00  0.00    +0.000 A 
ATOM      7  C   UNL     1     110.022 126.953 136.655  0.00  0.00    +0.000 A 
ATOM      8  C   UNL     1     110.047 126.025 135.497  0.00  0.00    +0.000 A 
ATOM      9  C   UNL     1     110.544 126.420 137.081  0.00  0.00    +0.000 A 
ATOM     10  C   UNL     1     110.808 125.720 136.734  0.00  0.00    +0.000 A 
ATOM     11  C   UNL     1     110.569 125.504 135.938  0.00  0.00    +0.000 A 
ATOM     12  C   UNL     1     111.309 125.215 137.153  0.00  0.00    +0.000 A 
ATOM     13  C   UNL     1     111.282 126.112 138.266  0.00  0.00    +0.000 A 
ATOM     14  C   UNL     1     111.546 125.412 137.919  0.00  0.00    +0.000 A 
ENDROOT
BRANCH  13  17
ATOM     15  O   UNL     1     110.788 126.133 141.080  0.00  0.00    +0.000 OA
ATOM     16  O   UNL     1     112.229 126.897 141.328  0.00  0.00    +0.000 OA
ATOM     17  C   UNL     1     111.519 126.308 139.031  0.00  0.00    +0.000 A 
ATOM     18  C   UNL     1     111.035 126.122 139.673  0.00  0.00    +0.000 A 
ATOM     19  C   UNL     1     112.240 126.690 139.155  0.00  0.00    +0.000 A 
ATOM     20  C   UNL     1     111.272 126.318 140.438  0.00  0.00    +0.000 A 
ATOM     21  C   UNL     1     112.476 126.886 139.920  0.00  0.00    +0.000 A 
ATOM     22  C   UNL     1     111.992 126.700 140.562  0.00  0.00    +0.000 A 
ENDBRANCH  13  17
BRANCH   6  23
ATOM     23  O   UNL     1     109.271 127.260 135.441  0.00  0.00    +0.000 OA
BRANCH  23  32
ATOM     24  O   UNL     1     110.153 128.374 135.287  0.00  0.00    +0.000 OA
ATOM     25  O   UNL     1     108.298 129.919 135.830  0.00  0.00    +0.000 OA
ATOM     26  O   UNL     1     109.798 130.517 135.495  0.00  0.00    +0.000 OA
ATOM     27  O   UNL     1     108.034 128.291 135.803  0.00  0.00    +0.000 OA
ATOM     28  C   UNL     1     108.916 129.404 135.649  0.00  0.00    +0.000 C 
ATOM     29  C   UNL     1     109.667 129.702 135.481  0.00  0.00    +0.000 C 
ATOM     30  C   UNL     1     108.784 128.589 135.635  0.00  0.00    +0.000 C 
ATOM     31  C   UNL     1     110.285 129.187 135.300  0.00  0.00    +0.000 C 
ATOM     32  C   UNL     1     109.403 128.074 135.454  0.00  0.00    +0.000 C 
BRANCH  31  34
ATOM     33  O   UNL     1     111.535 129.083 134.614  0.00  0.00    +0.000 OA
ATOM     34  C   UNL     1     111.035 129.486 135.133  0.00  0.00    +0.000 C 
ENDBRANCH  31  34
ENDBRANCH  23  32
ENDBRANCH   6  23
TORSDOF 4
ENDMDL
MODEL 5
REMARK VINA RESULT:      -9.3      9.700     11.765
REMARK  Name = 5320826
REMARK  4 active torsions:
REMARK  status: ('A' for Active; 'I' for Inactive)
REMARK    1  A    between atoms: O_2  and  C_18
REMARK    2  A    between atoms: O_2  and  C_20
REMARK    3  A    between atoms: C_17  and  C_19
REMARK    4  A    between atoms: C_27  and  C_29
REMARK                            x       y       z     vdW  Elec       q    Type
REMARK                         _______ _______ _______ _____ _____    ______ ____
ROOT
ATOM      1  O   UNL     1     111.884 126.820 136.244  0.00  0.00    +0.000 OA
ATOM      2  O   UNL     1     112.700 129.962 135.389  0.00  0.00    +0.000 OA
ATOM      3  O   UNL     1     113.885 128.877 135.910  0.00  0.00    +0.000 OA
ATOM      4  O   UNL     1     113.837 126.016 136.795  0.00  0.00    +0.000 OA
ATOM      5  O   UNL     1     114.243 127.559 136.376  0.00  0.00    +0.000 OA
ATOM      6  C   UNL     1     111.675 128.935 135.552  0.00  0.00    +0.000 A 
ATOM      7  C   UNL     1     111.470 128.129 135.772  0.00  0.00    +0.000 A 
ATOM      8  C   UNL     1     112.494 129.191 135.598  0.00  0.00    +0.000 A 
ATOM      9  C   UNL     1     112.087 127.592 136.034  0.00  0.00    +0.000 A 
ATOM     10  C   UNL     1     112.873 127.838 136.078  0.00  0.00    +0.000 A 
ATOM     11  C   UNL     1     113.096 128.639 135.863  0.00  0.00    +0.000 A 
ATOM     12  C   UNL     1     113.456 127.313 136.332  0.00  0.00    +0.000 A 
ATOM     13  C   UNL     1     112.468 126.295 136.497  0.00  0.00    +0.000 A 
ATOM     14  C   UNL     1     113.254 126.541 136.541  0.00  0.00    +0.000 A 
ENDROOT
BRANCH  13  17
ATOM     15  O   UNL     1     111.296 124.460 138.349  0.00  0.00    +0.000 OA
ATOM     16  O   UNL     1     111.658 123.208 137.337  0.00  0.00    +0.000 OA
ATOM     17  C   UNL     1     112.265 125.523 136.707  0.00  0.00    +0.000 A 
ATOM     18  C   UNL     1     111.882 125.377 137.423  0.00  0.00    +0.000 A 
ATOM     19  C   UNL     1     112.446 124.897 136.201  0.00  0.00    +0.000 A 
ATOM     20  C   UNL     1     111.679 124.606 137.633  0.00  0.00    +0.000 A 
ATOM     21  C   UNL     1     112.244 124.126 136.411  0.00  0.00    +0.000 A 
ATOM     22  C   UNL     1     111.860 123.980 137.127  0.00  0.00    +0.000 A 
ENDBRANCH  13  17
BRANCH   6  23
ATOM     23  O   UNL     1     111.089 129.458 135.298  0.00  0.00    +0.000 OA
BRANCH  23  32
ATOM     24  O   UNL     1     110.524 129.795 136.567  0.00  0.00    +0.000 OA
ATOM     25  O   UNL     1     108.252 129.619 135.601  0.00  0.00    +0.000 OA
ATOM     26  O   UNL     1     108.444 130.014 137.190  0.00  0.00    +0.000 OA
ATOM     27  O   UNL     1     109.575 129.341 134.654  0.00  0.00    +0.000 OA
ATOM     28  C   UNL     1     109.009 129.678 135.923  0.00  0.00    +0.000 C 
ATOM     29  C   UNL     1     109.106 129.875 136.718  0.00  0.00    +0.000 C 
ATOM     30  C   UNL     1     109.671 129.538 135.449  0.00  0.00    +0.000 C 
ATOM     31  C   UNL     1     109.863 129.934 137.040  0.00  0.00    +0.000 C 
ATOM     32  C   UNL     1     110.428 129.597 135.771  0.00  0.00    +0.000 C 
BRANCH  31  34
ATOM     33  O   UNL     1     110.530 130.683 138.057  0.00  0.00    +0.000 OA
ATOM     34  C   UNL     1     109.959 130.131 137.834  0.00  0.00    +0.000 C 
ENDBRANCH  31  34
ENDBRANCH  23  32
ENDBRANCH   6  23
TORSDOF 4
ENDMDL
MODEL 6
REMARK VINA RESULT:      -9.2      9.071     11.238
REMARK  Name = 5320826
REMARK  4 active torsions:
REMARK  status: ('A' for Active; 'I' for Inactive)
REMARK    1  A    between atoms: O_2  and  C_18
REMARK    2  A    between atoms: O_2  and  C_20
REMARK    3  A    between atoms: C_17  and  C_19
REMARK    4  A    between atoms: C_27  and  C_29
REMARK                            x       y       z     vdW  Elec       q    Type
REMARK                         _______ _______ _______ _____ _____    ______ ____
ROOT
ATOM      1  O   UNL     1     111.298 126.244 136.904  0.00  0.00    +0.000 OA
ATOM      2  O   UNL     1     108.353 127.605 136.042  0.00  0.00    +0.000 OA
ATOM      3  O   UNL     1     108.983 126.297 135.177  0.00  0.00    +0.000 OA
ATOM      4  O   UNL     1     111.481 124.662 135.412  0.00  0.00    +0.000 OA
ATOM      5  O   UNL     1     110.033 125.327 134.984  0.00  0.00    +0.000 OA
ATOM      6  C   UNL     1     109.516 127.593 136.925  0.00  0.00    +0.000 A 
ATOM      7  C   UNL     1     110.270 127.242 137.142  0.00  0.00    +0.000 A 
ATOM      8  C   UNL     1     109.077 127.274 136.258  0.00  0.00    +0.000 A 
ATOM      9  C   UNL     1     110.574 126.577 136.691  0.00  0.00    +0.000 A 
ATOM     10  C   UNL     1     110.152 126.272 136.051  0.00  0.00    +0.000 A 
ATOM     11  C   UNL     1     109.397 126.609 135.818  0.00  0.00    +0.000 A 
ATOM     12  C   UNL     1     110.454 125.633 135.624  0.00  0.00    +0.000 A 
ATOM     13  C   UNL     1     111.600 125.606 136.478  0.00  0.00    +0.000 A 
ATOM     14  C   UNL     1     111.178 125.300 135.838  0.00  0.00    +0.000 A 
ENDROOT
BRANCH  13  17
ATOM     15  O   UNL     1     114.457 125.687 136.479  0.00  0.00    +0.000 OA
ATOM     16  O   UNL     1     114.496 124.274 137.331  0.00  0.00    +0.000 OA
ATOM     17  C   UNL     1     112.324 125.272 136.691  0.00  0.00    +0.000 A 
ATOM     18  C   UNL     1     113.029 125.646 136.478  0.00  0.00    +0.000 A 
ATOM     19  C   UNL     1     112.344 124.566 137.117  0.00  0.00    +0.000 A 
ATOM     20  C   UNL     1     113.753 125.313 136.692  0.00  0.00    +0.000 A 
ATOM     21  C   UNL     1     113.068 124.234 137.330  0.00  0.00    +0.000 A 
ATOM     22  C   UNL     1     113.772 124.607 137.118  0.00  0.00    +0.000 A 
ENDBRANCH  13  17
BRANCH   6  23
ATOM     23  O   UNL     1     109.216 128.231 137.353  0.00  0.00    +0.000 OA
BRANCH  23  32
ATOM     24  O   UNL     1     110.070 129.258 136.843  0.00  0.00    +0.000 OA
ATOM     25  O   UNL     1     110.311 130.190 139.123  0.00  0.00    +0.000 OA
ATOM     26  O   UNL     1     111.084 130.905 137.853  0.00  0.00    +0.000 OA
ATOM     27  O   UNL     1     109.377 128.853 138.873  0.00  0.00    +0.000 OA
ATOM     28  C   UNL     1     110.231 129.879 138.363  0.00  0.00    +0.000 C 
ATOM     29  C   UNL     1     110.617 130.236 137.727  0.00  0.00    +0.000 C 
ATOM     30  C   UNL     1     109.763 129.210 138.237  0.00  0.00    +0.000 C 
ATOM     31  C   UNL     1     110.537 129.925 136.967  0.00  0.00    +0.000 C 
ATOM     32  C   UNL     1     109.683 128.899 137.477  0.00  0.00    +0.000 C 
BRANCH  31  34
ATOM     33  O   UNL     1     110.526 130.398 135.619  0.00  0.00    +0.000 OA
ATOM     34  C   UNL     1     110.923 130.283 136.333  0.00  0.00    +0.000 C 
ENDBRANCH  31  34
ENDBRANCH  23  32
ENDBRANCH   6  23
TORSDOF 4
ENDMDL
MODEL 7
REMARK VINA RESULT:      -9.2      9.270     11.138
REMARK  Name = 5320826
REMARK  4 active torsions:
REMARK  status: ('A' for Active; 'I' for Inactive)
REMARK    1  A    between atoms: O_2  and  C_18
REMARK    2  A    between atoms: O_2  and  C_20
REMARK    3  A    between atoms: C_17  and  C_19
REMARK    4  A    between atoms: C_27  and  C_29
REMARK                            x       y       z     vdW  Elec       q    Type
REMARK                         _______ _______ _______ _____ _____    ______ ____
ROOT
ATOM      1  O   UNL     1     112.258 128.726 137.017  0.00  0.00    +0.000 OA
ATOM      2  O   UNL     1     109.188 127.647 137.844  0.00  0.00    +0.000 OA
ATOM      3  O   UNL     1     109.427 129.230 137.300  0.00  0.00    +0.000 OA
ATOM      4  O   UNL     1     111.833 130.784 136.426  0.00  0.00    +0.000 OA
ATOM      5  O   UNL     1     110.322 130.258 136.831  0.00  0.00    +0.000 OA
ATOM      6  C   UNL     1     110.616 127.375 137.707  0.00  0.00    +0.000 A 
ATOM      7  C   UNL     1     111.401 127.655 137.494  0.00  0.00    +0.000 A 
ATOM      8  C   UNL     1     109.945 127.907 137.642  0.00  0.00    +0.000 A 
ATOM      9  C   UNL     1     111.503 128.463 137.220  0.00  0.00    +0.000 A 
ATOM     10  C   UNL     1     110.857 128.974 137.158  0.00  0.00    +0.000 A 
ATOM     11  C   UNL     1     110.066 128.712 137.366  0.00  0.00    +0.000 A 
ATOM     12  C   UNL     1     110.967 129.747 136.893  0.00  0.00    +0.000 A 
ATOM     13  C   UNL     1     112.368 129.500 136.753  0.00  0.00    +0.000 A 
ATOM     14  C   UNL     1     111.723 130.010 136.691  0.00  0.00    +0.000 A 
ENDROOT
BRANCH  13  17
ATOM     15  O   UNL     1     114.504 129.673 134.862  0.00  0.00    +0.000 OA
ATOM     16  O   UNL     1     115.388 130.553 135.942  0.00  0.00    +0.000 OA
ATOM     17  C   UNL     1     113.123 129.763 136.550  0.00  0.00    +0.000 A 
ATOM     18  C   UNL     1     113.436 129.587 135.807  0.00  0.00    +0.000 A 
ATOM     19  C   UNL     1     113.565 130.203 137.090  0.00  0.00    +0.000 A 
ATOM     20  C   UNL     1     114.191 129.850 135.604  0.00  0.00    +0.000 A 
ATOM     21  C   UNL     1     114.320 130.466 136.887  0.00  0.00    +0.000 A 
ATOM     22  C   UNL     1     114.633 130.289 136.144  0.00  0.00    +0.000 A 
ENDBRANCH  13  17
BRANCH   6  23
ATOM     23  O   UNL     1     110.509 126.601 137.971  0.00  0.00    +0.000 OA
BRANCH  23  32
ATOM     24  O   UNL     1     110.631 125.949 136.705  0.00  0.00    +0.000 OA
ATOM     25  O   UNL     1     111.896 124.110 137.775  0.00  0.00    +0.000 OA
ATOM     26  O   UNL     1     111.597 124.072 136.153  0.00  0.00    +0.000 OA
ATOM     27  O   UNL     1     111.352 125.375 138.684  0.00  0.00    +0.000 OA
ATOM     28  C   UNL     1     111.474 124.723 137.418  0.00  0.00    +0.000 C 
ATOM     29  C   UNL     1     111.324 124.704 136.607  0.00  0.00    +0.000 C 
ATOM     30  C   UNL     1     111.202 125.356 137.873  0.00  0.00    +0.000 C 
ATOM     31  C   UNL     1     110.903 125.317 136.251  0.00  0.00    +0.000 C 
ATOM     32  C   UNL     1     110.781 125.969 137.517  0.00  0.00    +0.000 C 
BRANCH  31  34
ATOM     33  O   UNL     1     109.994 125.450 135.156  0.00  0.00    +0.000 OA
ATOM     34  C   UNL     1     110.754 125.298 135.440  0.00  0.00    +0.000 C 
ENDBRANCH  31  34
ENDBRANCH  23  32
ENDBRANCH   6  23
TORSDOF 4
ENDMDL
MODEL 8
REMARK VINA RESULT:      -9.1      9.865     12.065
REMARK  Name = 5320826
REMARK  4 active torsions:
REMARK  status: ('A' for Active; 'I' for Inactive)
REMARK    1  A    between atoms: O_2  and  C_18
REMARK    2  A    between atoms: O_2  and  C_20
REMARK    3  A    between atoms: C_17  and  C_19
REMARK    4  A    between atoms: C_27  and  C_29
REMARK                            x       y       z     vdW  Elec       q    Type
REMARK                         _______ _______ _______ _____ _____    ______ ____
ROOT
ATOM      1  O   UNL     1     111.830 126.913 136.276  0.00  0.00    +0.000 OA
ATOM      2  O   UNL     1     111.100 129.895 134.919  0.00  0.00    +0.000 OA
ATOM      3  O   UNL     1     110.126 128.548 134.613  0.00  0.00    +0.000 OA
ATOM      4  O   UNL     1     110.211 125.684 135.482  0.00  0.00    +0.000 OA
ATOM      5  O   UNL     1     109.847 127.147 134.813  0.00  0.00    +0.000 OA
ATOM      6  C   UNL     1     111.972 129.083 135.763  0.00  0.00    +0.000 A 
ATOM      7  C   UNL     1     112.156 128.318 136.109  0.00  0.00    +0.000 A 
ATOM      8  C   UNL     1     111.284 129.164 135.255  0.00  0.00    +0.000 A 
ATOM      9  C   UNL     1     111.649 127.645 135.942  0.00  0.00    +0.000 A 
ATOM     10  C   UNL     1     110.988 127.723 135.454  0.00  0.00    +0.000 A 
ATOM     11  C   UNL     1     110.789 128.480 135.099  0.00  0.00    +0.000 A 
ATOM     12  C   UNL     1     110.509 127.069 135.301  0.00  0.00    +0.000 A 
ATOM     13  C   UNL     1     111.351 126.259 136.123  0.00  0.00    +0.000 A 
ATOM     14  C   UNL     1     110.690 126.337 135.635  0.00  0.00    +0.000 A 
ENDROOT
BRANCH  13  17
ATOM     15  O   UNL     1     111.168 124.422 138.305  0.00  0.00    +0.000 OA
ATOM     16  O   UNL     1     112.075 123.331 137.462  0.00  0.00    +0.000 OA
ATOM     17  C   UNL     1     111.532 125.527 136.458  0.00  0.00    +0.000 A 
ATOM     18  C   UNL     1     111.259 125.341 137.214  0.00  0.00    +0.000 A 
ATOM     19  C   UNL     1     111.986 124.982 136.036  0.00  0.00    +0.000 A 
ATOM     20  C   UNL     1     111.440 124.608 137.549  0.00  0.00    +0.000 A 
ATOM     21  C   UNL     1     112.167 124.250 136.371  0.00  0.00    +0.000 A 
ATOM     22  C   UNL     1     111.894 124.063 137.127  0.00  0.00    +0.000 A 
ENDBRANCH  13  17
BRANCH   6  23
ATOM     23  O   UNL     1     112.453 129.735 135.918  0.00  0.00    +0.000 OA
BRANCH  23  32
ATOM     24  O   UNL     1     111.952 130.057 137.216  0.00  0.00    +0.000 OA
ATOM     25  O   UNL     1     114.255 130.526 137.990  0.00  0.00    +0.000 OA
ATOM     26  O   UNL     1     112.986 130.690 139.030  0.00  0.00    +0.000 OA
ATOM     27  O   UNL     1     113.989 130.048 136.433  0.00  0.00    +0.000 OA
ATOM     28  C   UNL     1     113.487 130.369 137.732  0.00  0.00    +0.000 C 
ATOM     29  C   UNL     1     112.852 130.451 138.252  0.00  0.00    +0.000 C 
ATOM     30  C   UNL     1     113.354 130.130 136.953  0.00  0.00    +0.000 C 
ATOM     31  C   UNL     1     112.085 130.295 137.994  0.00  0.00    +0.000 C 
ATOM     32  C   UNL     1     112.586 129.974 136.695  0.00  0.00    +0.000 C 
BRANCH  31  34
ATOM     33  O   UNL     1     110.776 130.793 138.282  0.00  0.00    +0.000 OA
ATOM     34  C   UNL     1     111.450 130.378 138.514  0.00  0.00    +0.000 C 
ENDBRANCH  31  34
ENDBRANCH  23  32
ENDBRANCH   6  23
TORSDOF 4
ENDMDL
MODEL 9
REMARK VINA RESULT:      -9.1      9.357     11.313
REMARK  Name = 5320826
REMARK  4 active torsions:
REMARK  status: ('A' for Active; 'I' for Inactive)
REMARK    1  A    between atoms: O_2  and  C_18
REMARK    2  A    between atoms: O_2  and  C_20
REMARK    3  A    between atoms: C_17  and  C_19
REMARK    4  A    between atoms: C_27  and  C_29
REMARK                            x       y       z     vdW  Elec       q    Type
REMARK                         _______ _______ _______ _____ _____    ______ ____
ROOT
ATOM      1  O   UNL     1     110.090 130.848 136.001  0.00  0.00    +0.000 OA
ATOM      2  O   UNL     1     113.027 130.270 137.523  0.00  0.00    +0.000 OA
ATOM      3  O   UNL     1     112.217 131.737 137.742  0.00  0.00    +0.000 OA
ATOM      4  O   UNL     1     109.641 132.862 136.710  0.00  0.00    +0.000 OA
ATOM      5  O   UNL     1     111.084 132.584 137.460  0.00  0.00    +0.000 OA
ATOM      6  C   UNL     1     111.961 129.804 136.640  0.00  0.00    +0.000 A 
ATOM      7  C   UNL     1     111.209 129.956 136.252  0.00  0.00    +0.000 A 
ATOM      8  C   UNL     1     112.305 130.407 137.146  0.00  0.00    +0.000 A 
ATOM      9  C   UNL     1     110.812 130.708 136.376  0.00  0.00    +0.000 A 
ATOM     10  C   UNL     1     111.143 131.286 136.862  0.00  0.00    +0.000 A 
ATOM     11  C   UNL     1     111.894 131.153 137.258  0.00  0.00    +0.000 A 
ATOM     12  C   UNL     1     110.753 132.004 136.973  0.00  0.00    +0.000 A 
ATOM     13  C   UNL     1     109.700 131.566 136.112  0.00  0.00    +0.000 A 
ATOM     14  C   UNL     1     110.031 132.144 136.598  0.00  0.00    +0.000 A 
ENDROOT
BRANCH  13  17
ATOM     15  O   UNL     1     106.849 131.367 136.079  0.00  0.00    +0.000 OA
ATOM     16  O   UNL     1     106.814 132.125 134.613  0.00  0.00    +0.000 OA
ATOM     17  C   UNL     1     108.979 131.706 135.737  0.00  0.00    +0.000 A 
ATOM     18  C   UNL     1     108.275 131.466 136.096  0.00  0.00    +0.000 A 
ATOM     19  C   UNL     1     108.961 132.085 135.005  0.00  0.00    +0.000 A 
ATOM     20  C   UNL     1     107.553 131.606 135.721  0.00  0.00    +0.000 A 
ATOM     21  C   UNL     1     108.239 132.224 134.631  0.00  0.00    +0.000 A 
ATOM     22  C   UNL     1     107.535 131.985 134.988  0.00  0.00    +0.000 A 
ENDBRANCH  13  17
BRANCH   6  23
ATOM     23  O   UNL     1     112.349 129.085 136.527  0.00  0.00    +0.000 OA
BRANCH  23  32
ATOM     24  O   UNL     1     111.570 128.254 137.390  0.00  0.00    +0.000 OA
ATOM     25  O   UNL     1     111.529 126.490 135.655  0.00  0.00    +0.000 OA
ATOM     26  O   UNL     1     110.764 126.248 137.096  0.00  0.00    +0.000 OA
ATOM     27  O   UNL     1     112.322 127.908 135.371  0.00  0.00    +0.000 OA
ATOM     28  C   UNL     1     111.543 127.078 136.234  0.00  0.00    +0.000 C 
ATOM     29  C   UNL     1     111.160 126.957 136.954  0.00  0.00    +0.000 C 
ATOM     30  C   UNL     1     111.939 127.788 136.091  0.00  0.00    +0.000 C 
ATOM     31  C   UNL     1     111.174 127.545 137.533  0.00  0.00    +0.000 C 
ATOM     32  C   UNL     1     111.953 128.376 136.670  0.00  0.00    +0.000 C 
BRANCH  31  34
ATOM     33  O   UNL     1     111.155 127.651 138.958  0.00  0.00    +0.000 OA
ATOM     34  C   UNL     1     110.791 127.424 138.253  0.00  0.00    +0.000 C 
ENDBRANCH  31  34
ENDBRANCH  23  32
ENDBRANCH   6  23
TORSDOF 4
ENDMDL
MODEL 10
REMARK VINA RESULT:      -9.1      7.431     10.061
REMARK  Name = 5320826
REMARK  4 active torsions:
REMARK  status: ('A' for Active; 'I' for Inactive)
REMARK    1  A    between atoms: O_2  and  C_18
REMARK    2  A    between atoms: O_2  and  C_20
REMARK    3  A    between atoms: C_17  and  C_19
REMARK    4  A    between atoms: C_27  and  C_29
REMARK                            x       y       z     vdW  Elec       q    Type
REMARK                         _______ _______ _______ _____ _____    ______ ____
ROOT
ATOM      1  O   UNL     1     110.707 127.242 136.506  0.00  0.00    +0.000 OA
ATOM      2  O   UNL     1     112.069 124.334 137.487  0.00  0.00    +0.000 OA
ATOM      3  O   UNL     1     111.146 124.419 136.074  0.00  0.00    +0.000 OA
ATOM      4  O   UNL     1     109.693 126.631 134.672  0.00  0.00    +0.000 OA
ATOM      5  O   UNL     1     110.360 125.200 135.150  0.00  0.00    +0.000 OA
ATOM      6  C   UNL     1     111.857 125.760 137.722  0.00  0.00    +0.000 A 
ATOM      7  C   UNL     1     111.506 126.503 137.467  0.00  0.00    +0.000 A 
ATOM      8  C   UNL     1     111.736 125.052 137.251  0.00  0.00    +0.000 A 
ATOM      9  C   UNL     1     111.041 126.526 136.746  0.00  0.00    +0.000 A 
ATOM     10  C   UNL     1     110.925 125.846 136.294  0.00  0.00    +0.000 A 
ATOM     11  C   UNL     1     111.267 125.095 136.532  0.00  0.00    +0.000 A 
ATOM     12  C   UNL     1     110.476 125.881 135.603  0.00  0.00    +0.000 A 
ATOM     13  C   UNL     1     110.258 127.277 135.815  0.00  0.00    +0.000 A 
ATOM     14  C   UNL     1     110.142 126.596 135.363  0.00  0.00    +0.000 A 
ENDROOT
BRANCH  13  17
ATOM     15  O   UNL     1     108.095 129.144 135.882  0.00  0.00    +0.000 OA
ATOM     16  O   UNL     1     108.922 130.138 134.858  0.00  0.00    +0.000 OA
ATOM     17  C   UNL     1     109.924 127.992 135.576  0.00  0.00    +0.000 A 
ATOM     18  C   UNL     1     109.176 128.210 135.849  0.00  0.00    +0.000 A 
ATOM     19  C   UNL     1     110.337 128.490 135.064  0.00  0.00    +0.000 A 
ATOM     20  C   UNL     1     108.842 128.925 135.610  0.00  0.00    +0.000 A 
ATOM     21  C   UNL     1     110.003 129.205 134.825  0.00  0.00    +0.000 A 
ATOM     22  C   UNL     1     109.255 129.423 135.097  0.00  0.00    +0.000 A 
ENDBRANCH  13  17
BRANCH   6  23
ATOM     23  O   UNL     1     112.306 125.728 138.413  0.00  0.00    +0.000 OA
BRANCH  23  32
ATOM     24  O   UNL     1     111.238 125.892 139.348  0.00  0.00    +0.000 OA
ATOM     25  O   UNL     1     112.674 127.356 140.733  0.00  0.00    +0.000 OA
ATOM     26  O   UNL     1     111.128 127.031 141.206  0.00  0.00    +0.000 OA
ATOM     27  O   UNL     1     113.264 126.704 139.336  0.00  0.00    +0.000 OA
ATOM     28  C   UNL     1     112.195 126.868 140.272  0.00  0.00    +0.000 C 
ATOM     29  C   UNL     1     111.422 126.705 140.508  0.00  0.00    +0.000 C 
ATOM     30  C   UNL     1     112.490 126.542 139.573  0.00  0.00    +0.000 C 
ATOM     31  C   UNL     1     110.943 126.217 140.046  0.00  0.00    +0.000 C 
ATOM     32  C   UNL     1     112.011 126.054 139.111  0.00  0.00    +0.000 C 
BRANCH  31  34
ATOM     33  O   UNL     1     109.891 125.279 140.279  0.00  0.00    +0.000 OA
ATOM     34  C   UNL     1     110.170 126.055 140.283  0.00  0.00    +0.000 C 
ENDBRANCH  31  34
ENDBRANCH  23  32
ENDBRANCH   6  23
TORSDOF 4
ENDMDL
