MODEL 1
REMARK VINA RESULT:      -8.6      0.000      0.000
REMARK  Name = 42608120
REMARK  2 active torsions:
REMARK  status: ('A' for Active; 'I' for Inactive)
REMARK    1  A    between atoms: O_2  and  C_14
REMARK    2  A    between atoms: C_8  and  C_11
REMARK                            x       y       z     vdW  Elec       q    Type
REMARK                         _______ _______ _______ _____ _____    ______ ____
ROOT
ATOM      1  O   UNL     1     104.678 124.176 146.782  0.00  0.00    +0.000 OA
ATOM      2  O   UNL     1     103.048 125.654 148.036  0.00  0.00    +0.000 OA
ATOM      3  O   UNL     1     101.959 124.909 147.453  0.00  0.00    +0.000 OA
ATOM      4  O   UNL     1     102.448 122.739 145.659  0.00  0.00    +0.000 OA
ATOM      5  C   UNL     1     104.980 124.802 147.288  0.00  0.00    +0.000 C 
ATOM      6  C   UNL     1     104.429 125.305 147.715  0.00  0.00    +0.000 C 
ATOM      7  C   UNL     1     103.300 124.546 147.120  0.00  0.00    +0.000 A 
ATOM      8  C   UNL     1     103.829 124.062 146.710  0.00  0.00    +0.000 A 
ATOM      9  C   UNL     1     103.584 125.176 147.630  0.00  0.00    +0.000 C 
ATOM     10  C   UNL     1     103.545 123.461 146.223  0.00  0.00    +0.000 A 
ATOM     11  C   UNL     1     102.488 124.427 147.043  0.00  0.00    +0.000 A 
ATOM     12  C   UNL     1     102.733 123.341 146.146  0.00  0.00    +0.000 A 
ATOM     13  C   UNL     1     102.203 123.825 146.556  0.00  0.00    +0.000 A 
ENDROOT
BRANCH   5  16
ATOM     14  O   UNL     1     107.443 125.802 146.241  0.00  0.00    +0.000 OA
ATOM     15  O   UNL     1     108.233 125.270 147.589  0.00  0.00    +0.000 OA
ATOM     16  C   UNL     1     105.793 124.919 147.363  0.00  0.00    +0.000 A 
ATOM     17  C   UNL     1     106.211 125.302 146.765  0.00  0.00    +0.000 A 
ATOM     18  C   UNL     1     106.187 124.652 148.037  0.00  0.00    +0.000 A 
ATOM     19  C   UNL     1     107.025 125.419 146.840  0.00  0.00    +0.000 A 
ATOM     20  C   UNL     1     107.001 124.770 148.112  0.00  0.00    +0.000 A 
ATOM     21  C   UNL     1     107.419 125.153 147.514  0.00  0.00    +0.000 A 
ENDBRANCH   5  16
BRANCH  10  22
ATOM     22  O   UNL     1     104.073 122.978 145.813  0.00  0.00    +0.000 OA
ATOM     23  C   UNL     1     103.961 122.834 145.009  0.00  0.00    +0.000 C 
ENDBRANCH  10  22
TORSDOF 2
ENDMDL
MODEL 2
REMARK VINA RESULT:      -8.5      0.922      4.326
REMARK  Name = 42608120
REMARK  2 active torsions:
REMARK  status: ('A' for Active; 'I' for Inactive)
REMARK    1  A    between atoms: O_2  and  C_14
REMARK    2  A    between atoms: C_8  and  C_11
REMARK                            x       y       z     vdW  Elec       q    Type
REMARK                         _______ _______ _______ _____ _____    ______ ____
ROOT
ATOM      1  O   UNL     1     105.231 124.325 147.385  0.00  0.00    +0.000 OA
ATOM      2  O   UNL     1     106.445 125.505 145.502  0.00  0.00    +0.000 OA
ATOM      3  O   UNL     1     107.568 125.709 146.384  0.00  0.00    +0.000 OA
ATOM      4  O   UNL     1     107.515 124.772 149.083  0.00  0.00    +0.000 OA
ATOM      5  C   UNL     1     104.844 124.411 146.622  0.00  0.00    +0.000 C 
ATOM      6  C   UNL     1     105.254 124.811 145.981  0.00  0.00    +0.000 C 
ATOM      7  C   UNL     1     106.416 125.026 146.880  0.00  0.00    +0.000 A 
ATOM      8  C   UNL     1     106.023 124.641 147.496  0.00  0.00    +0.000 A 
ATOM      9  C   UNL     1     106.044 125.120 146.111  0.00  0.00    +0.000 C 
ATOM     10  C   UNL     1     106.389 124.557 148.230  0.00  0.00    +0.000 A 
ATOM     11  C   UNL     1     107.175 125.325 146.999  0.00  0.00    +0.000 A 
ATOM     12  C   UNL     1     107.148 124.856 148.349  0.00  0.00    +0.000 A 
ATOM     13  C   UNL     1     107.541 125.240 147.733  0.00  0.00    +0.000 A 
ENDROOT
BRANCH   5  16
ATOM     14  O   UNL     1     102.018 124.617 146.993  0.00  0.00    +0.000 OA
ATOM     15  O   UNL     1     101.805 123.210 146.158  0.00  0.00    +0.000 OA
ATOM     16  C   UNL     1     104.085 124.110 146.506  0.00  0.00    +0.000 A 
ATOM     17  C   UNL     1     103.431 124.514 146.808  0.00  0.00    +0.000 A 
ATOM     18  C   UNL     1     103.978 123.407 146.088  0.00  0.00    +0.000 A 
ATOM     19  C   UNL     1     102.672 124.214 146.692  0.00  0.00    +0.000 A 
ATOM     20  C   UNL     1     103.218 123.107 145.973  0.00  0.00    +0.000 A 
ATOM     21  C   UNL     1     102.565 123.510 146.274  0.00  0.00    +0.000 A 
ENDBRANCH   5  16
BRANCH  10  22
ATOM     22  O   UNL     1     105.996 124.173 148.845  0.00  0.00    +0.000 OA
ATOM     23  C   UNL     1     105.922 124.541 149.580  0.00  0.00    +0.000 C 
ENDBRANCH  10  22
TORSDOF 2
ENDMDL
MODEL 3
REMARK VINA RESULT:      -8.3     11.729     13.423
REMARK  Name = 42608120
REMARK  2 active torsions:
REMARK  status: ('A' for Active; 'I' for Inactive)
REMARK    1  A    between atoms: O_2  and  C_14
REMARK    2  A    between atoms: C_8  and  C_11
REMARK                            x       y       z     vdW  Elec       q    Type
REMARK                         _______ _______ _______ _____ _____    ______ ____
ROOT
ATOM      1  O   UNL     1     111.951 125.855 136.246  0.00  0.00    +0.000 OA
ATOM      2  O   UNL     1     111.913 123.410 136.906  0.00  0.00    +0.000 OA
ATOM      3  O   UNL     1     113.344 123.458 137.079  0.00  0.00    +0.000 OA
ATOM      4  O   UNL     1     114.809 125.868 136.614  0.00  0.00    +0.000 OA
ATOM      5  C   UNL     1     111.202 125.435 136.263  0.00  0.00    +0.000 C 
ATOM      6  C   UNL     1     111.186 124.604 136.487  0.00  0.00    +0.000 C 
ATOM      7  C   UNL     1     112.659 124.642 136.668  0.00  0.00    +0.000 A 
ATOM      8  C   UNL     1     112.675 125.440 136.453  0.00  0.00    +0.000 A 
ATOM      9  C   UNL     1     111.919 124.207 136.690  0.00  0.00    +0.000 C 
ATOM     10  C   UNL     1     113.391 125.847 136.435  0.00  0.00    +0.000 A 
ATOM     11  C   UNL     1     113.360 124.255 136.864  0.00  0.00    +0.000 A 
ATOM     12  C   UNL     1     114.092 125.460 136.632  0.00  0.00    +0.000 A 
ATOM     13  C   UNL     1     114.076 124.663 136.846  0.00  0.00    +0.000 A 
ENDROOT
BRANCH   5  16
ATOM     14  O   UNL     1     108.954 127.023 137.031  0.00  0.00    +0.000 OA
ATOM     15  O   UNL     1     108.403 126.997 135.476  0.00  0.00    +0.000 OA
ATOM     16  C   UNL     1     110.502 125.825 136.066  0.00  0.00    +0.000 A 
ATOM     17  C   UNL     1     110.078 126.229 136.647  0.00  0.00    +0.000 A 
ATOM     18  C   UNL     1     110.227 125.812 135.289  0.00  0.00    +0.000 A 
ATOM     19  C   UNL     1     109.378 126.619 136.450  0.00  0.00    +0.000 A 
ATOM     20  C   UNL     1     109.527 126.203 135.092  0.00  0.00    +0.000 A 
ATOM     21  C   UNL     1     109.103 126.606 135.672  0.00  0.00    +0.000 A 
ENDBRANCH   5  16
BRANCH  10  22
ATOM     22  O   UNL     1     113.407 126.644 136.221  0.00  0.00    +0.000 OA
ATOM     23  C   UNL     1     113.709 127.206 136.743  0.00  0.00    +0.000 C 
ENDBRANCH  10  22
TORSDOF 2
ENDMDL
MODEL 4
REMARK VINA RESULT:      -8.2      8.130      8.932
REMARK  Name = 42608120
REMARK  2 active torsions:
REMARK  status: ('A' for Active; 'I' for Inactive)
REMARK    1  A    between atoms: O_2  and  C_14
REMARK    2  A    between atoms: C_8  and  C_11
REMARK                            x       y       z     vdW  Elec       q    Type
REMARK                         _______ _______ _______ _____ _____    ______ ____
ROOT
ATOM      1  O   UNL     1     102.911 130.502 142.100  0.00  0.00    +0.000 OA
ATOM      2  O   UNL     1     102.676 129.313 139.877  0.00  0.00    +0.000 OA
ATOM      3  O   UNL     1     103.607 128.313 140.339  0.00  0.00    +0.000 OA
ATOM      4  O   UNL     1     104.762 128.464 142.949  0.00  0.00    +0.000 OA
ATOM      5  C   UNL     1     102.390 130.829 141.500  0.00  0.00    +0.000 C 
ATOM      6  C   UNL     1     102.308 130.428 140.744  0.00  0.00    +0.000 C 
ATOM      7  C   UNL     1     103.265 129.392 141.210  0.00  0.00    +0.000 A 
ATOM      8  C   UNL     1     103.344 129.778 141.936  0.00  0.00    +0.000 A 
ATOM      9  C   UNL     1     102.748 129.705 140.599  0.00  0.00    +0.000 C 
ATOM     10  C   UNL     1     103.842 129.468 142.515  0.00  0.00    +0.000 A 
ATOM     11  C   UNL     1     103.685 128.698 141.064  0.00  0.00    +0.000 A 
ATOM     12  C   UNL     1     104.262 128.774 142.370  0.00  0.00    +0.000 A 
ATOM     13  C   UNL     1     104.184 128.389 141.643  0.00  0.00    +0.000 A 
ENDROOT
BRANCH   5  16
ATOM     14  O   UNL     1     102.231 133.682 141.453  0.00  0.00    +0.000 OA
ATOM     15  O   UNL     1     100.713 133.609 142.094  0.00  0.00    +0.000 OA
ATOM     16  C   UNL     1     101.970 131.524 141.649  0.00  0.00    +0.000 A 
ATOM     17  C   UNL     1     102.310 132.256 141.477  0.00  0.00    +0.000 A 
ATOM     18  C   UNL     1     101.211 131.487 141.969  0.00  0.00    +0.000 A 
ATOM     19  C   UNL     1     101.891 132.951 141.625  0.00  0.00    +0.000 A 
ATOM     20  C   UNL     1     100.792 132.183 142.117  0.00  0.00    +0.000 A 
ATOM     21  C   UNL     1     101.132 132.914 141.945  0.00  0.00    +0.000 A 
ENDBRANCH   5  16
BRANCH  10  22
ATOM     22  O   UNL     1     103.921 129.854 143.240  0.00  0.00    +0.000 OA
ATOM     23  C   UNL     1     104.669 130.057 143.520  0.00  0.00    +0.000 C 
ENDBRANCH  10  22
TORSDOF 2
ENDMDL
MODEL 5
REMARK VINA RESULT:      -8.2     12.679     13.473
REMARK  Name = 42608120
REMARK  2 active torsions:
REMARK  status: ('A' for Active; 'I' for Inactive)
REMARK    1  A    between atoms: O_2  and  C_14
REMARK    2  A    between atoms: C_8  and  C_11
REMARK                            x       y       z     vdW  Elec       q    Type
REMARK                         _______ _______ _______ _____ _____    ______ ____
ROOT
ATOM      1  O   UNL     1     112.159 126.714 136.067  0.00  0.00    +0.000 OA
ATOM      2  O   UNL     1     110.544 124.867 135.443  0.00  0.00    +0.000 OA
ATOM      3  O   UNL     1     109.750 125.833 134.726  0.00  0.00    +0.000 OA
ATOM      4  O   UNL     1     110.519 128.584 134.612  0.00  0.00    +0.000 OA
ATOM      5  C   UNL     1     112.311 125.914 136.338  0.00  0.00    +0.000 C 
ATOM      6  C   UNL     1     111.764 125.284 136.128  0.00  0.00    +0.000 C 
ATOM      7  C   UNL     1     110.939 126.271 135.387  0.00  0.00    +0.000 A 
ATOM      8  C   UNL     1     111.464 126.876 135.588  0.00  0.00    +0.000 A 
ATOM      9  C   UNL     1     111.074 125.464 135.650  0.00  0.00    +0.000 C 
ATOM     10  C   UNL     1     111.324 127.646 135.330  0.00  0.00    +0.000 A 
ATOM     11  C   UNL     1     110.275 126.438 134.927  0.00  0.00    +0.000 A 
ATOM     12  C   UNL     1     110.660 127.813 134.871  0.00  0.00    +0.000 A 
ATOM     13  C   UNL     1     110.134 127.208 134.669  0.00  0.00    +0.000 A 
ENDROOT
BRANCH   5  16
ATOM     14  O   UNL     1     113.670 126.015 138.850  0.00  0.00    +0.000 OA
ATOM     15  O   UNL     1     114.972 125.258 138.177  0.00  0.00    +0.000 OA
ATOM     16  C   UNL     1     112.976 125.750 136.798  0.00  0.00    +0.000 A 
ATOM     17  C   UNL     1     112.990 125.964 137.594  0.00  0.00    +0.000 A 
ATOM     18  C   UNL     1     113.627 125.371 136.461  0.00  0.00    +0.000 A 
ATOM     19  C   UNL     1     113.655 125.800 138.054  0.00  0.00    +0.000 A 
ATOM     20  C   UNL     1     114.292 125.207 136.921  0.00  0.00    +0.000 A 
ATOM     21  C   UNL     1     114.306 125.422 137.717  0.00  0.00    +0.000 A 
ENDBRANCH   5  16
BRANCH  10  22
ATOM     22  O   UNL     1     111.848 128.250 135.532  0.00  0.00    +0.000 OA
ATOM     23  C   UNL     1     112.150 128.745 134.946  0.00  0.00    +0.000 C 
ENDBRANCH  10  22
TORSDOF 2
ENDMDL
MODEL 6
REMARK VINA RESULT:      -8.2      2.623      3.432
REMARK  Name = 42608120
REMARK  2 active torsions:
REMARK  status: ('A' for Active; 'I' for Inactive)
REMARK    1  A    between atoms: O_2  and  C_14
REMARK    2  A    between atoms: C_8  and  C_11
REMARK                            x       y       z     vdW  Elec       q    Type
REMARK                         _______ _______ _______ _____ _____    ______ ____
ROOT
ATOM      1  O   UNL     1     106.635 125.392 146.265  0.00  0.00    +0.000 OA
ATOM      2  O   UNL     1     106.710 127.922 146.308  0.00  0.00    +0.000 OA
ATOM      3  O   UNL     1     106.200 127.938 144.959  0.00  0.00    +0.000 OA
ATOM      4  O   UNL     1     105.620 125.508 143.571  0.00  0.00    +0.000 OA
ATOM      5  C   UNL     1     106.912 125.793 146.972  0.00  0.00    +0.000 C 
ATOM      6  C   UNL     1     106.938 126.652 146.990  0.00  0.00    +0.000 C 
ATOM      7  C   UNL     1     106.414 126.680 145.601  0.00  0.00    +0.000 A 
ATOM      8  C   UNL     1     106.389 125.855 145.584  0.00  0.00    +0.000 A 
ATOM      9  C   UNL     1     106.688 127.097 146.301  0.00  0.00    +0.000 C 
ATOM     10  C   UNL     1     106.124 125.465 144.908  0.00  0.00    +0.000 A 
ATOM     11  C   UNL     1     106.175 127.113 144.942  0.00  0.00    +0.000 A 
ATOM     12  C   UNL     1     105.885 125.898 144.248  0.00  0.00    +0.000 A 
ATOM     13  C   UNL     1     105.911 126.723 144.266  0.00  0.00    +0.000 A 
ENDROOT
BRANCH   5  16
ATOM     14  O   UNL     1     106.263 124.340 149.347  0.00  0.00    +0.000 OA
ATOM     15  O   UNL     1     107.866 124.047 149.606  0.00  0.00    +0.000 OA
ATOM     16  C   UNL     1     107.150 125.356 147.631  0.00  0.00    +0.000 A 
ATOM     17  C   UNL     1     106.587 125.066 148.160  0.00  0.00    +0.000 A 
ATOM     18  C   UNL     1     107.952 125.210 147.760  0.00  0.00    +0.000 A 
ATOM     19  C   UNL     1     106.826 124.630 148.818  0.00  0.00    +0.000 A 
ATOM     20  C   UNL     1     108.190 124.773 148.419  0.00  0.00    +0.000 A 
ATOM     21  C   UNL     1     107.628 124.484 148.947  0.00  0.00    +0.000 A 
ENDBRANCH   5  16
BRANCH  10  22
ATOM     22  O   UNL     1     106.099 124.640 144.890  0.00  0.00    +0.000 OA
ATOM     23  C   UNL     1     105.398 124.254 144.692  0.00  0.00    +0.000 C 
ENDBRANCH  10  22
TORSDOF 2
ENDMDL
MODEL 7
REMARK VINA RESULT:      -8.1      1.258      4.130
REMARK  Name = 42608120
REMARK  2 active torsions:
REMARK  status: ('A' for Active; 'I' for Inactive)
REMARK    1  A    between atoms: O_2  and  C_14
REMARK    2  A    between atoms: C_8  and  C_11
REMARK                            x       y       z     vdW  Elec       q    Type
REMARK                         _______ _______ _______ _____ _____    ______ ____
ROOT
ATOM      1  O   UNL     1     104.344 124.469 145.871  0.00  0.00    +0.000 OA
ATOM      2  O   UNL     1     105.323 124.510 148.205  0.00  0.00    +0.000 OA
ATOM      3  O   UNL     1     106.505 125.143 147.675  0.00  0.00    +0.000 OA
ATOM      4  O   UNL     1     106.738 125.736 144.889  0.00  0.00    +0.000 OA
ATOM      5  C   UNL     1     103.889 124.147 146.524  0.00  0.00    +0.000 C 
ATOM      6  C   UNL     1     104.218 124.159 147.318  0.00  0.00    +0.000 C 
ATOM      7  C   UNL     1     105.440 124.812 146.782  0.00  0.00    +0.000 A 
ATOM      8  C   UNL     1     105.124 124.800 146.020  0.00  0.00    +0.000 A 
ATOM      9  C   UNL     1     104.998 124.494 147.447  0.00  0.00    +0.000 C 
ATOM     10  C   UNL     1     105.556 125.108 145.389  0.00  0.00    +0.000 A 
ATOM     11  C   UNL     1     106.189 125.131 146.913  0.00  0.00    +0.000 A 
ATOM     12  C   UNL     1     106.305 125.427 145.520  0.00  0.00    +0.000 A 
ATOM     13  C   UNL     1     106.621 125.439 146.282  0.00  0.00    +0.000 A 
ENDROOT
BRANCH   5  16
ATOM     14  O   UNL     1     101.043 124.392 146.606  0.00  0.00    +0.000 OA
ATOM     15  O   UNL     1     100.893 122.870 145.989  0.00  0.00    +0.000 OA
ATOM     16  C   UNL     1     103.140 123.827 146.390  0.00  0.00    +0.000 A 
ATOM     17  C   UNL     1     102.466 124.270 146.565  0.00  0.00    +0.000 A 
ATOM     18  C   UNL     1     103.065 123.066 146.082  0.00  0.00    +0.000 A 
ATOM     19  C   UNL     1     101.717 123.950 146.431  0.00  0.00    +0.000 A 
ATOM     20  C   UNL     1     102.316 122.747 145.948  0.00  0.00    +0.000 A 
ATOM     21  C   UNL     1     101.642 123.189 146.123  0.00  0.00    +0.000 A 
ENDBRANCH   5  16
BRANCH  10  22
ATOM     22  O   UNL     1     105.240 125.096 144.627  0.00  0.00    +0.000 OA
ATOM     23  C   UNL     1     105.666 124.754 144.010  0.00  0.00    +0.000 C 
ENDBRANCH  10  22
TORSDOF 2
ENDMDL
MODEL 8
REMARK VINA RESULT:      -8.0     12.932     13.741
REMARK  Name = 42608120
REMARK  2 active torsions:
REMARK  status: ('A' for Active; 'I' for Inactive)
REMARK    1  A    between atoms: O_2  and  C_14
REMARK    2  A    between atoms: C_8  and  C_11
REMARK                            x       y       z     vdW  Elec       q    Type
REMARK                         _______ _______ _______ _____ _____    ______ ____
ROOT
ATOM      1  O   UNL     1     112.717 126.455 136.437  0.00  0.00    +0.000 OA
ATOM      2  O   UNL     1     114.752 125.170 137.224  0.00  0.00    +0.000 OA
ATOM      3  O   UNL     1     113.992 123.948 137.123  0.00  0.00    +0.000 OA
ATOM      4  O   UNL     1     111.267 123.971 136.261  0.00  0.00    +0.000 OA
ATOM      5  C   UNL     1     113.440 126.881 136.617  0.00  0.00    +0.000 C 
ATOM      6  C   UNL     1     114.133 126.448 136.884  0.00  0.00    +0.000 C 
ATOM      7  C   UNL     1     113.360 125.184 136.784  0.00  0.00    +0.000 A 
ATOM      8  C   UNL     1     112.695 125.600 136.527  0.00  0.00    +0.000 A 
ATOM      9  C   UNL     1     114.092 125.594 136.968  0.00  0.00    +0.000 C 
ATOM     10  C   UNL     1     111.998 125.196 136.352  0.00  0.00    +0.000 A 
ATOM     11  C   UNL     1     113.327 124.364 136.866  0.00  0.00    +0.000 A 
ATOM     12  C   UNL     1     111.965 124.376 136.435  0.00  0.00    +0.000 A 
ATOM     13  C   UNL     1     112.630 123.960 136.692  0.00  0.00    +0.000 A 
ENDROOT
BRANCH   5  16
ATOM     14  O   UNL     1     112.879 129.494 137.629  0.00  0.00    +0.000 OA
ATOM     15  O   UNL     1     113.560 130.162 136.284  0.00  0.00    +0.000 OA
ATOM     16  C   UNL     1     113.470 127.701 136.533  0.00  0.00    +0.000 A 
ATOM     17  C   UNL     1     113.160 128.187 137.123  0.00  0.00    +0.000 A 
ATOM     18  C   UNL     1     113.811 128.035 135.860  0.00  0.00    +0.000 A 
ATOM     19  C   UNL     1     113.190 129.008 137.040  0.00  0.00    +0.000 A 
ATOM     20  C   UNL     1     113.841 128.856 135.778  0.00  0.00    +0.000 A 
ATOM     21  C   UNL     1     113.531 129.342 136.367  0.00  0.00    +0.000 A 
ENDBRANCH   5  16
BRANCH  10  22
ATOM     22  O   UNL     1     111.333 125.611 136.096  0.00  0.00    +0.000 OA
ATOM     23  C   UNL     1     110.939 125.376 135.411  0.00  0.00    +0.000 C 
ENDBRANCH  10  22
TORSDOF 2
ENDMDL
MODEL 9
REMARK VINA RESULT:      -7.9     11.675     12.844
REMARK  Name = 42608120
REMARK  2 active torsions:
REMARK  status: ('A' for Active; 'I' for Inactive)
REMARK    1  A    between atoms: O_2  and  C_14
REMARK    2  A    between atoms: C_8  and  C_11
REMARK                            x       y       z     vdW  Elec       q    Type
REMARK                         _______ _______ _______ _____ _____    ______ ____
ROOT
ATOM      1  O   UNL     1     110.618 127.284 136.020  0.00  0.00    +0.000 OA
ATOM      2  O   UNL     1     108.088 127.259 136.117  0.00  0.00    +0.000 OA
ATOM      3  O   UNL     1     108.082 128.649 135.731  0.00  0.00    +0.000 OA
ATOM      4  O   UNL     1     110.521 130.059 135.252  0.00  0.00    +0.000 OA
ATOM      5  C   UNL     1     110.213 126.559 136.236  0.00  0.00    +0.000 C 
ATOM      6  C   UNL     1     109.353 126.547 136.270  0.00  0.00    +0.000 C 
ATOM      7  C   UNL     1     109.335 127.978 135.873  0.00  0.00    +0.000 A 
ATOM      8  C   UNL     1     110.160 127.989 135.840  0.00  0.00    +0.000 A 
ATOM      9  C   UNL     1     108.913 127.261 136.087  0.00  0.00    +0.000 C 
ATOM     10  C   UNL     1     110.555 128.683 135.634  0.00  0.00    +0.000 A 
ATOM     11  C   UNL     1     108.906 128.660 135.698  0.00  0.00    +0.000 A 
ATOM     12  C   UNL     1     110.126 129.365 135.459  0.00  0.00    +0.000 A 
ATOM     13  C   UNL     1     109.301 129.354 135.492  0.00  0.00    +0.000 A 
ENDROOT
BRANCH   5  16
ATOM     14  O   UNL     1     111.465 124.843 138.148  0.00  0.00    +0.000 OA
ATOM     15  O   UNL     1     111.939 123.833 136.933  0.00  0.00    +0.000 OA
ATOM     16  C   UNL     1     110.644 125.877 136.410  0.00  0.00    +0.000 A 
ATOM     17  C   UNL     1     110.839 125.701 137.192  0.00  0.00    +0.000 A 
ATOM     18  C   UNL     1     110.881 125.373 135.802  0.00  0.00    +0.000 A 
ATOM     19  C   UNL     1     111.270 125.020 137.366  0.00  0.00    +0.000 A 
ATOM     20  C   UNL     1     111.313 124.691 135.977  0.00  0.00    +0.000 A 
ATOM     21  C   UNL     1     111.507 124.515 136.758  0.00  0.00    +0.000 A 
ENDBRANCH   5  16
BRANCH  10  22
ATOM     22  O   UNL     1     111.379 128.694 135.601  0.00  0.00    +0.000 OA
ATOM     23  C   UNL     1     111.761 128.950 134.917  0.00  0.00    +0.000 C 
ENDBRANCH  10  22
TORSDOF 2
ENDMDL
MODEL 10
REMARK VINA RESULT:      -7.9     11.208     12.364
REMARK  Name = 42608120
REMARK  2 active torsions:
REMARK  status: ('A' for Active; 'I' for Inactive)
REMARK    1  A    between atoms: O_2  and  C_14
REMARK    2  A    between atoms: C_8  and  C_11
REMARK                            x       y       z     vdW  Elec       q    Type
REMARK                         _______ _______ _______ _____ _____    ______ ____
ROOT
ATOM      1  O   UNL     1     112.664 125.992 138.411  0.00  0.00    +0.000 OA
ATOM      2  O   UNL     1     114.856 125.094 137.517  0.00  0.00    +0.000 OA
ATOM      3  O   UNL     1     114.115 124.250 136.612  0.00  0.00    +0.000 OA
ATOM      4  O   UNL     1     111.258 124.277 136.572  0.00  0.00    +0.000 OA
ATOM      5  C   UNL     1     113.403 126.284 138.737  0.00  0.00    +0.000 C 
ATOM      6  C   UNL     1     114.149 125.981 138.435  0.00  0.00    +0.000 C 
ATOM      7  C   UNL     1     113.397 125.109 137.499  0.00  0.00    +0.000 A 
ATOM      8  C   UNL     1     112.680 125.400 137.788  0.00  0.00    +0.000 A 
ATOM      9  C   UNL     1     114.145 125.390 137.813  0.00  0.00    +0.000 C 
ATOM     10  C   UNL     1     111.968 125.122 137.479  0.00  0.00    +0.000 A 
ATOM     11  C   UNL     1     113.400 124.541 136.901  0.00  0.00    +0.000 A 
ATOM     12  C   UNL     1     111.971 124.555 136.881  0.00  0.00    +0.000 A 
ATOM     13  C   UNL     1     112.687 124.264 136.592  0.00  0.00    +0.000 A 
ENDROOT
BRANCH   5  16
ATOM     14  O   UNL     1     113.261 129.020 139.551  0.00  0.00    +0.000 OA
ATOM     15  O   UNL     1     113.380 128.558 141.130  0.00  0.00    +0.000 OA
ATOM     16  C   UNL     1     113.397 126.852 139.335  0.00  0.00    +0.000 A 
ATOM     17  C   UNL     1     113.332 127.652 139.144  0.00  0.00    +0.000 A 
ATOM     18  C   UNL     1     113.457 126.621 140.125  0.00  0.00    +0.000 A 
ATOM     19  C   UNL     1     113.326 128.220 139.742  0.00  0.00    +0.000 A 
ATOM     20  C   UNL     1     113.451 127.190 140.723  0.00  0.00    +0.000 A 
ATOM     21  C   UNL     1     113.386 127.988 140.532  0.00  0.00    +0.000 A 
ENDBRANCH   5  16
BRANCH  10  22
ATOM     22  O   UNL     1     111.252 125.413 137.769  0.00  0.00    +0.000 OA
ATOM     23  C   UNL     1     110.698 125.735 137.250  0.00  0.00    +0.000 C 
ENDBRANCH  10  22
TORSDOF 2
ENDMDL
