MODEL 1
REMARK VINA RESULT:     -10.6      0.000      0.000
REMARK  Name = 15596617
REMARK  6 active torsions:
REMARK  status: ('A' for Active; 'I' for Inactive)
REMARK    1  A    between atoms: O_6  and  C_27
REMARK    2  A    between atoms: O_6  and  C_36
REMARK    3  A    between atoms: C_18  and  C_21
REMARK    4  A    between atoms: C_20  and  C_26
REMARK    5  A    between atoms: C_25  and  C_30
REMARK    6  A    between atoms: C_34  and  C_38
REMARK                            x       y       z     vdW  Elec       q    Type
REMARK                         _______ _______ _______ _____ _____    ______ ____
ROOT
ATOM      1  O   UNL     1     112.624 126.569 136.570  0.00  0.00    +0.000 OA
ATOM      2  O   UNL     1     111.521 123.912 136.725  0.00  0.00    +0.000 OA
ATOM      3  O   UNL     1     114.355 124.249 136.579  0.00  0.00    +0.000 OA
ATOM      4  O   UNL     1     114.946 125.563 136.500  0.00  0.00    +0.000 OA
ATOM      5  C   UNL     1     112.081 125.224 136.647  0.00  0.00    +0.000 A 
ATOM      6  C   UNL     1     112.740 125.717 136.597  0.00  0.00    +0.000 A 
ATOM      7  C   UNL     1     112.180 124.406 136.675  0.00  0.00    +0.000 A 
ATOM      8  C   UNL     1     113.498 125.392 136.575  0.00  0.00    +0.000 A 
ATOM      9  C   UNL     1     112.938 124.080 136.652  0.00  0.00    +0.000 A 
ATOM     10  C   UNL     1     113.597 124.574 136.602  0.00  0.00    +0.000 A 
ATOM     11  C   UNL     1     113.307 127.088 136.517  0.00  0.00    +0.000 A 
ATOM     12  C   UNL     1     114.192 125.896 136.523  0.00  0.00    +0.000 A 
ATOM     13  C   UNL     1     114.096 126.750 136.494  0.00  0.00    +0.000 A 
ENDROOT
BRANCH   5  20
ATOM     14  O   UNL     1     110.943 125.760 135.969  0.00  0.00    +0.000 OA
ATOM     15  O   UNL     1     111.325 125.451 138.095  0.00  0.00    +0.000 OA
ATOM     16  O   UNL     1     109.809 126.100 138.142  0.00  0.00    +0.000 OA
ATOM     17  O   UNL     1     109.049 126.523 136.738  0.00  0.00    +0.000 OA
ATOM     18  C   UNL     1     110.944 125.662 137.394  0.00  0.00    +0.000 C 
ATOM     19  C   UNL     1     110.186 125.987 137.417  0.00  0.00    +0.000 C 
ATOM     20  C   UNL     1     111.323 125.549 136.670  0.00  0.00    +0.000 C 
ATOM     21  C   UNL     1     109.807 126.198 136.716  0.00  0.00    +0.000 C 
ATOM     22  C   UNL     1     110.185 126.085 135.991  0.00  0.00    +0.000 C 
BRANCH  22  24
ATOM     23  O   UNL     1     109.907 125.835 134.612  0.00  0.00    +0.000 OA
ATOM     24  C   UNL     1     109.806 126.296 135.290  0.00  0.00    +0.000 C 
ENDBRANCH  22  24
ENDBRANCH   5  20
BRANCH  11  26
ATOM     25  C   UNL     1     113.001 129.543 136.436  0.00  0.00    +0.000 A 
ATOM     26  C   UNL     1     113.205 127.906 136.490  0.00  0.00    +0.000 A 
ATOM     27  C   UNL     1     113.079 129.114 135.735  0.00  0.00    +0.000 A 
ATOM     28  C   UNL     1     113.024 129.154 137.162  0.00  0.00    +0.000 A 
ATOM     29  C   UNL     1     113.181 128.295 135.762  0.00  0.00    +0.000 A 
ATOM     30  C   UNL     1     113.127 128.336 137.190  0.00  0.00    +0.000 A 
BRANCH  25  31
ATOM     31  O   UNL     1     112.899 130.361 136.408  0.00  0.00    +0.000 OA
BRANCH  31  40
ATOM     32  O   UNL     1     111.486 130.377 136.196  0.00  0.00    +0.000 OA
ATOM     33  O   UNL     1     111.275 132.300 137.739  0.00  0.00    +0.000 OA
ATOM     34  O   UNL     1     109.933 131.674 137.012  0.00  0.00    +0.000 OA
ATOM     35  O   UNL     1     112.758 131.643 137.438  0.00  0.00    +0.000 OA
ATOM     36  C   UNL     1     111.345 131.659 137.225  0.00  0.00    +0.000 C 
ATOM     37  C   UNL     1     110.674 131.346 136.861  0.00  0.00    +0.000 C 
ATOM     38  C   UNL     1     112.087 131.331 137.074  0.00  0.00    +0.000 C 
ATOM     39  C   UNL     1     110.745 130.704 136.346  0.00  0.00    +0.000 C 
ATOM     40  C   UNL     1     112.158 130.689 136.559  0.00  0.00    +0.000 C 
BRANCH  39  42
ATOM     41  O   UNL     1     110.063 130.275 135.166  0.00  0.00    +0.000 OA
ATOM     42  C   UNL     1     110.074 130.392 135.983  0.00  0.00    +0.000 C 
ENDBRANCH  39  42
ENDBRANCH  31  40
ENDBRANCH  25  31
ENDBRANCH  11  26
TORSDOF 6
ENDMDL
MODEL 2
REMARK VINA RESULT:     -10.5      1.312      5.839
REMARK  Name = 15596617
REMARK  6 active torsions:
REMARK  status: ('A' for Active; 'I' for Inactive)
REMARK    1  A    between atoms: O_6  and  C_27
REMARK    2  A    between atoms: O_6  and  C_36
REMARK    3  A    between atoms: C_18  and  C_21
REMARK    4  A    between atoms: C_20  and  C_26
REMARK    5  A    between atoms: C_25  and  C_30
REMARK    6  A    between atoms: C_34  and  C_38
REMARK                            x       y       z     vdW  Elec       q    Type
REMARK                         _______ _______ _______ _____ _____    ______ ____
ROOT
ATOM      1  O   UNL     1     110.324 128.318 136.111  0.00  0.00    +0.000 OA
ATOM      2  O   UNL     1     110.464 131.183 136.387  0.00  0.00    +0.000 OA
ATOM      3  O   UNL     1     107.952 129.949 135.806  0.00  0.00    +0.000 OA
ATOM      4  O   UNL     1     107.840 128.519 135.661  0.00  0.00    +0.000 OA
ATOM      5  C   UNL     1     110.381 129.763 136.247  0.00  0.00    +0.000 A 
ATOM      6  C   UNL     1     109.934 129.085 136.104  0.00  0.00    +0.000 A 
ATOM      7  C   UNL     1     110.018 130.504 136.243  0.00  0.00    +0.000 A 
ATOM      8  C   UNL     1     109.124 129.147 135.957  0.00  0.00    +0.000 A 
ATOM      9  C   UNL     1     109.208 130.567 136.096  0.00  0.00    +0.000 A 
ATOM     10  C   UNL     1     108.761 129.888 135.953  0.00  0.00    +0.000 A 
ATOM     11  C   UNL     1     109.863 127.608 135.962  0.00  0.00    +0.000 A 
ATOM     12  C   UNL     1     108.649 128.448 135.807  0.00  0.00    +0.000 A 
ATOM     13  C   UNL     1     109.021 127.672 135.809  0.00  0.00    +0.000 A 
ENDROOT
BRANCH   5  20
ATOM     14  O   UNL     1     111.721 129.654 135.765  0.00  0.00    +0.000 OA
ATOM     15  O   UNL     1     110.937 129.733 137.799  0.00  0.00    +0.000 OA
ATOM     16  O   UNL     1     112.555 129.610 138.095  0.00  0.00    +0.000 OA
ATOM     17  O   UNL     1     113.618 129.515 136.836  0.00  0.00    +0.000 OA
ATOM     18  C   UNL     1     111.468 129.686 137.171  0.00  0.00    +0.000 C 
ATOM     19  C   UNL     1     112.278 129.624 137.318  0.00  0.00    +0.000 C 
ATOM     20  C   UNL     1     111.190 129.701 136.394  0.00  0.00    +0.000 C 
ATOM     21  C   UNL     1     112.809 129.577 136.689  0.00  0.00    +0.000 C 
ATOM     22  C   UNL     1     112.531 129.592 135.912  0.00  0.00    +0.000 C 
BRANCH  22  24
ATOM     23  O   UNL     1     112.869 129.103 134.613  0.00  0.00    +0.000 OA
ATOM     24  C   UNL     1     113.062 129.545 135.282  0.00  0.00    +0.000 C 
ENDBRANCH  22  24
ENDBRANCH   5  20
BRANCH  11  26
ATOM     25  C   UNL     1     110.960 125.389 135.976  0.00  0.00    +0.000 A 
ATOM     26  C   UNL     1     110.229 126.868 135.967  0.00  0.00    +0.000 A 
ATOM     27  C   UNL     1     110.644 125.697 136.673  0.00  0.00    +0.000 A 
ATOM     28  C   UNL     1     110.911 125.820 135.275  0.00  0.00    +0.000 A 
ATOM     29  C   UNL     1     110.278 126.436 136.669  0.00  0.00    +0.000 A 
ATOM     30  C   UNL     1     110.546 126.560 135.270  0.00  0.00    +0.000 A 
BRANCH  25  31
ATOM     31  O   UNL     1     111.326 124.650 135.980  0.00  0.00    +0.000 OA
BRANCH  31  40
ATOM     32  O   UNL     1     112.647 125.152 136.191  0.00  0.00    +0.000 OA
ATOM     33  O   UNL     1     113.205 123.132 137.508  0.00  0.00    +0.000 OA
ATOM     34  O   UNL     1     114.339 124.307 137.279  0.00  0.00    +0.000 OA
ATOM     35  O   UNL     1     111.698 123.303 136.859  0.00  0.00    +0.000 OA
ATOM     36  C   UNL     1     113.019 123.805 137.069  0.00  0.00    +0.000 C 
ATOM     37  C   UNL     1     113.586 124.392 136.955  0.00  0.00    +0.000 C 
ATOM     38  C   UNL     1     112.265 123.890 136.745  0.00  0.00    +0.000 C 
ATOM     39  C   UNL     1     113.400 125.066 136.515  0.00  0.00    +0.000 C 
ATOM     40  C   UNL     1     112.079 124.564 136.305  0.00  0.00    +0.000 C 
BRANCH  39  42
ATOM     41  O   UNL     1     113.924 126.359 136.827  0.00  0.00    +0.000 OA
ATOM     42  C   UNL     1     113.968 125.653 136.401  0.00  0.00    +0.000 C 
ENDBRANCH  39  42
ENDBRANCH  31  40
ENDBRANCH  25  31
ENDBRANCH  11  26
TORSDOF 6
ENDMDL
MODEL 3
REMARK VINA RESULT:     -10.5      1.478      3.372
REMARK  Name = 15596617
REMARK  6 active torsions:
REMARK  status: ('A' for Active; 'I' for Inactive)
REMARK    1  A    between atoms: O_6  and  C_27
REMARK    2  A    between atoms: O_6  and  C_36
REMARK    3  A    between atoms: C_18  and  C_21
REMARK    4  A    between atoms: C_20  and  C_26
REMARK    5  A    between atoms: C_25  and  C_30
REMARK    6  A    between atoms: C_34  and  C_38
REMARK                            x       y       z     vdW  Elec       q    Type
REMARK                         _______ _______ _______ _____ _____    ______ ____
ROOT
ATOM      1  O   UNL     1     111.317 127.225 136.085  0.00  0.00    +0.000 OA
ATOM      2  O   UNL     1     113.721 125.973 137.063  0.00  0.00    +0.000 OA
ATOM      3  O   UNL     1     111.684 124.361 135.871  0.00  0.00    +0.000 OA
ATOM      4  O   UNL     1     110.466 124.950 135.369  0.00  0.00    +0.000 OA
ATOM      5  C   UNL     1     112.524 126.581 136.574  0.00  0.00    +0.000 A 
ATOM      6  C   UNL     1     111.786 126.515 136.212  0.00  0.00    +0.000 A 
ATOM      7  C   UNL     1     112.982 125.907 136.701  0.00  0.00    +0.000 A 
ATOM      8  C   UNL     1     111.506 125.775 135.978  0.00  0.00    +0.000 A 
ATOM      9  C   UNL     1     112.703 125.167 136.467  0.00  0.00    +0.000 A 
ATOM     10  C   UNL     1     111.964 125.101 136.105  0.00  0.00    +0.000 A 
ATOM     11  C   UNL     1     110.547 127.162 135.708  0.00  0.00    +0.000 A 
ATOM     12  C   UNL     1     110.739 125.693 135.600  0.00  0.00    +0.000 A 
ATOM     13  C   UNL     1     110.256 126.392 135.464  0.00  0.00    +0.000 A 
ENDROOT
BRANCH   5  20
ATOM     14  O   UNL     1     113.180 127.812 136.262  0.00  0.00    +0.000 OA
ATOM     15  O   UNL     1     112.332 127.079 138.134  0.00  0.00    +0.000 OA
ATOM     16  O   UNL     1     112.892 128.558 138.604  0.00  0.00    +0.000 OA
ATOM     17  O   UNL     1     113.645 129.540 137.511  0.00  0.00    +0.000 OA
ATOM     18  C   UNL     1     112.708 127.570 137.589  0.00  0.00    +0.000 C 
ATOM     19  C   UNL     1     112.988 128.310 137.823  0.00  0.00    +0.000 C 
ATOM     20  C   UNL     1     112.804 127.321 136.808  0.00  0.00    +0.000 C 
ATOM     21  C   UNL     1     113.364 128.800 137.277  0.00  0.00    +0.000 C 
ATOM     22  C   UNL     1     113.460 128.552 136.496  0.00  0.00    +0.000 C 
BRANCH  22  24
ATOM     23  O   UNL     1     114.245 128.713 135.313  0.00  0.00    +0.000 OA
ATOM     24  C   UNL     1     113.836 129.042 135.950  0.00  0.00    +0.000 C 
ENDBRANCH  22  24
ENDBRANCH   5  20
BRANCH  11  26
ATOM     25  C   UNL     1     109.178 129.189 135.330  0.00  0.00    +0.000 A 
ATOM     26  C   UNL     1     110.091 127.837 135.582  0.00  0.00    +0.000 A 
ATOM     27  C   UNL     1     109.019 128.698 135.974  0.00  0.00    +0.000 A 
ATOM     28  C   UNL     1     109.793 129.004 134.812  0.00  0.00    +0.000 A 
ATOM     29  C   UNL     1     109.475 128.023 136.100  0.00  0.00    +0.000 A 
ATOM     30  C   UNL     1     110.250 128.329 134.939  0.00  0.00    +0.000 A 
BRANCH  25  31
ATOM     31  O   UNL     1     108.722 129.864 135.203  0.00  0.00    +0.000 OA
BRANCH  31  40
ATOM     32  O   UNL     1     109.548 130.815 135.878  0.00  0.00    +0.000 OA
ATOM     33  O   UNL     1     107.535 131.861 136.868  0.00  0.00    +0.000 OA
ATOM     34  O   UNL     1     109.032 132.463 137.212  0.00  0.00    +0.000 OA
ATOM     35  O   UNL     1     107.380 130.562 135.863  0.00  0.00    +0.000 OA
ATOM     36  C   UNL     1     108.206 131.513 136.538  0.00  0.00    +0.000 C 
ATOM     37  C   UNL     1     108.954 131.814 136.711  0.00  0.00    +0.000 C 
ATOM     38  C   UNL     1     108.128 130.863 136.036  0.00  0.00    +0.000 C 
ATOM     39  C   UNL     1     109.626 131.465 136.380  0.00  0.00    +0.000 C 
ATOM     40  C   UNL     1     108.800 130.514 135.705  0.00  0.00    +0.000 C 
BRANCH  39  42
ATOM     41  O   UNL     1     110.936 131.289 136.923  0.00  0.00    +0.000 OA
ATOM     42  C   UNL     1     110.374 131.766 136.553  0.00  0.00    +0.000 C 
ENDBRANCH  39  42
ENDBRANCH  31  40
ENDBRANCH  25  31
ENDBRANCH  11  26
TORSDOF 6
ENDMDL
MODEL 4
REMARK VINA RESULT:     -10.4      3.014      3.722
REMARK  Name = 15596617
REMARK  6 active torsions:
REMARK  status: ('A' for Active; 'I' for Inactive)
REMARK    1  A    between atoms: O_6  and  C_27
REMARK    2  A    between atoms: O_6  and  C_36
REMARK    3  A    between atoms: C_18  and  C_21
REMARK    4  A    between atoms: C_20  and  C_26
REMARK    5  A    between atoms: C_25  and  C_30
REMARK    6  A    between atoms: C_34  and  C_38
REMARK                            x       y       z     vdW  Elec       q    Type
REMARK                         _______ _______ _______ _____ _____    ______ ____
ROOT
ATOM      1  O   UNL     1     112.686 126.184 138.582  0.00  0.00    +0.000 OA
ATOM      2  O   UNL     1     111.034 124.536 136.892  0.00  0.00    +0.000 OA
ATOM      3  O   UNL     1     113.876 124.248 136.789  0.00  0.00    +0.000 OA
ATOM      4  O   UNL     1     114.737 125.054 137.619  0.00  0.00    +0.000 OA
ATOM      5  C   UNL     1     111.865 125.348 137.725  0.00  0.00    +0.000 A 
ATOM      6  C   UNL     1     112.615 125.569 137.985  0.00  0.00    +0.000 A 
ATOM      7  C   UNL     1     111.784 124.759 137.153  0.00  0.00    +0.000 A 
ATOM      8  C   UNL     1     113.285 125.203 137.674  0.00  0.00    +0.000 A 
ATOM      9  C   UNL     1     112.455 124.392 136.840  0.00  0.00    +0.000 A 
ATOM     10  C   UNL     1     113.205 124.615 137.101  0.00  0.00    +0.000 A 
ATOM     11  C   UNL     1     113.465 126.420 138.857  0.00  0.00    +0.000 A 
ATOM     12  C   UNL     1     114.072 125.426 137.937  0.00  0.00    +0.000 A 
ATOM     13  C   UNL     1     114.163 126.039 138.533  0.00  0.00    +0.000 A 
ENDROOT
BRANCH   5  20
ATOM     14  O   UNL     1     110.891 125.469 138.764  0.00  0.00    +0.000 OA
ATOM     15  O   UNL     1     111.132 126.570 136.895  0.00  0.00    +0.000 OA
ATOM     16  O   UNL     1     109.791 127.303 137.517  0.00  0.00    +0.000 OA
ATOM     17  O   UNL     1     109.183 126.812 138.972  0.00  0.00    +0.000 OA
ATOM     18  C   UNL     1     110.828 126.325 137.622  0.00  0.00    +0.000 C 
ATOM     19  C   UNL     1     110.157 126.691 137.933  0.00  0.00    +0.000 C 
ATOM     20  C   UNL     1     111.194 125.714 138.037  0.00  0.00    +0.000 C 
ATOM     21  C   UNL     1     109.854 126.446 138.660  0.00  0.00    +0.000 C 
ATOM     22  C   UNL     1     110.220 125.835 139.076  0.00  0.00    +0.000 C 
BRANCH  22  24
ATOM     23  O   UNL     1     110.415 125.530 140.458  0.00  0.00    +0.000 OA
ATOM     24  C   UNL     1     109.917 125.590 139.802  0.00  0.00    +0.000 C 
ENDBRANCH  22  24
ENDBRANCH   5  20
BRANCH  11  26
ATOM     25  C   UNL     1     113.697 128.187 140.575  0.00  0.00    +0.000 A 
ATOM     26  C   UNL     1     113.542 127.009 139.430  0.00  0.00    +0.000 A 
ATOM     27  C   UNL     1     113.779 127.394 140.786  0.00  0.00    +0.000 A 
ATOM     28  C   UNL     1     113.537 128.391 139.792  0.00  0.00    +0.000 A 
ATOM     29  C   UNL     1     113.702 126.805 140.214  0.00  0.00    +0.000 A 
ATOM     30  C   UNL     1     113.460 127.802 139.220  0.00  0.00    +0.000 A 
BRANCH  25  31
ATOM     31  O   UNL     1     113.774 128.776 141.147  0.00  0.00    +0.000 OA
BRANCH  31  40
ATOM     32  O   UNL     1     112.444 128.702 141.665  0.00  0.00    +0.000 OA
ATOM     33  O   UNL     1     112.405 131.164 141.915  0.00  0.00    +0.000 OA
ATOM     34  O   UNL     1     111.089 130.270 142.349  0.00  0.00    +0.000 OA
ATOM     35  O   UNL     1     113.748 130.417 141.314  0.00  0.00    +0.000 OA
ATOM     36  C   UNL     1     112.418 130.344 141.832  0.00  0.00    +0.000 C 
ATOM     37  C   UNL     1     111.760 129.897 142.049  0.00  0.00    +0.000 C 
ATOM     38  C   UNL     1     113.090 129.971 141.531  0.00  0.00    +0.000 C 
ATOM     39  C   UNL     1     111.773 129.075 141.966  0.00  0.00    +0.000 C 
ATOM     40  C   UNL     1     113.103 129.149 141.448  0.00  0.00    +0.000 C 
BRANCH  39  42
ATOM     41  O   UNL     1     111.194 128.016 142.730  0.00  0.00    +0.000 OA
ATOM     42  C   UNL     1     111.115 128.629 142.183  0.00  0.00    +0.000 C 
ENDBRANCH  39  42
ENDBRANCH  31  40
ENDBRANCH  25  31
ENDBRANCH  11  26
TORSDOF 6
ENDMDL
MODEL 5
REMARK VINA RESULT:     -10.2      9.851     11.783
REMARK  Name = 15596617
REMARK  6 active torsions:
REMARK  status: ('A' for Active; 'I' for Inactive)
REMARK    1  A    between atoms: O_6  and  C_27
REMARK    2  A    between atoms: O_6  and  C_36
REMARK    3  A    between atoms: C_18  and  C_21
REMARK    4  A    between atoms: C_20  and  C_26
REMARK    5  A    between atoms: C_25  and  C_30
REMARK    6  A    between atoms: C_34  and  C_38
REMARK                            x       y       z     vdW  Elec       q    Type
REMARK                         _______ _______ _______ _____ _____    ______ ____
ROOT
ATOM      1  O   UNL     1     105.719 125.364 146.905  0.00  0.00    +0.000 OA
ATOM      2  O   UNL     1     105.088 124.447 149.563  0.00  0.00    +0.000 OA
ATOM      3  O   UNL     1     107.824 124.770 148.801  0.00  0.00    +0.000 OA
ATOM      4  O   UNL     1     108.181 125.227 147.480  0.00  0.00    +0.000 OA
ATOM      5  C   UNL     1     105.414 124.901 148.248  0.00  0.00    +0.000 A 
ATOM      6  C   UNL     1     105.979 125.106 147.683  0.00  0.00    +0.000 A 
ATOM      7  C   UNL     1     105.653 124.652 148.997  0.00  0.00    +0.000 A 
ATOM      8  C   UNL     1     106.782 125.062 147.867  0.00  0.00    +0.000 A 
ATOM      9  C   UNL     1     106.456 124.609 149.182  0.00  0.00    +0.000 A 
ATOM     10  C   UNL     1     107.021 124.814 148.617  0.00  0.00    +0.000 A 
ATOM     11  C   UNL     1     106.303 125.579 146.312  0.00  0.00    +0.000 A 
ATOM     12  C   UNL     1     107.380 125.273 147.287  0.00  0.00    +0.000 A 
ATOM     13  C   UNL     1     107.138 125.533 146.504  0.00  0.00    +0.000 A 
ENDROOT
BRANCH   5  20
ATOM     14  O   UNL     1     104.246 124.324 147.660  0.00  0.00    +0.000 OA
ATOM     15  O   UNL     1     104.539 126.228 148.685  0.00  0.00    +0.000 OA
ATOM     16  O   UNL     1     102.933 126.316 148.317  0.00  0.00    +0.000 OA
ATOM     17  O   UNL     1     102.203 125.075 147.511  0.00  0.00    +0.000 OA
ATOM     18  C   UNL     1     104.174 125.609 148.282  0.00  0.00    +0.000 C 
ATOM     19  C   UNL     1     103.371 125.652 148.098  0.00  0.00    +0.000 C 
ATOM     20  C   UNL     1     104.612 124.945 148.063  0.00  0.00    +0.000 C 
ATOM     21  C   UNL     1     103.006 125.031 147.695  0.00  0.00    +0.000 C 
ATOM     22  C   UNL     1     103.444 124.367 147.476  0.00  0.00    +0.000 C 
BRANCH  22  24
ATOM     23  O   UNL     1     103.490 123.339 146.485  0.00  0.00    +0.000 OA
ATOM     24  C   UNL     1     103.079 123.747 147.073  0.00  0.00    +0.000 C 
ENDBRANCH  22  24
ENDBRANCH   5  20
BRANCH  11  26
ATOM     25  C   UNL     1     105.579 126.324 144.066  0.00  0.00    +0.000 A 
ATOM     26  C   UNL     1     106.061 125.827 145.563  0.00  0.00    +0.000 A 
ATOM     27  C   UNL     1     105.608 126.863 144.689  0.00  0.00    +0.000 A 
ATOM     28  C   UNL     1     105.791 125.537 144.190  0.00  0.00    +0.000 A 
ATOM     29  C   UNL     1     105.849 126.615 145.438  0.00  0.00    +0.000 A 
ATOM     30  C   UNL     1     106.032 125.289 144.939  0.00  0.00    +0.000 A 
BRANCH  25  31
ATOM     31  O   UNL     1     105.338 126.572 143.317  0.00  0.00    +0.000 OA
BRANCH  31  40
ATOM     32  O   UNL     1     106.648 126.898 142.849  0.00  0.00    +0.000 OA
ATOM     33  O   UNL     1     105.707 128.748 141.501  0.00  0.00    +0.000 OA
ATOM     34  O   UNL     1     107.330 128.457 141.483  0.00  0.00    +0.000 OA
ATOM     35  O   UNL     1     104.710 127.806 142.418  0.00  0.00    +0.000 OA
ATOM     36  C   UNL     1     106.021 128.131 141.950  0.00  0.00    +0.000 C 
ATOM     37  C   UNL     1     106.832 127.986 141.941  0.00  0.00    +0.000 C 
ATOM     38  C   UNL     1     105.522 127.660 142.409  0.00  0.00    +0.000 C 
ATOM     39  C   UNL     1     107.146 127.368 142.391  0.00  0.00    +0.000 C 
ATOM     40  C   UNL     1     105.836 127.043 142.859  0.00  0.00    +0.000 C 
BRANCH  39  42
ATOM     41  O   UNL     1     108.241 126.471 142.196  0.00  0.00    +0.000 OA
ATOM     42  C   UNL     1     107.958 127.223 142.381  0.00  0.00    +0.000 C 
ENDBRANCH  39  42
ENDBRANCH  31  40
ENDBRANCH  25  31
ENDBRANCH  11  26
TORSDOF 6
ENDMDL
MODEL 6
REMARK VINA RESULT:     -10.1      1.399      6.097
REMARK  Name = 15596617
REMARK  6 active torsions:
REMARK  status: ('A' for Active; 'I' for Inactive)
REMARK    1  A    between atoms: O_6  and  C_27
REMARK    2  A    between atoms: O_6  and  C_36
REMARK    3  A    between atoms: C_18  and  C_21
REMARK    4  A    between atoms: C_20  and  C_26
REMARK    5  A    between atoms: C_25  and  C_30
REMARK    6  A    between atoms: C_34  and  C_38
REMARK                            x       y       z     vdW  Elec       q    Type
REMARK                         _______ _______ _______ _____ _____    ______ ____
ROOT
ATOM      1  O   UNL     1     110.381 130.217 136.016  0.00  0.00    +0.000 OA
ATOM      2  O   UNL     1     110.707 132.740 137.369  0.00  0.00    +0.000 OA
ATOM      3  O   UNL     1     108.734 132.493 135.316  0.00  0.00    +0.000 OA
ATOM      4  O   UNL     1     108.540 131.247 134.615  0.00  0.00    +0.000 OA
ATOM      5  C   UNL     1     110.535 131.494 136.690  0.00  0.00    +0.000 A 
ATOM      6  C   UNL     1     110.149 131.039 136.121  0.00  0.00    +0.000 A 
ATOM      7  C   UNL     1     110.321 132.283 136.800  0.00  0.00    +0.000 A 
ATOM      8  C   UNL     1     109.549 131.371 135.663  0.00  0.00    +0.000 A 
ATOM      9  C   UNL     1     109.721 132.617 136.343  0.00  0.00    +0.000 A 
ATOM     10  C   UNL     1     109.335 132.160 135.774  0.00  0.00    +0.000 A 
ATOM     11  C   UNL     1     109.982 129.737 135.425  0.00  0.00    +0.000 A 
ATOM     12  C   UNL     1     109.139 130.907 135.068  0.00  0.00    +0.000 A 
ATOM     13  C   UNL     1     109.357 130.084 134.948  0.00  0.00    +0.000 A 
ENDROOT
BRANCH   5  20
ATOM     14  O   UNL     1     111.903 131.113 136.850  0.00  0.00    +0.000 OA
ATOM     15  O   UNL     1     110.200 130.927 138.202  0.00  0.00    +0.000 OA
ATOM     16  O   UNL     1     111.400 130.262 139.118  0.00  0.00    +0.000 OA
ATOM     17  O   UNL     1     112.936 130.164 138.522  0.00  0.00    +0.000 OA
ATOM     18  C   UNL     1     110.968 130.878 137.904  0.00  0.00    +0.000 C 
ATOM     19  C   UNL     1     111.568 130.545 138.362  0.00  0.00    +0.000 C 
ATOM     20  C   UNL     1     111.135 131.162 137.148  0.00  0.00    +0.000 C 
ATOM     21  C   UNL     1     112.336 130.497 138.064  0.00  0.00    +0.000 C 
ATOM     22  C   UNL     1     112.503 130.780 137.308  0.00  0.00    +0.000 C 
BRANCH  22  24
ATOM     23  O   UNL     1     113.548 131.309 136.488  0.00  0.00    +0.000 OA
ATOM     24  C   UNL     1     113.271 130.732 137.009  0.00  0.00    +0.000 C 
ENDBRANCH  22  24
ENDBRANCH   5  20
BRANCH  11  26
ATOM     25  C   UNL     1     110.630 127.371 135.100  0.00  0.00    +0.000 A 
ATOM     26  C   UNL     1     110.198 128.949 135.316  0.00  0.00    +0.000 A 
ATOM     27  C   UNL     1     110.030 127.564 135.632  0.00  0.00    +0.000 A 
ATOM     28  C   UNL     1     111.014 127.965 134.676  0.00  0.00    +0.000 A 
ATOM     29  C   UNL     1     109.814 128.353 135.740  0.00  0.00    +0.000 A 
ATOM     30  C   UNL     1     110.798 128.754 134.785  0.00  0.00    +0.000 A 
BRANCH  25  31
ATOM     31  O   UNL     1     110.847 126.582 134.991  0.00  0.00    +0.000 OA
BRANCH  31  40
ATOM     32  O   UNL     1     111.902 126.595 135.954  0.00  0.00    +0.000 OA
ATOM     33  O   UNL     1     111.421 124.232 136.511  0.00  0.00    +0.000 OA
ATOM     34  O   UNL     1     112.636 125.031 137.288  0.00  0.00    +0.000 OA
ATOM     35  O   UNL     1     110.526 125.007 135.363  0.00  0.00    +0.000 OA
ATOM     36  C   UNL     1     111.582 125.019 136.326  0.00  0.00    +0.000 C 
ATOM     37  C   UNL     1     112.189 125.419 136.714  0.00  0.00    +0.000 C 
ATOM     38  C   UNL     1     111.133 125.406 135.751  0.00  0.00    +0.000 C 
ATOM     39  C   UNL     1     112.350 126.207 136.528  0.00  0.00    +0.000 C 
ATOM     40  C   UNL     1     111.294 126.195 135.565  0.00  0.00    +0.000 C 
BRANCH  39  42
ATOM     41  O   UNL     1     113.529 127.012 136.482  0.00  0.00    +0.000 OA
ATOM     42  C   UNL     1     112.957 126.607 136.917  0.00  0.00    +0.000 C 
ENDBRANCH  39  42
ENDBRANCH  31  40
ENDBRANCH  25  31
ENDBRANCH  11  26
TORSDOF 6
ENDMDL
MODEL 7
REMARK VINA RESULT:     -10.0      1.146      5.123
REMARK  Name = 15596617
REMARK  6 active torsions:
REMARK  status: ('A' for Active; 'I' for Inactive)
REMARK    1  A    between atoms: O_6  and  C_27
REMARK    2  A    between atoms: O_6  and  C_36
REMARK    3  A    between atoms: C_18  and  C_21
REMARK    4  A    between atoms: C_20  and  C_26
REMARK    5  A    between atoms: C_25  and  C_30
REMARK    6  A    between atoms: C_34  and  C_38
REMARK                            x       y       z     vdW  Elec       q    Type
REMARK                         _______ _______ _______ _____ _____    ______ ____
ROOT
ATOM      1  O   UNL     1     112.240 129.281 136.876  0.00  0.00    +0.000 OA
ATOM      2  O   UNL     1     110.248 131.359 137.013  0.00  0.00    +0.000 OA
ATOM      3  O   UNL     1     113.013 132.049 137.222  0.00  0.00    +0.000 OA
ATOM      4  O   UNL     1     114.041 131.038 137.159  0.00  0.00    +0.000 OA
ATOM      5  C   UNL     1     111.246 130.338 136.946  0.00  0.00    +0.000 A 
ATOM      6  C   UNL     1     112.039 130.114 136.959  0.00  0.00    +0.000 A 
ATOM      7  C   UNL     1     111.042 131.133 137.025  0.00  0.00    +0.000 A 
ATOM      8  C   UNL     1     112.629 130.684 137.051  0.00  0.00    +0.000 A 
ATOM      9  C   UNL     1     111.631 131.704 137.118  0.00  0.00    +0.000 A 
ATOM     10  C   UNL     1     112.424 131.479 137.130  0.00  0.00    +0.000 A 
ATOM     11  C   UNL     1     113.065 129.041 136.889  0.00  0.00    +0.000 A 
ATOM     12  C   UNL     1     113.458 130.462 137.066  0.00  0.00    +0.000 A 
ATOM     13  C   UNL     1     113.678 129.634 136.984  0.00  0.00    +0.000 A 
ENDROOT
BRANCH   5  20
ATOM     14  O   UNL     1     110.458 129.498 136.101  0.00  0.00    +0.000 OA
ATOM     15  O   UNL     1     110.466 129.738 138.270  0.00  0.00    +0.000 OA
ATOM     16  O   UNL     1     109.287 128.598 138.087  0.00  0.00    +0.000 OA
ATOM     17  O   UNL     1     108.889 128.058 136.579  0.00  0.00    +0.000 OA
ATOM     18  C   UNL     1     110.266 129.468 137.516  0.00  0.00    +0.000 C 
ATOM     19  C   UNL     1     109.677 128.898 137.424  0.00  0.00    +0.000 C 
ATOM     20  C   UNL     1     110.657 129.768 136.854  0.00  0.00    +0.000 C 
ATOM     21  C   UNL     1     109.478 128.628 136.671  0.00  0.00    +0.000 C 
ATOM     22  C   UNL     1     109.868 128.928 136.009  0.00  0.00    +0.000 C 
BRANCH  22  24
ATOM     23  O   UNL     1     109.693 129.176 134.612  0.00  0.00    +0.000 OA
ATOM     24  C   UNL     1     109.669 128.658 135.255  0.00  0.00    +0.000 C 
ENDBRANCH  22  24
ENDBRANCH   5  20
BRANCH  11  26
ATOM     25  C   UNL     1     113.669 126.653 136.651  0.00  0.00    +0.000 A 
ATOM     26  C   UNL     1     113.266 128.245 136.809  0.00  0.00    +0.000 A 
ATOM     27  C   UNL     1     113.669 127.146 135.989  0.00  0.00    +0.000 A 
ATOM     28  C   UNL     1     113.468 126.955 137.391  0.00  0.00    +0.000 A 
ATOM     29  C   UNL     1     113.467 127.942 136.068  0.00  0.00    +0.000 A 
ATOM     30  C   UNL     1     113.267 127.751 137.470  0.00  0.00    +0.000 A 
BRANCH  25  31
ATOM     31  O   UNL     1     113.870 125.857 136.572  0.00  0.00    +0.000 OA
BRANCH  31  40
ATOM     32  O   UNL     1     112.522 125.440 136.348  0.00  0.00    +0.000 OA
ATOM     33  O   UNL     1     113.056 123.211 137.282  0.00  0.00    +0.000 OA
ATOM     34  O   UNL     1     111.530 123.537 136.747  0.00  0.00    +0.000 OA
ATOM     35  O   UNL     1     114.226 124.371 137.195  0.00  0.00    +0.000 OA
ATOM     36  C   UNL     1     112.878 123.954 136.971  0.00  0.00    +0.000 C 
ATOM     37  C   UNL     1     112.115 124.117 136.703  0.00  0.00    +0.000 C 
ATOM     38  C   UNL     1     113.464 124.534 136.927  0.00  0.00    +0.000 C 
ATOM     39  C   UNL     1     111.937 124.861 136.391  0.00  0.00    +0.000 C 
ATOM     40  C   UNL     1     113.285 125.277 136.615  0.00  0.00    +0.000 C 
BRANCH  39  42
ATOM     41  O   UNL     1     111.060 125.346 135.373  0.00  0.00    +0.000 OA
ATOM     42  C   UNL     1     111.175 125.023 136.124  0.00  0.00    +0.000 C 
ENDBRANCH  39  42
ENDBRANCH  31  40
ENDBRANCH  25  31
ENDBRANCH  11  26
TORSDOF 6
ENDMDL
MODEL 8
REMARK VINA RESULT:      -9.9      2.186      3.258
REMARK  Name = 15596617
REMARK  6 active torsions:
REMARK  status: ('A' for Active; 'I' for Inactive)
REMARK    1  A    between atoms: O_6  and  C_27
REMARK    2  A    between atoms: O_6  and  C_36
REMARK    3  A    between atoms: C_18  and  C_21
REMARK    4  A    between atoms: C_20  and  C_26
REMARK    5  A    between atoms: C_25  and  C_30
REMARK    6  A    between atoms: C_34  and  C_38
REMARK                            x       y       z     vdW  Elec       q    Type
REMARK                         _______ _______ _______ _____ _____    ______ ____
ROOT
ATOM      1  O   UNL     1     110.470 126.718 136.799  0.00  0.00    +0.000 OA
ATOM      2  O   UNL     1     111.948 125.042 138.618  0.00  0.00    +0.000 OA
ATOM      3  O   UNL     1     111.448 124.128 135.957  0.00  0.00    +0.000 OA
ATOM      4  O   UNL     1     110.713 124.937 135.016  0.00  0.00    +0.000 OA
ATOM      5  C   UNL     1     111.216 125.864 137.706  0.00  0.00    +0.000 A 
ATOM      6  C   UNL     1     110.889 125.985 136.958  0.00  0.00    +0.000 A 
ATOM      7  C   UNL     1     111.621 125.164 137.870  0.00  0.00    +0.000 A 
ATOM      8  C   UNL     1     110.967 125.406 136.375  0.00  0.00    +0.000 A 
ATOM      9  C   UNL     1     111.698 124.585 137.287  0.00  0.00    +0.000 A 
ATOM     10  C   UNL     1     111.371 124.706 136.540  0.00  0.00    +0.000 A 
ATOM     11  C   UNL     1     110.127 126.850 136.022  0.00  0.00    +0.000 A 
ATOM     12  C   UNL     1     110.631 125.520 135.593  0.00  0.00    +0.000 A 
ATOM     13  C   UNL     1     110.208 126.248 135.415  0.00  0.00    +0.000 A 
ENDROOT
BRANCH   5  20
ATOM     14  O   UNL     1     110.454 126.478 138.747  0.00  0.00    +0.000 OA
ATOM     15  O   UNL     1     112.432 126.950 137.956  0.00  0.00    +0.000 OA
ATOM     16  O   UNL     1     112.279 128.107 139.121  0.00  0.00    +0.000 OA
ATOM     17  O   UNL     1     110.908 128.178 140.038  0.00  0.00    +0.000 OA
ATOM     18  C   UNL     1     111.747 126.986 138.414  0.00  0.00    +0.000 C 
ATOM     19  C   UNL     1     111.670 127.564 138.997  0.00  0.00    +0.000 C 
ATOM     20  C   UNL     1     111.139 126.442 138.289  0.00  0.00    +0.000 C 
ATOM     21  C   UNL     1     110.985 127.599 139.455  0.00  0.00    +0.000 C 
ATOM     22  C   UNL     1     110.377 127.056 139.330  0.00  0.00    +0.000 C 
BRANCH  22  24
ATOM     23  O   UNL     1     109.008 126.703 139.537  0.00  0.00    +0.000 OA
ATOM     24  C   UNL     1     109.691 127.091 139.788  0.00  0.00    +0.000 C 
ENDBRANCH  22  24
ENDBRANCH   5  20
BRANCH  11  26
ATOM     25  C   UNL     1     108.916 128.953 135.537  0.00  0.00    +0.000 A 
ATOM     26  C   UNL     1     109.724 127.551 135.860  0.00  0.00    +0.000 A 
ATOM     27  C   UNL     1     109.718 128.888 135.353  0.00  0.00    +0.000 A 
ATOM     28  C   UNL     1     108.518 128.318 135.882  0.00  0.00    +0.000 A 
ATOM     29  C   UNL     1     110.121 128.187 135.515  0.00  0.00    +0.000 A 
ATOM     30  C   UNL     1     108.922 127.618 136.044  0.00  0.00    +0.000 A 
BRANCH  25  31
ATOM     31  O   UNL     1     108.512 129.654 135.375  0.00  0.00    +0.000 OA
BRANCH  31  40
ATOM     32  O   UNL     1     108.766 130.245 136.651  0.00  0.00    +0.000 OA
ATOM     33  O   UNL     1     108.804 132.488 135.605  0.00  0.00    +0.000 OA
ATOM     34  O   UNL     1     109.045 132.331 137.229  0.00  0.00    +0.000 OA
ATOM     35  O   UNL     1     108.537 131.149 134.678  0.00  0.00    +0.000 OA
ATOM     36  C   UNL     1     108.791 131.740 135.954  0.00  0.00    +0.000 C 
ATOM     37  C   UNL     1     108.912 131.662 136.766  0.00  0.00    +0.000 C 
ATOM     38  C   UNL     1     108.658 131.071 135.490  0.00  0.00    +0.000 C 
ATOM     39  C   UNL     1     108.899 130.913 137.115  0.00  0.00    +0.000 C 
ATOM     40  C   UNL     1     108.645 130.323 135.839  0.00  0.00    +0.000 C 
BRANCH  39  42
ATOM     41  O   UNL     1     108.511 130.367 138.377  0.00  0.00    +0.000 OA
ATOM     42  C   UNL     1     109.020 130.835 137.927  0.00  0.00    +0.000 C 
ENDBRANCH  39  42
ENDBRANCH  31  40
ENDBRANCH  25  31
ENDBRANCH  11  26
TORSDOF 6
ENDMDL
MODEL 9
REMARK VINA RESULT:      -9.8      2.539      3.861
REMARK  Name = 15596617
REMARK  6 active torsions:
REMARK  status: ('A' for Active; 'I' for Inactive)
REMARK    1  A    between atoms: O_6  and  C_27
REMARK    2  A    between atoms: O_6  and  C_36
REMARK    3  A    between atoms: C_18  and  C_21
REMARK    4  A    between atoms: C_20  and  C_26
REMARK    5  A    between atoms: C_25  and  C_30
REMARK    6  A    between atoms: C_34  and  C_38
REMARK                            x       y       z     vdW  Elec       q    Type
REMARK                         _______ _______ _______ _____ _____    ______ ____
ROOT
ATOM      1  O   UNL     1     111.942 126.584 137.381  0.00  0.00    +0.000 OA
ATOM      2  O   UNL     1     110.917 126.728 134.692  0.00  0.00    +0.000 OA
ATOM      3  O   UNL     1     111.101 124.189 135.991  0.00  0.00    +0.000 OA
ATOM      4  O   UNL     1     111.609 124.075 137.336  0.00  0.00    +0.000 OA
ATOM      5  C   UNL     1     111.423 126.643 136.026  0.00  0.00    +0.000 A 
ATOM      6  C   UNL     1     111.623 126.191 136.686  0.00  0.00    +0.000 A 
ATOM      7  C   UNL     1     111.116 126.276 135.353  0.00  0.00    +0.000 A 
ATOM      8  C   UNL     1     111.515 125.373 136.675  0.00  0.00    +0.000 A 
ATOM      9  C   UNL     1     111.009 125.458 135.341  0.00  0.00    +0.000 A 
ATOM     10  C   UNL     1     111.209 125.006 136.002  0.00  0.00    +0.000 A 
ATOM     11  C   UNL     1     112.151 126.119 138.072  0.00  0.00    +0.000 A 
ATOM     12  C   UNL     1     111.719 124.892 137.356  0.00  0.00    +0.000 A 
ATOM     13  C   UNL     1     112.040 125.268 138.060  0.00  0.00    +0.000 A 
ENDROOT
BRANCH   5  20
ATOM     14  O   UNL     1     112.269 127.782 135.862  0.00  0.00    +0.000 OA
ATOM     15  O   UNL     1     110.160 127.634 136.400  0.00  0.00    +0.000 OA
ATOM     16  O   UNL     1     110.373 129.270 136.423  0.00  0.00    +0.000 OA
ATOM     17  O   UNL     1     111.852 129.914 136.072  0.00  0.00    +0.000 OA
ATOM     18  C   UNL     1     110.898 127.957 136.224  0.00  0.00    +0.000 C 
ATOM     19  C   UNL     1     111.005 128.775 136.236  0.00  0.00    +0.000 C 
ATOM     20  C   UNL     1     111.530 127.461 136.037  0.00  0.00    +0.000 C 
ATOM     21  C   UNL     1     111.745 129.097 136.060  0.00  0.00    +0.000 C 
ATOM     22  C   UNL     1     112.377 128.600 135.873  0.00  0.00    +0.000 C 
BRANCH  22  24
ATOM     23  O   UNL     1     113.794 128.456 135.761  0.00  0.00    +0.000 OA
ATOM     24  C   UNL     1     113.116 128.922 135.698  0.00  0.00    +0.000 C 
ENDBRANCH  22  24
ENDBRANCH   5  20
BRANCH  11  26
ATOM     25  C   UNL     1     113.071 127.226 140.086  0.00  0.00    +0.000 A 
ATOM     26  C   UNL     1     112.458 126.488 138.743  0.00  0.00    +0.000 A 
ATOM     27  C   UNL     1     112.254 127.173 139.982  0.00  0.00    +0.000 A 
ATOM     28  C   UNL     1     113.581 126.911 139.520  0.00  0.00    +0.000 A 
ATOM     29  C   UNL     1     111.948 126.804 139.311  0.00  0.00    +0.000 A 
ATOM     30  C   UNL     1     113.274 126.542 138.848  0.00  0.00    +0.000 A 
BRANCH  25  31
ATOM     31  O   UNL     1     113.378 127.595 140.757  0.00  0.00    +0.000 OA
BRANCH  31  40
ATOM     32  O   UNL     1     113.729 128.867 140.209  0.00  0.00    +0.000 OA
ATOM     33  O   UNL     1     112.707 129.990 142.164  0.00  0.00    +0.000 OA
ATOM     34  O   UNL     1     113.398 130.888 140.965  0.00  0.00    +0.000 OA
ATOM     35  O   UNL     1     112.697 128.344 142.060  0.00  0.00    +0.000 OA
ATOM     36  C   UNL     1     113.048 129.616 141.512  0.00  0.00    +0.000 C 
ATOM     37  C   UNL     1     113.393 130.065 140.913  0.00  0.00    +0.000 C 
ATOM     38  C   UNL     1     113.042 128.793 141.461  0.00  0.00    +0.000 C 
ATOM     39  C   UNL     1     113.734 129.690 140.261  0.00  0.00    +0.000 C 
ATOM     40  C   UNL     1     113.383 128.418 140.808  0.00  0.00    +0.000 C 
BRANCH  39  42
ATOM     41  O   UNL     1     113.736 130.160 138.911  0.00  0.00    +0.000 OA
ATOM     42  C   UNL     1     114.079 130.139 139.661  0.00  0.00    +0.000 C 
ENDBRANCH  39  42
ENDBRANCH  31  40
ENDBRANCH  25  31
ENDBRANCH  11  26
TORSDOF 6
ENDMDL
