MODEL 1
REMARK VINA RESULT:      -9.5      0.000      0.000
REMARK  Name = 131838970
REMARK  7 active torsions:
REMARK  status: ('A' for Active; 'I' for Inactive)
REMARK    1  A    between atoms: O_2  and  C_15
REMARK    2  A    between atoms: O_2  and  C_17
REMARK    3  A    between atoms: C_14  and  C_16
REMARK    4  A    between atoms: C_19  and  C_20
REMARK    5  A    between atoms: C_20  and  C_22
REMARK    6  A    between atoms: C_22  and  C_25
REMARK    7  A    between atoms: C_25  and  C_26
REMARK                            x       y       z     vdW  Elec       q    Type
REMARK                         _______ _______ _______ _____ _____    ______ ____
ROOT
ATOM      1  C   UNL     1     109.726 126.609 135.794  0.00  0.00    +0.000 A 
ATOM      2  C   UNL     1     110.205 126.109 136.243  0.00  0.00    +0.000 A 
ATOM      3  C   UNL     1     110.600 125.482 135.880  0.00  0.00    +0.000 A 
ATOM      4  C   UNL     1     109.643 126.484 134.984  0.00  0.00    +0.000 A 
ATOM      5  C   UNL     1     110.517 125.356 135.069  0.00  0.00    +0.000 A 
ATOM      6  C   UNL     1     110.039 125.857 134.621  0.00  0.00    +0.000 A 
ENDROOT
BRANCH   1   7
ATOM      7  O   UNL     1     109.331 127.236 136.157  0.00  0.00    +0.000 OA
BRANCH   7  16
ATOM      8  O   UNL     1     110.317 128.244 135.926  0.00  0.00    +0.000 OA
ATOM      9  O   UNL     1     108.527 129.888 135.460  0.00  0.00    +0.000 OA
ATOM     10  O   UNL     1     110.109 130.347 135.384  0.00  0.00    +0.000 OA
ATOM     11  O   UNL     1     108.138 128.332 135.846  0.00  0.00    +0.000 OA
ATOM     12  C   UNL     1     109.124 129.340 135.615  0.00  0.00    +0.000 C 
ATOM     13  C   UNL     1     109.915 129.570 135.577  0.00  0.00    +0.000 C 
ATOM     14  C   UNL     1     108.928 128.562 135.808  0.00  0.00    +0.000 C 
ATOM     15  C   UNL     1     110.511 129.022 135.733  0.00  0.00    +0.000 C 
ATOM     16  C   UNL     1     109.525 128.014 135.964  0.00  0.00    +0.000 C 
BRANCH  15  19
ATOM     17  O   UNL     1     111.699 129.247 134.971  0.00  0.00    +0.000 OA
ATOM     18  O   UNL     1     111.698 129.485 136.381  0.00  0.00    +0.000 OA
ATOM     19  C   UNL     1     111.303 129.251 135.696  0.00  0.00    +0.000 C 
ENDBRANCH  15  19
ENDBRANCH   7  16
ENDBRANCH   1   7
BRANCH   3  20
ATOM     20  C   UNL     1     111.079 124.981 136.328  0.00  0.00    +0.000 C 
BRANCH  20  21
ATOM     21  C   UNL     1     111.874 125.166 136.446  0.00  0.00    +0.000 C 
BRANCH  21  23
ATOM     22  O   UNL     1     112.112 123.866 136.990  0.00  0.00    +0.000 OA
ATOM     23  C   UNL     1     112.364 124.638 136.848  0.00  0.00    +0.000 C 
BRANCH  23  26
ATOM     24  O   UNL     1     113.721 124.175 136.031  0.00  0.00    +0.000 OA
ATOM     25  O   UNL     1     113.980 126.084 138.710  0.00  0.00    +0.000 OA
ATOM     26  C   UNL     1     113.107 124.884 137.110  0.00  0.00    +0.000 A 
ATOM     27  C   UNL     1     113.786 124.652 136.702  0.00  0.00    +0.000 A 
ATOM     28  C   UNL     1     113.173 125.361 137.780  0.00  0.00    +0.000 A 
ATOM     29  C   UNL     1     113.916 125.607 138.041  0.00  0.00    +0.000 A 
ATOM     30  C   UNL     1     114.529 124.898 136.963  0.00  0.00    +0.000 A 
ATOM     31  C   UNL     1     114.594 125.375 137.632  0.00  0.00    +0.000 A 
ENDBRANCH  23  26
ENDBRANCH  21  23
ENDBRANCH  20  21
ENDBRANCH   3  20
TORSDOF 7
ENDMDL
MODEL 2
REMARK VINA RESULT:      -8.5      1.196      2.567
REMARK  Name = 131838970
REMARK  7 active torsions:
REMARK  status: ('A' for Active; 'I' for Inactive)
REMARK    1  A    between atoms: O_2  and  C_15
REMARK    2  A    between atoms: O_2  and  C_17
REMARK    3  A    between atoms: C_14  and  C_16
REMARK    4  A    between atoms: C_19  and  C_20
REMARK    5  A    between atoms: C_20  and  C_22
REMARK    6  A    between atoms: C_22  and  C_25
REMARK    7  A    between atoms: C_25  and  C_26
REMARK                            x       y       z     vdW  Elec       q    Type
REMARK                         _______ _______ _______ _____ _____    ______ ____
ROOT
ATOM      1  C   UNL     1     111.640 129.190 136.128  0.00  0.00    +0.000 A 
ATOM      2  C   UNL     1     112.045 128.628 136.576  0.00  0.00    +0.000 A 
ATOM      3  C   UNL     1     112.703 128.244 136.260  0.00  0.00    +0.000 A 
ATOM      4  C   UNL     1     111.892 129.368 135.364  0.00  0.00    +0.000 A 
ATOM      5  C   UNL     1     112.956 128.422 135.494  0.00  0.00    +0.000 A 
ATOM      6  C   UNL     1     112.550 128.984 135.047  0.00  0.00    +0.000 A 
ENDROOT
BRANCH   1   7
ATOM      7  O   UNL     1     110.982 129.574 136.445  0.00  0.00    +0.000 OA
BRANCH   7  16
ATOM      8  O   UNL     1     110.046 128.505 136.292  0.00  0.00    +0.000 OA
ATOM      9  O   UNL     1     108.295 130.130 135.646  0.00  0.00    +0.000 OA
ATOM     10  O   UNL     1     107.943 128.520 135.708  0.00  0.00    +0.000 OA
ATOM     11  O   UNL     1     109.815 130.657 136.014  0.00  0.00    +0.000 OA
ATOM     12  C   UNL     1     108.879 129.588 135.861  0.00  0.00    +0.000 C 
ATOM     13  C   UNL     1     108.702 128.784 135.892  0.00  0.00    +0.000 C 
ATOM     14  C   UNL     1     109.639 129.853 136.045  0.00  0.00    +0.000 C 
ATOM     15  C   UNL     1     109.286 128.242 136.108  0.00  0.00    +0.000 C 
ATOM     16  C   UNL     1     110.222 129.311 136.261  0.00  0.00    +0.000 C 
BRANCH  15  19
ATOM     17  O   UNL     1     109.192 126.970 135.463  0.00  0.00    +0.000 OA
ATOM     18  O   UNL     1     108.854 127.097 136.846  0.00  0.00    +0.000 OA
ATOM     19  C   UNL     1     109.111 127.437 136.139  0.00  0.00    +0.000 C 
ENDBRANCH  15  19
ENDBRANCH   7  16
ENDBRANCH   1   7
BRANCH   3  20
ATOM     20  C   UNL     1     113.108 127.682 136.707  0.00  0.00    +0.000 C 
BRANCH  20  21
ATOM     21  C   UNL     1     113.015 126.879 136.544  0.00  0.00    +0.000 C 
BRANCH  21  23
ATOM     22  O   UNL     1     113.857 126.546 137.650  0.00  0.00    +0.000 OA
ATOM     23  C   UNL     1     113.336 126.315 137.054  0.00  0.00    +0.000 C 
BRANCH  23  26
ATOM     24  O   UNL     1     114.406 125.263 136.369  0.00  0.00    +0.000 OA
ATOM     25  O   UNL     1     111.460 124.186 137.394  0.00  0.00    +0.000 OA
ATOM     26  C   UNL     1     113.135 125.520 136.968  0.00  0.00    +0.000 A 
ATOM     27  C   UNL     1     113.669 124.993 136.625  0.00  0.00    +0.000 A 
ATOM     28  C   UNL     1     112.397 125.250 137.224  0.00  0.00    +0.000 A 
ATOM     29  C   UNL     1     112.196 124.455 137.138  0.00  0.00    +0.000 A 
ATOM     30  C   UNL     1     113.468 124.198 136.539  0.00  0.00    +0.000 A 
ATOM     31  C   UNL     1     112.732 123.929 136.795  0.00  0.00    +0.000 A 
ENDBRANCH  23  26
ENDBRANCH  21  23
ENDBRANCH  20  21
ENDBRANCH   3  20
TORSDOF 7
ENDMDL
MODEL 3
REMARK VINA RESULT:      -8.4     12.744     13.983
REMARK  Name = 131838970
REMARK  7 active torsions:
REMARK  status: ('A' for Active; 'I' for Inactive)
REMARK    1  A    between atoms: O_2  and  C_15
REMARK    2  A    between atoms: O_2  and  C_17
REMARK    3  A    between atoms: C_14  and  C_16
REMARK    4  A    between atoms: C_19  and  C_20
REMARK    5  A    between atoms: C_20  and  C_22
REMARK    6  A    between atoms: C_22  and  C_25
REMARK    7  A    between atoms: C_25  and  C_26
REMARK                            x       y       z     vdW  Elec       q    Type
REMARK                         _______ _______ _______ _____ _____    ______ ____
ROOT
ATOM      1  C   UNL     1     104.795 125.888 148.726  0.00  0.00    +0.000 A 
ATOM      2  C   UNL     1     104.372 125.186 148.624  0.00  0.00    +0.000 A 
ATOM      3  C   UNL     1     103.617 125.205 148.293  0.00  0.00    +0.000 A 
ATOM      4  C   UNL     1     104.463 126.607 148.496  0.00  0.00    +0.000 A 
ATOM      5  C   UNL     1     103.284 125.924 148.063  0.00  0.00    +0.000 A 
ATOM      6  C   UNL     1     103.708 126.625 148.165  0.00  0.00    +0.000 A 
ENDROOT
BRANCH   1   7
ATOM      7  O   UNL     1     105.550 125.870 149.057  0.00  0.00    +0.000 OA
BRANCH   7  16
ATOM      8  O   UNL     1     106.293 126.074 147.853  0.00  0.00    +0.000 OA
ATOM      9  O   UNL     1     107.990 124.446 148.624  0.00  0.00    +0.000 OA
ATOM     10  O   UNL     1     108.167 125.193 147.165  0.00  0.00    +0.000 OA
ATOM     11  O   UNL     1     106.682 124.784 149.571  0.00  0.00    +0.000 OA
ATOM     12  C   UNL     1     107.425 124.989 148.367  0.00  0.00    +0.000 C 
ATOM     13  C   UNL     1     107.513 125.362 147.638  0.00  0.00    +0.000 C 
ATOM     14  C   UNL     1     106.770 125.157 148.841  0.00  0.00    +0.000 C 
ATOM     15  C   UNL     1     106.948 125.905 147.381  0.00  0.00    +0.000 C 
ATOM     16  C   UNL     1     106.205 125.700 148.584  0.00  0.00    +0.000 C 
BRANCH  15  19
ATOM     17  O   UNL     1     106.729 125.928 145.969  0.00  0.00    +0.000 OA
ATOM     18  O   UNL     1     107.429 127.002 146.602  0.00  0.00    +0.000 OA
ATOM     19  C   UNL     1     107.035 126.279 146.651  0.00  0.00    +0.000 C 
ENDBRANCH  15  19
ENDBRANCH   7  16
ENDBRANCH   1   7
BRANCH   3  20
ATOM     20  C   UNL     1     103.194 124.504 148.191  0.00  0.00    +0.000 C 
BRANCH  20  21
ATOM     21  C   UNL     1     102.906 124.300 147.445  0.00  0.00    +0.000 C 
BRANCH  21  23
ATOM     22  O   UNL     1     102.363 123.093 147.984  0.00  0.00    +0.000 OA
ATOM     23  C   UNL     1     102.502 123.588 147.340  0.00  0.00    +0.000 C 
BRANCH  23  26
ATOM     24  O   UNL     1     100.886 123.574 147.009  0.00  0.00    +0.000 OA
ATOM     25  O   UNL     1     103.056 122.739 144.668  0.00  0.00    +0.000 OA
ATOM     26  C   UNL     1     102.236 123.372 146.589  0.00  0.00    +0.000 A 
ATOM     27  C   UNL     1     101.429 123.365 146.423  0.00  0.00    +0.000 A 
ATOM     28  C   UNL     1     102.779 123.164 146.003  0.00  0.00    +0.000 A 
ATOM     29  C   UNL     1     102.514 122.948 145.253  0.00  0.00    +0.000 A 
ATOM     30  C   UNL     1     101.163 123.149 145.673  0.00  0.00    +0.000 A 
ATOM     31  C   UNL     1     101.705 122.941 145.088  0.00  0.00    +0.000 A 
ENDBRANCH  23  26
ENDBRANCH  21  23
ENDBRANCH  20  21
ENDBRANCH   3  20
TORSDOF 7
ENDMDL
MODEL 4
REMARK VINA RESULT:      -8.4      1.234      5.026
REMARK  Name = 131838970
REMARK  7 active torsions:
REMARK  status: ('A' for Active; 'I' for Inactive)
REMARK    1  A    between atoms: O_2  and  C_15
REMARK    2  A    between atoms: O_2  and  C_17
REMARK    3  A    between atoms: C_14  and  C_16
REMARK    4  A    between atoms: C_19  and  C_20
REMARK    5  A    between atoms: C_20  and  C_22
REMARK    6  A    between atoms: C_22  and  C_25
REMARK    7  A    between atoms: C_25  and  C_26
REMARK                            x       y       z     vdW  Elec       q    Type
REMARK                         _______ _______ _______ _____ _____    ______ ____
ROOT
ATOM      1  C   UNL     1     110.494 125.576 135.999  0.00  0.00    +0.000 A 
ATOM      2  C   UNL     1     109.975 126.187 136.199  0.00  0.00    +0.000 A 
ATOM      3  C   UNL     1     109.601 126.620 135.605  0.00  0.00    +0.000 A 
ATOM      4  C   UNL     1     110.638 125.399 135.207  0.00  0.00    +0.000 A 
ATOM      5  C   UNL     1     109.745 126.442 134.811  0.00  0.00    +0.000 A 
ATOM      6  C   UNL     1     110.263 125.832 134.613  0.00  0.00    +0.000 A 
ENDROOT
BRANCH   1   7
ATOM      7  O   UNL     1     110.869 125.143 136.593  0.00  0.00    +0.000 OA
BRANCH   7  16
ATOM      8  O   UNL     1     112.020 125.972 136.765  0.00  0.00    +0.000 OA
ATOM      9  O   UNL     1     113.443 123.955 136.953  0.00  0.00    +0.000 OA
ATOM     10  O   UNL     1     114.119 125.455 137.062  0.00  0.00    +0.000 OA
ATOM     11  O   UNL     1     111.817 123.799 136.719  0.00  0.00    +0.000 OA
ATOM     12  C   UNL     1     112.968 124.627 136.890  0.00  0.00    +0.000 C 
ATOM     13  C   UNL     1     113.307 125.377 136.945  0.00  0.00    +0.000 C 
ATOM     14  C   UNL     1     112.155 124.548 136.773  0.00  0.00    +0.000 C 
ATOM     15  C   UNL     1     112.833 126.049 136.882  0.00  0.00    +0.000 C 
ATOM     16  C   UNL     1     111.681 125.221 136.710  0.00  0.00    +0.000 C 
BRANCH  15  19
ATOM     17  O   UNL     1     113.481 127.162 136.263  0.00  0.00    +0.000 OA
ATOM     18  O   UNL     1     113.200 127.188 137.664  0.00  0.00    +0.000 OA
ATOM     19  C   UNL     1     113.171 126.799 136.937  0.00  0.00    +0.000 C 
ENDBRANCH  15  19
ENDBRANCH   7  16
ENDBRANCH   1   7
BRANCH   3  20
ATOM     20  C   UNL     1     109.082 127.230 135.803  0.00  0.00    +0.000 C 
BRANCH  20  21
ATOM     21  C   UNL     1     109.345 128.012 135.801  0.00  0.00    +0.000 C 
BRANCH  21  23
ATOM     22  O   UNL     1     108.004 128.505 135.802  0.00  0.00    +0.000 OA
ATOM     23  C   UNL     1     108.809 128.627 135.928  0.00  0.00    +0.000 C 
BRANCH  23  26
ATOM     24  O   UNL     1     108.983 129.858 134.844  0.00  0.00    +0.000 OA
ATOM     25  O   UNL     1     109.719 130.343 138.024  0.00  0.00    +0.000 OA
ATOM     26  C   UNL     1     109.080 129.364 136.181  0.00  0.00    +0.000 A 
ATOM     27  C   UNL     1     109.168 129.980 135.639  0.00  0.00    +0.000 A 
ATOM     28  C   UNL     1     109.264 129.485 136.976  0.00  0.00    +0.000 A 
ATOM     29  C   UNL     1     109.535 130.222 137.229  0.00  0.00    +0.000 A 
ATOM     30  C   UNL     1     109.439 130.717 135.892  0.00  0.00    +0.000 A 
ATOM     31  C   UNL     1     109.622 130.838 136.687  0.00  0.00    +0.000 A 
ENDBRANCH  23  26
ENDBRANCH  21  23
ENDBRANCH  20  21
ENDBRANCH   3  20
TORSDOF 7
ENDMDL
MODEL 5
REMARK VINA RESULT:      -8.4      3.665      5.303
REMARK  Name = 131838970
REMARK  7 active torsions:
REMARK  status: ('A' for Active; 'I' for Inactive)
REMARK    1  A    between atoms: O_2  and  C_15
REMARK    2  A    between atoms: O_2  and  C_17
REMARK    3  A    between atoms: C_14  and  C_16
REMARK    4  A    between atoms: C_19  and  C_20
REMARK    5  A    between atoms: C_20  and  C_22
REMARK    6  A    between atoms: C_22  and  C_25
REMARK    7  A    between atoms: C_25  and  C_26
REMARK                            x       y       z     vdW  Elec       q    Type
REMARK                         _______ _______ _______ _____ _____    ______ ____
ROOT
ATOM      1  C   UNL     1     113.127 127.893 140.442  0.00  0.00    +0.000 A 
ATOM      2  C   UNL     1     113.200 127.675 139.649  0.00  0.00    +0.000 A 
ATOM      3  C   UNL     1     113.671 127.030 139.441  0.00  0.00    +0.000 A 
ATOM      4  C   UNL     1     113.525 127.467 141.025  0.00  0.00    +0.000 A 
ATOM      5  C   UNL     1     114.069 126.604 140.026  0.00  0.00    +0.000 A 
ATOM      6  C   UNL     1     113.996 126.823 140.817  0.00  0.00    +0.000 A 
ENDROOT
BRANCH   1   7
ATOM      7  O   UNL     1     112.656 128.537 140.650  0.00  0.00    +0.000 OA
BRANCH   7  16
ATOM      8  O   UNL     1     113.654 129.543 140.466  0.00  0.00    +0.000 OA
ATOM      9  O   UNL     1     112.764 130.782 142.415  0.00  0.00    +0.000 OA
ATOM     10  O   UNL     1     114.058 131.375 141.581  0.00  0.00    +0.000 OA
ATOM     11  O   UNL     1     112.063 129.363 141.949  0.00  0.00    +0.000 OA
ATOM     12  C   UNL     1     113.061 130.369 141.765  0.00  0.00    +0.000 C 
ATOM     13  C   UNL     1     113.708 130.666 141.349  0.00  0.00    +0.000 C 
ATOM     14  C   UNL     1     112.710 129.660 141.533  0.00  0.00    +0.000 C 
ATOM     15  C   UNL     1     114.004 130.253 140.699  0.00  0.00    +0.000 C 
ATOM     16  C   UNL     1     113.006 129.247 140.883  0.00  0.00    +0.000 C 
BRANCH  15  19
ATOM     17  O   UNL     1     115.418 130.372 140.532  0.00  0.00    +0.000 OA
ATOM     18  O   UNL     1     114.532 131.020 139.615  0.00  0.00    +0.000 OA
ATOM     19  C   UNL     1     114.651 130.549 140.282  0.00  0.00    +0.000 C 
ENDBRANCH  15  19
ENDBRANCH   7  16
ENDBRANCH   1   7
BRANCH   3  20
ATOM     20  C   UNL     1     113.745 126.811 138.649  0.00  0.00    +0.000 C 
BRANCH  20  21
ATOM     21  C   UNL     1     113.421 126.099 138.386  0.00  0.00    +0.000 C 
BRANCH  21  23
ATOM     22  O   UNL     1     114.011 126.296 137.100  0.00  0.00    +0.000 OA
ATOM     23  C   UNL     1     113.505 125.876 137.596  0.00  0.00    +0.000 C 
BRANCH  23  26
ATOM     24  O   UNL     1     114.270 124.439 137.325  0.00  0.00    +0.000 OA
ATOM     25  O   UNL     1     111.044 124.736 136.694  0.00  0.00    +0.000 OA
ATOM     26  C   UNL     1     113.081 125.232 137.303  0.00  0.00    +0.000 A 
ATOM     27  C   UNL     1     113.463 124.513 137.167  0.00  0.00    +0.000 A 
ATOM     28  C   UNL     1     112.274 125.306 137.145  0.00  0.00    +0.000 A 
ATOM     29  C   UNL     1     111.850 124.662 136.852  0.00  0.00    +0.000 A 
ATOM     30  C   UNL     1     113.039 123.869 136.874  0.00  0.00    +0.000 A 
ATOM     31  C   UNL     1     112.233 123.943 136.716  0.00  0.00    +0.000 A 
ENDBRANCH  23  26
ENDBRANCH  21  23
ENDBRANCH  20  21
ENDBRANCH   3  20
TORSDOF 7
ENDMDL
MODEL 6
REMARK VINA RESULT:      -8.3      1.535      2.547
REMARK  Name = 131838970
REMARK  7 active torsions:
REMARK  status: ('A' for Active; 'I' for Inactive)
REMARK    1  A    between atoms: O_2  and  C_15
REMARK    2  A    between atoms: O_2  and  C_17
REMARK    3  A    between atoms: C_14  and  C_16
REMARK    4  A    between atoms: C_19  and  C_20
REMARK    5  A    between atoms: C_20  and  C_22
REMARK    6  A    between atoms: C_22  and  C_25
REMARK    7  A    between atoms: C_25  and  C_26
REMARK                            x       y       z     vdW  Elec       q    Type
REMARK                         _______ _______ _______ _____ _____    ______ ____
ROOT
ATOM      1  C   UNL     1     109.645 128.807 135.070  0.00  0.00    +0.000 A 
ATOM      2  C   UNL     1     109.705 127.986 135.132  0.00  0.00    +0.000 A 
ATOM      3  C   UNL     1     110.411 127.608 134.934  0.00  0.00    +0.000 A 
ATOM      4  C   UNL     1     110.290 129.249 134.811  0.00  0.00    +0.000 A 
ATOM      5  C   UNL     1     111.057 128.051 134.673  0.00  0.00    +0.000 A 
ATOM      6  C   UNL     1     110.997 128.872 134.612  0.00  0.00    +0.000 A 
ENDROOT
BRANCH   1   7
ATOM      7  O   UNL     1     108.939 129.185 135.269  0.00  0.00    +0.000 OA
BRANCH   7  16
ATOM      8  O   UNL     1     109.257 129.352 136.652  0.00  0.00    +0.000 OA
ATOM      9  O   UNL     1     107.995 131.481 136.684  0.00  0.00    +0.000 OA
ATOM     10  O   UNL     1     108.732 130.938 138.056  0.00  0.00    +0.000 OA
ATOM     11  O   UNL     1     108.098 130.604 135.290  0.00  0.00    +0.000 OA
ATOM     12  C   UNL     1     108.415 130.771 136.673  0.00  0.00    +0.000 C 
ATOM     13  C   UNL     1     108.784 130.500 137.359  0.00  0.00    +0.000 C 
ATOM     14  C   UNL     1     108.467 130.333 135.976  0.00  0.00    +0.000 C 
ATOM     15  C   UNL     1     109.205 129.791 137.348  0.00  0.00    +0.000 C 
ATOM     16  C   UNL     1     108.887 129.624 135.965  0.00  0.00    +0.000 C 
BRANCH  15  19
ATOM     17  O   UNL     1     110.333 129.781 138.225  0.00  0.00    +0.000 OA
ATOM     18  O   UNL     1     109.185 128.986 138.529  0.00  0.00    +0.000 OA
ATOM     19  C   UNL     1     109.574 129.519 138.034  0.00  0.00    +0.000 C 
ENDBRANCH  15  19
ENDBRANCH   7  16
ENDBRANCH   1   7
BRANCH   3  20
ATOM     20  C   UNL     1     110.472 126.788 134.995  0.00  0.00    +0.000 C 
BRANCH  20  21
ATOM     21  C   UNL     1     110.863 126.450 135.638  0.00  0.00    +0.000 C 
BRANCH  21  23
ATOM     22  O   UNL     1     110.260 125.184 135.362  0.00  0.00    +0.000 OA
ATOM     23  C   UNL     1     110.821 125.635 135.763  0.00  0.00    +0.000 C 
BRANCH  23  26
ATOM     24  O   UNL     1     110.408 125.477 137.353  0.00  0.00    +0.000 OA
ATOM     25  O   UNL     1     113.317 124.343 136.283  0.00  0.00    +0.000 OA
ATOM     26  C   UNL     1     111.342 125.272 136.290  0.00  0.00    +0.000 A 
ATOM     27  C   UNL     1     111.136 125.193 137.085  0.00  0.00    +0.000 A 
ATOM     28  C   UNL     1     112.070 124.989 136.023  0.00  0.00    +0.000 A 
ATOM     29  C   UNL     1     112.590 124.626 136.551  0.00  0.00    +0.000 A 
ATOM     30  C   UNL     1     111.656 124.830 137.613  0.00  0.00    +0.000 A 
ATOM     31  C   UNL     1     112.383 124.547 137.345  0.00  0.00    +0.000 A 
ENDBRANCH  23  26
ENDBRANCH  21  23
ENDBRANCH  20  21
ENDBRANCH   3  20
TORSDOF 7
ENDMDL
MODEL 7
REMARK VINA RESULT:      -8.2      1.432      2.401
REMARK  Name = 131838970
REMARK  7 active torsions:
REMARK  status: ('A' for Active; 'I' for Inactive)
REMARK    1  A    between atoms: O_2  and  C_15
REMARK    2  A    between atoms: O_2  and  C_17
REMARK    3  A    between atoms: C_14  and  C_16
REMARK    4  A    between atoms: C_19  and  C_20
REMARK    5  A    between atoms: C_20  and  C_22
REMARK    6  A    between atoms: C_22  and  C_25
REMARK    7  A    between atoms: C_25  and  C_26
REMARK                            x       y       z     vdW  Elec       q    Type
REMARK                         _______ _______ _______ _____ _____    ______ ____
ROOT
ATOM      1  C   UNL     1     111.526 128.625 135.017  0.00  0.00    +0.000 A 
ATOM      2  C   UNL     1     111.745 128.147 135.653  0.00  0.00    +0.000 A 
ATOM      3  C   UNL     1     112.519 128.171 135.940  0.00  0.00    +0.000 A 
ATOM      4  C   UNL     1     112.080 129.126 134.668  0.00  0.00    +0.000 A 
ATOM      5  C   UNL     1     113.073 128.672 135.590  0.00  0.00    +0.000 A 
ATOM      6  C   UNL     1     112.853 129.150 134.954  0.00  0.00    +0.000 A 
ENDROOT
BRANCH   1   7
ATOM      7  O   UNL     1     110.753 128.601 134.731  0.00  0.00    +0.000 OA
BRANCH   7  16
ATOM      8  O   UNL     1     110.274 129.801 135.343  0.00  0.00    +0.000 OA
ATOM      9  O   UNL     1     108.126 128.682 135.853  0.00  0.00    +0.000 OA
ATOM     10  O   UNL     1     108.363 130.253 136.295  0.00  0.00    +0.000 OA
ATOM     11  O   UNL     1     109.321 127.856 135.071  0.00  0.00    +0.000 OA
ATOM     12  C   UNL     1     108.842 129.055 135.683  0.00  0.00    +0.000 C 
ATOM     13  C   UNL     1     108.960 129.840 135.904  0.00  0.00    +0.000 C 
ATOM     14  C   UNL     1     109.439 128.641 135.292  0.00  0.00    +0.000 C 
ATOM     15  C   UNL     1     109.676 130.213 135.734  0.00  0.00    +0.000 C 
ATOM     16  C   UNL     1     110.155 129.014 135.122  0.00  0.00    +0.000 C 
BRANCH  15  19
ATOM     17  O   UNL     1     110.105 131.175 136.700  0.00  0.00    +0.000 OA
ATOM     18  O   UNL     1     109.605 131.608 135.432  0.00  0.00    +0.000 OA
ATOM     19  C   UNL     1     109.795 130.999 135.955  0.00  0.00    +0.000 C 
ENDBRANCH  15  19
ENDBRANCH   7  16
ENDBRANCH   1   7
BRANCH   3  20
ATOM     20  C   UNL     1     112.739 127.693 136.575  0.00  0.00    +0.000 C 
BRANCH  20  21
ATOM     21  C   UNL     1     112.954 126.907 136.446  0.00  0.00    +0.000 C 
BRANCH  21  23
ATOM     22  O   UNL     1     113.403 126.783 137.797  0.00  0.00    +0.000 OA
ATOM     23  C   UNL     1     113.191 126.435 137.080  0.00  0.00    +0.000 C 
BRANCH  23  26
ATOM     24  O   UNL     1     114.624 125.679 136.773  0.00  0.00    +0.000 OA
ATOM     25  O   UNL     1     111.853 123.910 137.055  0.00  0.00    +0.000 OA
ATOM     26  C   UNL     1     113.215 125.615 136.997  0.00  0.00    +0.000 A 
ATOM     27  C   UNL     1     113.931 125.236 136.843  0.00  0.00    +0.000 A 
ATOM     28  C   UNL     1     112.521 125.172 137.068  0.00  0.00    +0.000 A 
ATOM     29  C   UNL     1     112.545 124.352 136.985  0.00  0.00    +0.000 A 
ATOM     30  C   UNL     1     113.955 124.416 136.760  0.00  0.00    +0.000 A 
ATOM     31  C   UNL     1     113.263 123.974 136.831  0.00  0.00    +0.000 A 
ENDBRANCH  23  26
ENDBRANCH  21  23
ENDBRANCH  20  21
ENDBRANCH   3  20
TORSDOF 7
ENDMDL
MODEL 8
REMARK VINA RESULT:      -8.2      2.660      5.333
REMARK  Name = 131838970
REMARK  7 active torsions:
REMARK  status: ('A' for Active; 'I' for Inactive)
REMARK    1  A    between atoms: O_2  and  C_15
REMARK    2  A    between atoms: O_2  and  C_17
REMARK    3  A    between atoms: C_14  and  C_16
REMARK    4  A    between atoms: C_19  and  C_20
REMARK    5  A    between atoms: C_20  and  C_22
REMARK    6  A    between atoms: C_22  and  C_25
REMARK    7  A    between atoms: C_25  and  C_26
REMARK                            x       y       z     vdW  Elec       q    Type
REMARK                         _______ _______ _______ _____ _____    ______ ____
ROOT
ATOM      1  C   UNL     1     112.540 126.574 138.804  0.00  0.00    +0.000 A 
ATOM      2  C   UNL     1     112.434 127.239 138.327  0.00  0.00    +0.000 A 
ATOM      3  C   UNL     1     112.799 127.951 138.525  0.00  0.00    +0.000 A 
ATOM      4  C   UNL     1     113.012 126.621 139.479  0.00  0.00    +0.000 A 
ATOM      5  C   UNL     1     113.271 127.999 139.201  0.00  0.00    +0.000 A 
ATOM      6  C   UNL     1     113.377 127.334 139.677  0.00  0.00    +0.000 A 
ENDROOT
BRANCH   1   7
ATOM      7  O   UNL     1     112.175 125.861 138.606  0.00  0.00    +0.000 OA
BRANCH   7  16
ATOM      8  O   UNL     1     113.295 125.370 137.866  0.00  0.00    +0.000 OA
ATOM      9  O   UNL     1     111.768 124.058 136.426  0.00  0.00    +0.000 OA
ATOM     10  O   UNL     1     113.396 124.004 136.168  0.00  0.00    +0.000 OA
ATOM     11  O   UNL     1     111.157 124.987 137.646  0.00  0.00    +0.000 OA
ATOM     12  C   UNL     1     112.277 124.495 136.906  0.00  0.00    +0.000 C 
ATOM     13  C   UNL     1     113.091 124.468 136.777  0.00  0.00    +0.000 C 
ATOM     14  C   UNL     1     111.971 124.959 137.516  0.00  0.00    +0.000 C 
ATOM     15  C   UNL     1     113.600 124.905 137.257  0.00  0.00    +0.000 C 
ATOM     16  C   UNL     1     112.480 125.397 137.996  0.00  0.00    +0.000 C 
BRANCH  15  19
ATOM     17  O   UNL     1     114.880 124.340 137.547  0.00  0.00    +0.000 OA
ATOM     18  O   UNL     1     114.762 125.388 136.581  0.00  0.00    +0.000 OA
ATOM     19  C   UNL     1     114.414 124.878 137.128  0.00  0.00    +0.000 C 
ENDBRANCH  15  19
ENDBRANCH   7  16
ENDBRANCH   1   7
BRANCH   3  20
ATOM     20  C   UNL     1     112.693 128.616 138.049  0.00  0.00    +0.000 C 
BRANCH  20  21
ATOM     21  C   UNL     1     113.314 128.893 137.582  0.00  0.00    +0.000 C 
BRANCH  21  23
ATOM     22  O   UNL     1     112.476 129.934 137.076  0.00  0.00    +0.000 OA
ATOM     23  C   UNL     1     113.191 129.524 137.065  0.00  0.00    +0.000 C 
BRANCH  23  26
ATOM     24  O   UNL     1     114.059 130.903 137.328  0.00  0.00    +0.000 OA
ATOM     25  O   UNL     1     114.697 129.030 134.686  0.00  0.00    +0.000 OA
ATOM     26  C   UNL     1     113.785 129.745 136.536  0.00  0.00    +0.000 A 
ATOM     27  C   UNL     1     114.219 130.434 136.667  0.00  0.00    +0.000 A 
ATOM     28  C   UNL     1     113.944 129.277 135.875  0.00  0.00    +0.000 A 
ATOM     29  C   UNL     1     114.538 129.498 135.346  0.00  0.00    +0.000 A 
ATOM     30  C   UNL     1     114.812 130.655 136.138  0.00  0.00    +0.000 A 
ATOM     31  C   UNL     1     114.972 130.187 135.479  0.00  0.00    +0.000 A 
ENDBRANCH  23  26
ENDBRANCH  21  23
ENDBRANCH  20  21
ENDBRANCH   3  20
TORSDOF 7
ENDMDL
MODEL 9
REMARK VINA RESULT:      -8.2      3.072      5.249
REMARK  Name = 131838970
REMARK  7 active torsions:
REMARK  status: ('A' for Active; 'I' for Inactive)
REMARK    1  A    between atoms: O_2  and  C_15
REMARK    2  A    between atoms: O_2  and  C_17
REMARK    3  A    between atoms: C_14  and  C_16
REMARK    4  A    between atoms: C_19  and  C_20
REMARK    5  A    between atoms: C_20  and  C_22
REMARK    6  A    between atoms: C_22  and  C_25
REMARK    7  A    between atoms: C_25  and  C_26
REMARK                            x       y       z     vdW  Elec       q    Type
REMARK                         _______ _______ _______ _____ _____    ______ ____
ROOT
ATOM      1  C   UNL     1     113.215 125.946 138.148  0.00  0.00    +0.000 A 
ATOM      2  C   UNL     1     113.018 126.554 137.625  0.00  0.00    +0.000 A 
ATOM      3  C   UNL     1     113.495 126.702 136.968  0.00  0.00    +0.000 A 
ATOM      4  C   UNL     1     113.887 125.488 138.015  0.00  0.00    +0.000 A 
ATOM      5  C   UNL     1     114.168 126.243 136.834  0.00  0.00    +0.000 A 
ATOM      6  C   UNL     1     114.364 125.636 137.358  0.00  0.00    +0.000 A 
ENDROOT
BRANCH   1   7
ATOM      7  O   UNL     1     112.739 125.798 138.805  0.00  0.00    +0.000 OA
BRANCH   7  16
ATOM      8  O   UNL     1     113.532 126.574 139.706  0.00  0.00    +0.000 OA
ATOM      9  O   UNL     1     111.505 127.123 141.017  0.00  0.00    +0.000 OA
ATOM     10  O   UNL     1     112.973 127.715 141.480  0.00  0.00    +0.000 OA
ATOM     11  O   UNL     1     111.388 126.164 139.679  0.00  0.00    +0.000 OA
ATOM     12  C   UNL     1     112.181 126.940 140.580  0.00  0.00    +0.000 C 
ATOM     13  C   UNL     1     112.914 127.236 140.812  0.00  0.00    +0.000 C 
ATOM     14  C   UNL     1     112.121 126.461 139.911  0.00  0.00    +0.000 C 
ATOM     15  C   UNL     1     113.590 127.053 140.375  0.00  0.00    +0.000 C 
ATOM     16  C   UNL     1     112.797 126.277 139.474  0.00  0.00    +0.000 C 
BRANCH  15  19
ATOM     17  O   UNL     1     114.536 128.123 140.413  0.00  0.00    +0.000 OA
ATOM     18  O   UNL     1     114.847 126.872 141.031  0.00  0.00    +0.000 OA
ATOM     19  C   UNL     1     114.324 127.349 140.607  0.00  0.00    +0.000 C 
ENDBRANCH  15  19
ENDBRANCH   7  16
ENDBRANCH   1   7
BRANCH   3  20
ATOM     20  C   UNL     1     113.299 127.309 136.445  0.00  0.00    +0.000 C 
BRANCH  20  21
ATOM     21  C   UNL     1     113.774 127.981 136.396  0.00  0.00    +0.000 C 
BRANCH  21  23
ATOM     22  O   UNL     1     112.958 128.492 135.340  0.00  0.00    +0.000 OA
ATOM     23  C   UNL     1     113.567 128.596 135.886  0.00  0.00    +0.000 C 
BRANCH  23  26
ATOM     24  O   UNL     1     114.712 128.961 134.755  0.00  0.00    +0.000 OA
ATOM     25  O   UNL     1     114.029 131.109 137.166  0.00  0.00    +0.000 OA
ATOM     26  C   UNL     1     113.969 129.316 135.923  0.00  0.00    +0.000 A 
ATOM     27  C   UNL     1     114.541 129.499 135.358  0.00  0.00    +0.000 A 
ATOM     28  C   UNL     1     113.798 129.853 136.527  0.00  0.00    +0.000 A 
ATOM     29  C   UNL     1     114.200 130.573 136.564  0.00  0.00    +0.000 A 
ATOM     30  C   UNL     1     114.943 130.218 135.396  0.00  0.00    +0.000 A 
ATOM     31  C   UNL     1     114.772 130.755 135.998  0.00  0.00    +0.000 A 
ENDBRANCH  23  26
ENDBRANCH  21  23
ENDBRANCH  20  21
ENDBRANCH   3  20
TORSDOF 7
ENDMDL
MODEL 10
REMARK VINA RESULT:      -8.1      2.075      3.028
REMARK  Name = 131838970
REMARK  7 active torsions:
REMARK  status: ('A' for Active; 'I' for Inactive)
REMARK    1  A    between atoms: O_2  and  C_15
REMARK    2  A    between atoms: O_2  and  C_17
REMARK    3  A    between atoms: C_14  and  C_16
REMARK    4  A    between atoms: C_19  and  C_20
REMARK    5  A    between atoms: C_20  and  C_22
REMARK    6  A    between atoms: C_22  and  C_25
REMARK    7  A    between atoms: C_25  and  C_26
REMARK                            x       y       z     vdW  Elec       q    Type
REMARK                         _______ _______ _______ _____ _____    ______ ____
ROOT
ATOM      1  C   UNL     1     112.380 128.880 136.068  0.00  0.00    +0.000 A 
ATOM      2  C   UNL     1     112.609 128.218 136.504  0.00  0.00    +0.000 A 
ATOM      3  C   UNL     1     113.361 127.895 136.399  0.00  0.00    +0.000 A 
ATOM      4  C   UNL     1     112.901 129.219 135.528  0.00  0.00    +0.000 A 
ATOM      5  C   UNL     1     113.884 128.235 135.858  0.00  0.00    +0.000 A 
ATOM      6  C   UNL     1     113.654 128.896 135.422  0.00  0.00    +0.000 A 
ENDROOT
BRANCH   1   7
ATOM      7  O   UNL     1     111.628 129.202 136.173  0.00  0.00    +0.000 OA
BRANCH   7  16
ATOM      8  O   UNL     1     111.903 129.917 137.379  0.00  0.00    +0.000 OA
ATOM      9  O   UNL     1     110.476 131.783 136.598  0.00  0.00    +0.000 OA
ATOM     10  O   UNL     1     111.227 131.876 138.064  0.00  0.00    +0.000 OA
ATOM     11  O   UNL     1     110.677 130.446 135.653  0.00  0.00    +0.000 OA
ATOM     12  C   UNL     1     110.952 131.161 136.859  0.00  0.00    +0.000 C 
ATOM     13  C   UNL     1     111.327 131.208 137.591  0.00  0.00    +0.000 C 
ATOM     14  C   UNL     1     111.052 130.492 136.385  0.00  0.00    +0.000 C 
ATOM     15  C   UNL     1     111.803 130.586 137.852  0.00  0.00    +0.000 C 
ATOM     16  C   UNL     1     111.527 129.871 136.646  0.00  0.00    +0.000 C 
BRANCH  15  19
ATOM     17  O   UNL     1     111.802 130.341 139.259  0.00  0.00    +0.000 OA
ATOM     18  O   UNL     1     112.929 130.968 138.643  0.00  0.00    +0.000 OA
ATOM     19  C   UNL     1     112.178 130.632 138.584  0.00  0.00    +0.000 C 
ENDBRANCH  15  19
ENDBRANCH   7  16
ENDBRANCH   1   7
BRANCH   3  20
ATOM     20  C   UNL     1     113.591 127.234 136.835  0.00  0.00    +0.000 C 
BRANCH  20  21
ATOM     21  C   UNL     1     113.292 126.489 136.644  0.00  0.00    +0.000 C 
BRANCH  21  23
ATOM     22  O   UNL     1     114.219 125.857 137.529  0.00  0.00    +0.000 OA
ATOM     23  C   UNL     1     113.534 125.826 137.072  0.00  0.00    +0.000 C 
BRANCH  23  26
ATOM     24  O   UNL     1     114.011 124.582 136.098  0.00  0.00    +0.000 OA
ATOM     25  O   UNL     1     111.278 124.293 137.925  0.00  0.00    +0.000 OA
ATOM     26  C   UNL     1     113.089 125.132 137.042  0.00  0.00    +0.000 A 
ATOM     27  C   UNL     1     113.327 124.510 136.555  0.00  0.00    +0.000 A 
ATOM     28  C   UNL     1     112.405 125.059 137.499  0.00  0.00    +0.000 A 
ATOM     29  C   UNL     1     111.961 124.365 137.468  0.00  0.00    +0.000 A 
ATOM     30  C   UNL     1     112.883 123.815 136.525  0.00  0.00    +0.000 A 
ATOM     31  C   UNL     1     112.200 123.743 136.981  0.00  0.00    +0.000 A 
ENDBRANCH  23  26
ENDBRANCH  21  23
ENDBRANCH  20  21
ENDBRANCH   3  20
TORSDOF 7
ENDMDL
