MODEL 1
REMARK VINA RESULT:      -7.0      0.000      0.000
REMARK  Name = 5318050
REMARK  8 active torsions:
REMARK  status: ('A' for Active; 'I' for Inactive)
REMARK    1  A    between atoms: O_2  and  C_14
REMARK    2  A    between atoms: O_3  and  C_16
REMARK    3  A    between atoms: O_4  and  C_17
REMARK    4  A    between atoms: O_5  and  C_18
REMARK    5  A    between atoms: O_7  and  C_22
REMARK    6  A    between atoms: O_8  and  C_23
REMARK    7  A    between atoms: O_9  and  C_24
REMARK    8  A    between atoms: C_12  and  C_13
REMARK                            x       y       z     vdW  Elec       q    Type
REMARK                         _______ _______ _______ _____ _____    ______ ____
ROOT
ATOM      1  O   UNL     1     113.056 127.520 136.860  0.00  0.00    +0.000 OA
ATOM      2  O   UNL     1     112.285 128.204 139.110  0.00  0.00    +0.000 OA
ATOM      3  C   UNL     1     112.856 128.537 137.844  0.00  0.00    +0.000 A 
ATOM      4  C   UNL     1     113.113 128.309 137.094  0.00  0.00    +0.000 A 
ATOM      5  C   UNL     1     112.741 126.958 137.377  0.00  0.00    +0.000 A 
ATOM      6  C   UNL     1     112.484 127.186 138.128  0.00  0.00    +0.000 A 
ATOM      7  C   UNL     1     112.542 127.976 138.360  0.00  0.00    +0.000 A 
ATOM      8  C   UNL     1     113.442 128.884 136.546  0.00  0.00    +0.000 A 
ATOM      9  C   UNL     1     112.910 129.356 138.098  0.00  0.00    +0.000 A 
ATOM     10  C   UNL     1     113.504 129.707 136.784  0.00  0.00    +0.000 A 
ATOM     11  C   UNL     1     113.237 129.945 137.564  0.00  0.00    +0.000 A 
ENDROOT
BRANCH   5  12
ATOM     12  C   UNL     1     112.684 126.169 137.144  0.00  0.00    +0.000 A 
ATOM     13  C   UNL     1     113.312 125.652 137.280  0.00  0.00    +0.000 A 
ATOM     14  C   UNL     1     111.998 125.898 136.773  0.00  0.00    +0.000 A 
ATOM     15  C   UNL     1     111.941 125.109 136.539  0.00  0.00    +0.000 A 
ATOM     16  C   UNL     1     113.254 124.863 137.046  0.00  0.00    +0.000 A 
ATOM     17  C   UNL     1     112.569 124.591 136.676  0.00  0.00    +0.000 A 
BRANCH  15  18
ATOM     18  O   UNL     1     111.255 124.837 136.169  0.00  0.00    +0.000 OA
ATOM     19  C   UNL     1     110.815 125.347 135.692  0.00  0.00    +0.000 C 
ENDBRANCH  15  18
BRANCH  16  20
ATOM     20  O   UNL     1     113.882 124.345 137.182  0.00  0.00    +0.000 OA
ATOM     21  C   UNL     1     114.648 124.639 137.267  0.00  0.00    +0.000 C 
ENDBRANCH  16  20
BRANCH  17  22
ATOM     22  O   UNL     1     112.511 123.802 136.441  0.00  0.00    +0.000 OA
ATOM     23  C   UNL     1     112.177 123.245 136.950  0.00  0.00    +0.000 C 
ENDBRANCH  17  22
ENDBRANCH   5  12
BRANCH   6  24
ATOM     24  O   UNL     1     112.171 126.626 138.644  0.00  0.00    +0.000 OA
ATOM     25  C   UNL     1     112.230 126.737 139.459  0.00  0.00    +0.000 C 
ENDBRANCH   6  24
BRANCH   8  26
ATOM     26  O   UNL     1     113.696 128.646 135.798  0.00  0.00    +0.000 OA
ATOM     27  C   UNL     1     113.285 128.892 135.126  0.00  0.00    +0.000 C 
ENDBRANCH   8  26
BRANCH   9  28
ATOM     28  O   UNL     1     112.651 129.575 138.850  0.00  0.00    +0.000 OA
ATOM     29  C   UNL     1     112.347 130.332 138.978  0.00  0.00    +0.000 C 
ENDBRANCH   9  28
BRANCH  10  30
ATOM     30  O   UNL     1     113.818 130.266 136.265  0.00  0.00    +0.000 OA
ATOM     31  C   UNL     1     114.233 130.916 136.559  0.00  0.00    +0.000 C 
ENDBRANCH  10  30
TORSDOF 8
ENDMDL
MODEL 2
REMARK VINA RESULT:      -6.8     11.727     13.923
REMARK  Name = 5318050
REMARK  8 active torsions:
REMARK  status: ('A' for Active; 'I' for Inactive)
REMARK    1  A    between atoms: O_2  and  C_14
REMARK    2  A    between atoms: O_3  and  C_16
REMARK    3  A    between atoms: O_4  and  C_17
REMARK    4  A    between atoms: O_5  and  C_18
REMARK    5  A    between atoms: O_7  and  C_22
REMARK    6  A    between atoms: O_8  and  C_23
REMARK    7  A    between atoms: O_9  and  C_24
REMARK    8  A    between atoms: C_12  and  C_13
REMARK                            x       y       z     vdW  Elec       q    Type
REMARK                         _______ _______ _______ _____ _____    ______ ____
ROOT
ATOM      1  O   UNL     1     104.134 124.221 147.037  0.00  0.00    +0.000 OA
ATOM      2  O   UNL     1     102.841 125.903 148.311  0.00  0.00    +0.000 OA
ATOM      3  C   UNL     1     102.884 124.709 147.528  0.00  0.00    +0.000 A 
ATOM      4  C   UNL     1     103.315 124.148 147.103  0.00  0.00    +0.000 A 
ATOM      5  C   UNL     1     104.522 124.856 147.395  0.00  0.00    +0.000 A 
ATOM      6  C   UNL     1     104.091 125.416 147.820  0.00  0.00    +0.000 A 
ATOM      7  C   UNL     1     103.272 125.342 147.886  0.00  0.00    +0.000 A 
ATOM      8  C   UNL     1     102.922 123.484 146.726  0.00  0.00    +0.000 A 
ATOM      9  C   UNL     1     102.030 124.644 147.605  0.00  0.00    +0.000 A 
ATOM     10  C   UNL     1     102.070 123.402 146.791  0.00  0.00    +0.000 A 
ATOM     11  C   UNL     1     101.621 123.986 147.234  0.00  0.00    +0.000 A 
ENDROOT
BRANCH   5  12
ATOM     12  C   UNL     1     105.341 124.928 147.328  0.00  0.00    +0.000 A 
ATOM     13  C   UNL     1     105.830 124.667 147.939  0.00  0.00    +0.000 A 
ATOM     14  C   UNL     1     105.671 125.263 146.650  0.00  0.00    +0.000 A 
ATOM     15  C   UNL     1     106.490 125.335 146.583  0.00  0.00    +0.000 A 
ATOM     16  C   UNL     1     106.649 124.740 147.871  0.00  0.00    +0.000 A 
ATOM     17  C   UNL     1     106.979 125.074 147.193  0.00  0.00    +0.000 A 
BRANCH  15  18
ATOM     18  O   UNL     1     106.820 125.670 145.904  0.00  0.00    +0.000 OA
ATOM     19  C   UNL     1     106.361 125.760 145.224  0.00  0.00    +0.000 C 
ENDBRANCH  15  18
BRANCH  16  20
ATOM     20  O   UNL     1     107.138 124.479 148.482  0.00  0.00    +0.000 OA
ATOM     21  C   UNL     1     106.807 124.191 149.182  0.00  0.00    +0.000 C 
ENDBRANCH  16  20
BRANCH  17  22
ATOM     22  O   UNL     1     107.798 125.147 147.125  0.00  0.00    +0.000 OA
ATOM     23  C   UNL     1     108.179 125.810 147.434  0.00  0.00    +0.000 C 
ENDBRANCH  17  22
ENDBRANCH   5  12
BRANCH   6  24
ATOM     24  O   UNL     1     104.479 126.049 148.178  0.00  0.00    +0.000 OA
ATOM     25  C   UNL     1     104.169 126.811 148.116  0.00  0.00    +0.000 C 
ENDBRANCH   6  24
BRANCH   8  26
ATOM     26  O   UNL     1     103.362 122.928 146.303  0.00  0.00    +0.000 OA
ATOM     27  C   UNL     1     103.287 122.881 145.482  0.00  0.00    +0.000 C 
ENDBRANCH   8  26
BRANCH   9  28
ATOM     28  O   UNL     1     101.607 125.209 148.032  0.00  0.00    +0.000 OA
ATOM     29  C   UNL     1     101.054 124.971 148.596  0.00  0.00    +0.000 C 
ENDBRANCH   9  28
BRANCH  10  30
ATOM     30  O   UNL     1     101.684 122.767 146.432  0.00  0.00    +0.000 OA
ATOM     31  C   UNL     1     100.860 122.740 146.417  0.00  0.00    +0.000 C 
ENDBRANCH  10  30
TORSDOF 8
ENDMDL
MODEL 3
REMARK VINA RESULT:      -6.7      1.902      4.680
REMARK  Name = 5318050
REMARK  8 active torsions:
REMARK  status: ('A' for Active; 'I' for Inactive)
REMARK    1  A    between atoms: O_2  and  C_14
REMARK    2  A    between atoms: O_3  and  C_16
REMARK    3  A    between atoms: O_4  and  C_17
REMARK    4  A    between atoms: O_5  and  C_18
REMARK    5  A    between atoms: O_7  and  C_22
REMARK    6  A    between atoms: O_8  and  C_23
REMARK    7  A    between atoms: O_9  and  C_24
REMARK    8  A    between atoms: C_12  and  C_13
REMARK                            x       y       z     vdW  Elec       q    Type
REMARK                         _______ _______ _______ _____ _____    ______ ____
ROOT
ATOM      1  O   UNL     1     112.120 126.884 136.705  0.00  0.00    +0.000 OA
ATOM      2  O   UNL     1     110.978 124.916 135.731  0.00  0.00    +0.000 OA
ATOM      3  C   UNL     1     112.049 125.472 136.494  0.00  0.00    +0.000 A 
ATOM      4  C   UNL     1     112.430 126.128 136.819  0.00  0.00    +0.000 A 
ATOM      5  C   UNL     1     111.427 126.983 136.266  0.00  0.00    +0.000 A 
ATOM      6  C   UNL     1     111.047 126.327 135.942  0.00  0.00    +0.000 A 
ATOM      7  C   UNL     1     111.358 125.572 136.056  0.00  0.00    +0.000 A 
ATOM      8  C   UNL     1     113.151 126.037 137.277  0.00  0.00    +0.000 A 
ATOM      9  C   UNL     1     112.364 124.680 136.606  0.00  0.00    +0.000 A 
ATOM     10  C   UNL     1     113.480 125.253 137.399  0.00  0.00    +0.000 A 
ATOM     11  C   UNL     1     113.084 124.570 137.061  0.00  0.00    +0.000 A 
ENDROOT
BRANCH   5  12
ATOM     12  C   UNL     1     111.117 127.739 136.153  0.00  0.00    +0.000 A 
ATOM     13  C   UNL     1     111.402 128.215 135.542  0.00  0.00    +0.000 A 
ATOM     14  C   UNL     1     110.520 128.018 136.651  0.00  0.00    +0.000 A 
ATOM     15  C   UNL     1     110.210 128.774 136.537  0.00  0.00    +0.000 A 
ATOM     16  C   UNL     1     111.090 128.971 135.430  0.00  0.00    +0.000 A 
ATOM     17  C   UNL     1     110.495 129.250 135.927  0.00  0.00    +0.000 A 
BRANCH  15  18
ATOM     18  O   UNL     1     109.614 129.054 137.035  0.00  0.00    +0.000 OA
ATOM     19  C   UNL     1     109.656 128.915 137.847  0.00  0.00    +0.000 C 
ENDBRANCH  15  18
BRANCH  16  20
ATOM     20  O   UNL     1     111.375 129.447 134.820  0.00  0.00    +0.000 OA
ATOM     21  C   UNL     1     112.174 129.419 134.612  0.00  0.00    +0.000 C 
ENDBRANCH  16  20
BRANCH  17  22
ATOM     22  O   UNL     1     110.183 130.006 135.814  0.00  0.00    +0.000 OA
ATOM     23  C   UNL     1     109.545 130.117 135.304  0.00  0.00    +0.000 C 
ENDBRANCH  17  22
ENDBRANCH   5  12
BRANCH   6  24
ATOM     24  O   UNL     1     110.356 126.427 135.504  0.00  0.00    +0.000 OA
ATOM     25  C   UNL     1     110.160 125.885 134.913  0.00  0.00    +0.000 C 
ENDBRANCH   6  24
BRANCH   8  26
ATOM     26  O   UNL     1     113.525 126.699 137.598  0.00  0.00    +0.000 OA
ATOM     27  C   UNL     1     113.479 126.846 138.409  0.00  0.00    +0.000 C 
ENDBRANCH   8  26
BRANCH   9  28
ATOM     28  O   UNL     1     111.976 124.029 136.277  0.00  0.00    +0.000 OA
ATOM     29  C   UNL     1     112.012 123.295 136.652  0.00  0.00    +0.000 C 
ENDBRANCH   9  28
BRANCH  10  30
ATOM     30  O   UNL     1     114.172 125.156 137.838  0.00  0.00    +0.000 OA
ATOM     31  C   UNL     1     114.765 124.650 137.569  0.00  0.00    +0.000 C 
ENDBRANCH  10  30
TORSDOF 8
ENDMDL
MODEL 4
REMARK VINA RESULT:      -6.7      1.375      2.453
REMARK  Name = 5318050
REMARK  8 active torsions:
REMARK  status: ('A' for Active; 'I' for Inactive)
REMARK    1  A    between atoms: O_2  and  C_14
REMARK    2  A    between atoms: O_3  and  C_16
REMARK    3  A    between atoms: O_4  and  C_17
REMARK    4  A    between atoms: O_5  and  C_18
REMARK    5  A    between atoms: O_7  and  C_22
REMARK    6  A    between atoms: O_8  and  C_23
REMARK    7  A    between atoms: O_9  and  C_24
REMARK    8  A    between atoms: C_12  and  C_13
REMARK                            x       y       z     vdW  Elec       q    Type
REMARK                         _______ _______ _______ _____ _____    ______ ____
ROOT
ATOM      1  O   UNL     1     113.158 127.419 138.889  0.00  0.00    +0.000 OA
ATOM      2  O   UNL     1     113.077 129.182 137.153  0.00  0.00    +0.000 OA
ATOM      3  C   UNL     1     113.295 128.790 138.509  0.00  0.00    +0.000 A 
ATOM      4  C   UNL     1     113.323 128.203 139.088  0.00  0.00    +0.000 A 
ATOM      5  C   UNL     1     112.966 127.223 138.110  0.00  0.00    +0.000 A 
ATOM      6  C   UNL     1     112.939 127.811 137.531  0.00  0.00    +0.000 A 
ATOM      7  C   UNL     1     113.104 128.594 137.732  0.00  0.00    +0.000 A 
ATOM      8  C   UNL     1     113.521 128.395 139.902  0.00  0.00    +0.000 A 
ATOM      9  C   UNL     1     113.465 129.610 138.705  0.00  0.00    +0.000 A 
ATOM     10  C   UNL     1     113.693 129.209 140.116  0.00  0.00    +0.000 A 
ATOM     11  C   UNL     1     113.665 129.820 139.513  0.00  0.00    +0.000 A 
ENDROOT
BRANCH   5  12
ATOM     12  C   UNL     1     112.802 126.440 137.911  0.00  0.00    +0.000 A 
ATOM     13  C   UNL     1     113.401 125.953 137.621  0.00  0.00    +0.000 A 
ATOM     14  C   UNL     1     112.037 126.143 138.004  0.00  0.00    +0.000 A 
ATOM     15  C   UNL     1     111.873 125.360 137.805  0.00  0.00    +0.000 A 
ATOM     16  C   UNL     1     113.236 125.169 137.422  0.00  0.00    +0.000 A 
ATOM     17  C   UNL     1     112.472 124.873 137.514  0.00  0.00    +0.000 A 
BRANCH  15  18
ATOM     18  O   UNL     1     111.108 125.063 137.897  0.00  0.00    +0.000 OA
ATOM     19  C   UNL     1     110.592 125.415 138.436  0.00  0.00    +0.000 C 
ENDBRANCH  15  18
BRANCH  16  20
ATOM     20  O   UNL     1     113.835 124.683 137.131  0.00  0.00    +0.000 OA
ATOM     21  C   UNL     1     114.616 124.801 137.371  0.00  0.00    +0.000 C 
ENDBRANCH  16  20
BRANCH  17  22
ATOM     22  O   UNL     1     112.306 124.089 137.316  0.00  0.00    +0.000 OA
ATOM     23  C   UNL     1     112.038 123.904 136.558  0.00  0.00    +0.000 C 
ENDBRANCH  17  22
ENDBRANCH   5  12
BRANCH   6  24
ATOM     24  O   UNL     1     112.748 127.615 136.754  0.00  0.00    +0.000 OA
ATOM     25  C   UNL     1     112.442 128.189 136.247  0.00  0.00    +0.000 C 
ENDBRANCH   6  24
BRANCH   8  26
ATOM     26  O   UNL     1     113.546 127.800 140.474  0.00  0.00    +0.000 OA
ATOM     27  C   UNL     1     114.271 127.556 140.784  0.00  0.00    +0.000 C 
ENDBRANCH   8  26
BRANCH   9  28
ATOM     28  O   UNL     1     113.435 130.191 138.119  0.00  0.00    +0.000 OA
ATOM     29  C   UNL     1     113.957 130.830 138.145  0.00  0.00    +0.000 C 
ENDBRANCH   9  28
BRANCH  10  30
ATOM     30  O   UNL     1     113.885 129.402 140.894  0.00  0.00    +0.000 OA
ATOM     31  C   UNL     1     113.664 130.133 141.205  0.00  0.00    +0.000 C 
ENDBRANCH  10  30
TORSDOF 8
ENDMDL
MODEL 5
REMARK VINA RESULT:      -6.7      9.390     11.484
REMARK  Name = 5318050
REMARK  8 active torsions:
REMARK  status: ('A' for Active; 'I' for Inactive)
REMARK    1  A    between atoms: O_2  and  C_14
REMARK    2  A    between atoms: O_3  and  C_16
REMARK    3  A    between atoms: O_4  and  C_17
REMARK    4  A    between atoms: O_5  and  C_18
REMARK    5  A    between atoms: O_7  and  C_22
REMARK    6  A    between atoms: O_8  and  C_23
REMARK    7  A    between atoms: O_9  and  C_24
REMARK    8  A    between atoms: C_12  and  C_13
REMARK                            x       y       z     vdW  Elec       q    Type
REMARK                         _______ _______ _______ _____ _____    ______ ____
ROOT
ATOM      1  O   UNL     1     106.285 126.098 145.554  0.00  0.00    +0.000 OA
ATOM      2  O   UNL     1     105.236 124.295 144.223  0.00  0.00    +0.000 OA
ATOM      3  C   UNL     1     105.938 125.537 144.287  0.00  0.00    +0.000 A 
ATOM      4  C   UNL     1     106.288 126.138 144.731  0.00  0.00    +0.000 A 
ATOM      5  C   UNL     1     105.932 125.456 145.935  0.00  0.00    +0.000 A 
ATOM      6  C   UNL     1     105.582 124.855 145.491  0.00  0.00    +0.000 A 
ATOM      7  C   UNL     1     105.585 124.896 144.667  0.00  0.00    +0.000 A 
ATOM      8  C   UNL     1     106.659 126.811 144.346  0.00  0.00    +0.000 A 
ATOM      9  C   UNL     1     105.935 125.568 143.428  0.00  0.00    +0.000 A 
ATOM     10  C   UNL     1     106.665 126.859 143.488  0.00  0.00    +0.000 A 
ATOM     11  C   UNL     1     106.301 126.233 143.026  0.00  0.00    +0.000 A 
ENDROOT
BRANCH   5  12
ATOM     12  C   UNL     1     105.929 125.417 146.759  0.00  0.00    +0.000 A 
ATOM     13  C   UNL     1     106.566 125.076 147.158  0.00  0.00    +0.000 A 
ATOM     14  C   UNL     1     105.289 125.719 147.184  0.00  0.00    +0.000 A 
ATOM     15  C   UNL     1     105.286 125.679 148.008  0.00  0.00    +0.000 A 
ATOM     16  C   UNL     1     106.562 125.037 147.982  0.00  0.00    +0.000 A 
ATOM     17  C   UNL     1     105.922 125.338 148.407  0.00  0.00    +0.000 A 
BRANCH  15  18
ATOM     18  O   UNL     1     104.646 125.981 148.433  0.00  0.00    +0.000 OA
ATOM     19  C   UNL     1     104.234 126.636 148.147  0.00  0.00    +0.000 C 
ENDBRANCH  15  18
BRANCH  16  20
ATOM     20  O   UNL     1     107.198 124.696 148.382  0.00  0.00    +0.000 OA
ATOM     21  C   UNL     1     107.971 124.875 148.155  0.00  0.00    +0.000 C 
ENDBRANCH  16  20
BRANCH  17  22
ATOM     22  O   UNL     1     105.918 125.299 149.231  0.00  0.00    +0.000 OA
ATOM     23  C   UNL     1     105.579 124.650 149.611  0.00  0.00    +0.000 C 
ENDBRANCH  17  22
ENDBRANCH   5  12
BRANCH   6  24
ATOM     24  O   UNL     1     105.229 124.215 145.872  0.00  0.00    +0.000 OA
ATOM     25  C   UNL     1     104.589 123.829 145.522  0.00  0.00    +0.000 C 
ENDBRANCH   6  24
BRANCH   8  26
ATOM     26  O   UNL     1     107.006 127.408 144.798  0.00  0.00    +0.000 OA
ATOM     27  C   UNL     1     106.649 128.150 144.846  0.00  0.00    +0.000 C 
ENDBRANCH   8  26
BRANCH   9  28
ATOM     28  O   UNL     1     105.583 124.962 142.993  0.00  0.00    +0.000 OA
ATOM     29  C   UNL     1     105.844 124.798 142.227  0.00  0.00    +0.000 C 
ENDBRANCH   9  28
BRANCH  10  30
ATOM     30  O   UNL     1     107.019 127.501 143.110  0.00  0.00    +0.000 OA
ATOM     31  C   UNL     1     107.345 127.410 142.358  0.00  0.00    +0.000 C 
ENDBRANCH  10  30
TORSDOF 8
ENDMDL
MODEL 6
REMARK VINA RESULT:      -6.7     11.017     13.522
REMARK  Name = 5318050
REMARK  8 active torsions:
REMARK  status: ('A' for Active; 'I' for Inactive)
REMARK    1  A    between atoms: O_2  and  C_14
REMARK    2  A    between atoms: O_3  and  C_16
REMARK    3  A    between atoms: O_4  and  C_17
REMARK    4  A    between atoms: O_5  and  C_18
REMARK    5  A    between atoms: O_7  and  C_22
REMARK    6  A    between atoms: O_8  and  C_23
REMARK    7  A    between atoms: O_9  and  C_24
REMARK    8  A    between atoms: C_12  and  C_13
REMARK                            x       y       z     vdW  Elec       q    Type
REMARK                         _______ _______ _______ _____ _____    ______ ____
ROOT
ATOM      1  O   UNL     1     104.390 125.086 147.185  0.00  0.00    +0.000 OA
ATOM      2  O   UNL     1     104.096 123.937 145.012  0.00  0.00    +0.000 OA
ATOM      3  C   UNL     1     103.704 124.132 146.372  0.00  0.00    +0.000 A 
ATOM      4  C   UNL     1     103.801 124.514 147.096  0.00  0.00    +0.000 A 
ATOM      5  C   UNL     1     104.881 125.274 146.548  0.00  0.00    +0.000 A 
ATOM      6  C   UNL     1     104.783 124.891 145.824  0.00  0.00    +0.000 A 
ATOM      7  C   UNL     1     104.194 124.320 145.736  0.00  0.00    +0.000 A 
ATOM      8  C   UNL     1     103.296 124.327 147.766  0.00  0.00    +0.000 A 
ATOM      9  C   UNL     1     103.094 123.534 146.267  0.00  0.00    +0.000 A 
ATOM     10  C   UNL     1     102.682 123.733 147.680  0.00  0.00    +0.000 A 
ATOM     11  C   UNL     1     102.580 123.334 146.926  0.00  0.00    +0.000 A 
ENDROOT
BRANCH   5  12
ATOM     12  C   UNL     1     105.469 125.846 146.637  0.00  0.00    +0.000 A 
ATOM     13  C   UNL     1     105.295 126.641 146.506  0.00  0.00    +0.000 A 
ATOM     14  C   UNL     1     106.232 125.621 146.857  0.00  0.00    +0.000 A 
ATOM     15  C   UNL     1     106.820 126.192 146.946  0.00  0.00    +0.000 A 
ATOM     16  C   UNL     1     105.884 127.212 146.596  0.00  0.00    +0.000 A 
ATOM     17  C   UNL     1     106.647 126.988 146.815  0.00  0.00    +0.000 A 
BRANCH  15  18
ATOM     18  O   UNL     1     107.584 125.967 147.166  0.00  0.00    +0.000 OA
ATOM     19  C   UNL     1     107.696 125.305 147.646  0.00  0.00    +0.000 C 
ENDBRANCH  15  18
BRANCH  16  20
ATOM     20  O   UNL     1     105.710 128.008 146.465  0.00  0.00    +0.000 OA
ATOM     21  C   UNL     1     104.959 128.301 146.643  0.00  0.00    +0.000 C 
ENDBRANCH  16  20
BRANCH  17  22
ATOM     22  O   UNL     1     107.236 127.558 146.905  0.00  0.00    +0.000 OA
ATOM     23  C   UNL     1     107.639 127.841 146.243  0.00  0.00    +0.000 C 
ENDBRANCH  17  22
ENDBRANCH   5  12
BRANCH   6  24
ATOM     24  O   UNL     1     105.273 125.080 145.189  0.00  0.00    +0.000 OA
ATOM     25  C   UNL     1     105.450 124.508 144.621  0.00  0.00    +0.000 C 
ENDBRANCH   6  24
BRANCH   8  26
ATOM     26  O   UNL     1     103.402 124.715 148.486  0.00  0.00    +0.000 OA
ATOM     27  C   UNL     1     102.834 125.251 148.752  0.00  0.00    +0.000 C 
ENDBRANCH   8  26
BRANCH   9  28
ATOM     28  O   UNL     1     103.004 123.157 145.539  0.00  0.00    +0.000 OA
ATOM     29  C   UNL     1     102.283 122.804 145.345  0.00  0.00    +0.000 C 
ENDBRANCH   9  28
BRANCH  10  30
ATOM     30  O   UNL     1     102.193 123.546 148.317  0.00  0.00    +0.000 OA
ATOM     31  C   UNL     1     101.833 122.805 148.359  0.00  0.00    +0.000 C 
ENDBRANCH  10  30
TORSDOF 8
ENDMDL
MODEL 7
REMARK VINA RESULT:      -6.7      1.574      4.895
REMARK  Name = 5318050
REMARK  8 active torsions:
REMARK  status: ('A' for Active; 'I' for Inactive)
REMARK    1  A    between atoms: O_2  and  C_14
REMARK    2  A    between atoms: O_3  and  C_16
REMARK    3  A    between atoms: O_4  and  C_17
REMARK    4  A    between atoms: O_5  and  C_18
REMARK    5  A    between atoms: O_7  and  C_22
REMARK    6  A    between atoms: O_8  and  C_23
REMARK    7  A    between atoms: O_9  and  C_24
REMARK    8  A    between atoms: C_12  and  C_13
REMARK                            x       y       z     vdW  Elec       q    Type
REMARK                         _______ _______ _______ _____ _____    ______ ____
ROOT
ATOM      1  O   UNL     1     111.871 127.177 137.009  0.00  0.00    +0.000 OA
ATOM      2  O   UNL     1     114.226 127.039 136.259  0.00  0.00    +0.000 OA
ATOM      3  C   UNL     1     113.031 126.398 136.710  0.00  0.00    +0.000 A 
ATOM      4  C   UNL     1     112.246 126.444 136.960  0.00  0.00    +0.000 A 
ATOM      5  C   UNL     1     112.281 127.865 136.807  0.00  0.00    +0.000 A 
ATOM      6  C   UNL     1     113.066 127.819 136.558  0.00  0.00    +0.000 A 
ATOM      7  C   UNL     1     113.441 127.085 136.509  0.00  0.00    +0.000 A 
ATOM      8  C   UNL     1     111.809 125.735 137.172  0.00  0.00    +0.000 A 
ATOM      9  C   UNL     1     113.433 125.640 136.655  0.00  0.00    +0.000 A 
ATOM     10  C   UNL     1     112.194 124.969 137.123  0.00  0.00    +0.000 A 
ATOM     11  C   UNL     1     113.011 124.921 136.863  0.00  0.00    +0.000 A 
ENDROOT
BRANCH   5  12
ATOM     12  C   UNL     1     111.906 128.598 136.856  0.00  0.00    +0.000 A 
ATOM     13  C   UNL     1     111.488 128.892 136.208  0.00  0.00    +0.000 A 
ATOM     14  C   UNL     1     111.948 129.037 137.554  0.00  0.00    +0.000 A 
ATOM     15  C   UNL     1     111.572 129.769 137.603  0.00  0.00    +0.000 A 
ATOM     16  C   UNL     1     111.113 129.625 136.259  0.00  0.00    +0.000 A 
ATOM     17  C   UNL     1     111.155 130.063 136.955  0.00  0.00    +0.000 A 
BRANCH  15  18
ATOM     18  O   UNL     1     111.615 130.208 138.301  0.00  0.00    +0.000 OA
ATOM     19  C   UNL     1     111.674 129.822 139.027  0.00  0.00    +0.000 C 
ENDBRANCH  15  18
BRANCH  16  20
ATOM     20  O   UNL     1     110.695 129.919 135.611  0.00  0.00    +0.000 OA
ATOM     21  C   UNL     1     110.326 129.399 135.086  0.00  0.00    +0.000 C 
ENDBRANCH  16  20
BRANCH  17  22
ATOM     22  O   UNL     1     110.779 130.797 137.005  0.00  0.00    +0.000 OA
ATOM     23  C   UNL     1     111.199 131.487 136.835  0.00  0.00    +0.000 C 
ENDBRANCH  17  22
ENDBRANCH   5  12
BRANCH   6  24
ATOM     24  O   UNL     1     113.475 128.506 136.357  0.00  0.00    +0.000 OA
ATOM     25  C   UNL     1     114.062 128.481 135.777  0.00  0.00    +0.000 C 
ENDBRANCH   6  24
BRANCH   8  26
ATOM     26  O   UNL     1     111.024 125.791 137.420  0.00  0.00    +0.000 OA
ATOM     27  C   UNL     1     110.831 125.649 138.210  0.00  0.00    +0.000 C 
ENDBRANCH   8  26
BRANCH   9  28
ATOM     28  O   UNL     1     114.218 125.604 136.404  0.00  0.00    +0.000 OA
ATOM     29  C   UNL     1     114.726 125.035 136.719  0.00  0.00    +0.000 C 
ENDBRANCH   9  28
BRANCH  10  30
ATOM     30  O   UNL     1     111.782 124.284 137.325  0.00  0.00    +0.000 OA
ATOM     31  C   UNL     1     111.970 123.567 136.963  0.00  0.00    +0.000 C 
ENDBRANCH  10  30
TORSDOF 8
ENDMDL
