MODEL 1
REMARK VINA RESULT:     -10.3      0.000      0.000
REMARK  Name = 44257071
REMARK  7 active torsions:
REMARK  status: ('A' for Active; 'I' for Inactive)
REMARK    1  A    between atoms: O_2  and  C_17
REMARK    2  A    between atoms: O_2  and  C_23
REMARK    3  A    between atoms: C_16  and  C_21
REMARK    4  A    between atoms: C_19  and  C_28
REMARK    5  A    between atoms: C_25  and  C_29
REMARK    6  A    between atoms: C_29  and  C_32
REMARK    7  A    between atoms: C_36  and  C_37
REMARK                            x       y       z     vdW  Elec       q    Type
REMARK                         _______ _______ _______ _____ _____    ______ ____
ROOT
ATOM      1  O   UNL     1     111.609 127.369 136.636  0.00  0.00    +0.000 OA
ATOM      2  O   UNL     1     110.989 126.183 134.839  0.00  0.00    +0.000 OA
ATOM      3  O   UNL     1     110.434 129.150 134.678  0.00  0.00    +0.000 OA
ATOM      4  C   UNL     1     111.115 126.822 135.347  0.00  0.00    +0.000 C 
ATOM      5  C   UNL     1     111.481 126.699 136.114  0.00  0.00    +0.000 C 
ATOM      6  C   UNL     1     110.880 127.615 135.112  0.00  0.00    +0.000 C 
ATOM      7  C   UNL     1     111.014 128.273 135.646  0.00  0.00    +0.000 A 
ATOM      8  C   UNL     1     111.263 129.554 136.657  0.00  0.00    +0.000 A 
ATOM      9  C   UNL     1     111.367 128.154 136.383  0.00  0.00    +0.000 A 
ATOM     10  C   UNL     1     110.911 129.671 135.920  0.00  0.00    +0.000 A 
ATOM     11  C   UNL     1     110.787 129.031 135.415  0.00  0.00    +0.000 A 
ATOM     12  C   UNL     1     111.491 128.794 136.888  0.00  0.00    +0.000 A 
ENDROOT
BRANCH   5  15
ATOM     13  O   UNL     1     113.499 124.690 136.364  0.00  0.00    +0.000 OA
ATOM     14  O   UNL     1     112.397 123.670 137.049  0.00  0.00    +0.000 OA
ATOM     15  C   UNL     1     111.710 125.941 136.348  0.00  0.00    +0.000 A 
ATOM     16  C   UNL     1     112.490 125.694 136.239  0.00  0.00    +0.000 A 
ATOM     17  C   UNL     1     111.159 125.431 136.690  0.00  0.00    +0.000 A 
ATOM     18  C   UNL     1     112.719 124.937 136.473  0.00  0.00    +0.000 A 
ATOM     19  C   UNL     1     111.388 124.674 136.924  0.00  0.00    +0.000 A 
ATOM     20  C   UNL     1     112.168 124.427 136.815  0.00  0.00    +0.000 A 
ENDBRANCH   5  15
BRANCH   8  21
ATOM     21  O   UNL     1     111.388 130.194 137.162  0.00  0.00    +0.000 OA
BRANCH  21  30
ATOM     22  O   UNL     1     112.806 130.324 137.049  0.00  0.00    +0.000 OA
ATOM     23  O   UNL     1     112.978 130.591 139.503  0.00  0.00    +0.000 OA
ATOM     24  O   UNL     1     114.339 130.633 138.572  0.00  0.00    +0.000 OA
ATOM     25  O   UNL     1     111.502 130.372 138.799  0.00  0.00    +0.000 OA
ATOM     26  C   UNL     1     112.921 130.502 138.685  0.00  0.00    +0.000 C 
ATOM     27  C   UNL     1     113.602 130.523 138.219  0.00  0.00    +0.000 C 
ATOM     28  C   UNL     1     112.183 130.392 138.332  0.00  0.00    +0.000 C 
ATOM     29  C   UNL     1     113.545 130.434 137.401  0.00  0.00    +0.000 C 
ATOM     30  C   UNL     1     112.126 130.304 137.514  0.00  0.00    +0.000 C 
BRANCH  29  32
ATOM     31  O   UNL     1     114.228 130.876 136.226  0.00  0.00    +0.000 OA
ATOM     32  C   UNL     1     114.225 130.455 136.935  0.00  0.00    +0.000 C 
ENDBRANCH  29  32
ENDBRANCH  21  30
ENDBRANCH   8  21
BRANCH  10  33
ATOM     33  C   UNL     1     110.683 130.430 135.689  0.00  0.00    +0.000 C 
BRANCH  33  34
ATOM     34  C   UNL     1     109.884 130.609 135.595  0.00  0.00    +0.000 C 
ATOM     35  C   UNL     1     109.643 131.396 135.523  0.00  0.00    +0.000 C 
BRANCH  35  37
ATOM     36  O   UNL     1     106.445 132.113 135.145  0.00  0.00    +0.000 OA
ATOM     37  C   UNL     1     108.843 131.575 135.429  0.00  0.00    +0.000 A 
ATOM     38  C   UNL     1     108.569 131.865 134.707  0.00  0.00    +0.000 A 
ATOM     39  C   UNL     1     108.319 131.464 136.056  0.00  0.00    +0.000 A 
ATOM     40  C   UNL     1     107.769 132.044 134.613  0.00  0.00    +0.000 A 
ATOM     41  C   UNL     1     107.520 131.643 135.961  0.00  0.00    +0.000 A 
ATOM     42  C   UNL     1     107.244 131.934 135.240  0.00  0.00    +0.000 A 
ENDBRANCH  35  37
ENDBRANCH  33  34
ENDBRANCH  10  33
TORSDOF 7
ENDMDL
MODEL 2
REMARK VINA RESULT:      -9.8      2.637      6.294
REMARK  Name = 44257071
REMARK  7 active torsions:
REMARK  status: ('A' for Active; 'I' for Inactive)
REMARK    1  A    between atoms: O_2  and  C_17
REMARK    2  A    between atoms: O_2  and  C_23
REMARK    3  A    between atoms: C_16  and  C_21
REMARK    4  A    between atoms: C_19  and  C_28
REMARK    5  A    between atoms: C_25  and  C_29
REMARK    6  A    between atoms: C_29  and  C_32
REMARK    7  A    between atoms: C_36  and  C_37
REMARK                            x       y       z     vdW  Elec       q    Type
REMARK                         _______ _______ _______ _____ _____    ______ ____
ROOT
ATOM      1  O   UNL     1     112.950 129.171 139.802  0.00  0.00    +0.000 OA
ATOM      2  O   UNL     1     114.580 128.227 141.015  0.00  0.00    +0.000 OA
ATOM      3  O   UNL     1     112.551 126.304 139.865  0.00  0.00    +0.000 OA
ATOM      4  C   UNL     1     113.905 128.312 140.548  0.00  0.00    +0.000 C 
ATOM      5  C   UNL     1     113.654 129.091 140.288  0.00  0.00    +0.000 C 
ATOM      6  C   UNL     1     113.447 127.621 140.318  0.00  0.00    +0.000 C 
ATOM      7  C   UNL     1     112.746 127.719 139.832  0.00  0.00    +0.000 A 
ATOM      8  C   UNL     1     111.395 127.883 138.898  0.00  0.00    +0.000 A 
ATOM      9  C   UNL     1     112.506 128.468 139.582  0.00  0.00    +0.000 A 
ATOM     10  C   UNL     1     111.636 127.135 139.148  0.00  0.00    +0.000 A 
ATOM     11  C   UNL     1     112.311 127.053 139.615  0.00  0.00    +0.000 A 
ATOM     12  C   UNL     1     111.831 128.550 139.115  0.00  0.00    +0.000 A 
ENDROOT
BRANCH   5  15
ATOM     13  O   UNL     1     113.964 131.421 141.914  0.00  0.00    +0.000 OA
ATOM     14  O   UNL     1     115.385 131.765 141.150  0.00  0.00    +0.000 OA
ATOM     15  C   UNL     1     114.087 129.760 140.503  0.00  0.00    +0.000 A 
ATOM     16  C   UNL     1     113.809 130.256 141.100  0.00  0.00    +0.000 A 
ATOM     17  C   UNL     1     114.798 129.932 140.121  0.00  0.00    +0.000 A 
ATOM     18  C   UNL     1     114.241 130.925 141.316  0.00  0.00    +0.000 A 
ATOM     19  C   UNL     1     115.231 130.600 140.337  0.00  0.00    +0.000 A 
ATOM     20  C   UNL     1     114.952 131.096 140.935  0.00  0.00    +0.000 A 
ENDBRANCH   5  15
BRANCH   8  21
ATOM     21  O   UNL     1     110.720 127.965 138.431  0.00  0.00    +0.000 OA
BRANCH  21  30
ATOM     22  O   UNL     1     109.867 128.674 139.332  0.00  0.00    +0.000 OA
ATOM     23  O   UNL     1     109.239 130.231 137.513  0.00  0.00    +0.000 OA
ATOM     24  O   UNL     1     108.596 130.421 139.021  0.00  0.00    +0.000 OA
ATOM     25  O   UNL     1     110.301 129.003 137.219  0.00  0.00    +0.000 OA
ATOM     26  C   UNL     1     109.449 129.712 138.120  0.00  0.00    +0.000 C 
ATOM     27  C   UNL     1     109.127 129.807 138.874  0.00  0.00    +0.000 C 
ATOM     28  C   UNL     1     109.980 129.098 137.973  0.00  0.00    +0.000 C 
ATOM     29  C   UNL     1     109.336 129.288 139.480  0.00  0.00    +0.000 C 
ATOM     30  C   UNL     1     110.189 128.579 138.579  0.00  0.00    +0.000 C 
BRANCH  29  32
ATOM     31  O   UNL     1     108.669 128.742 140.619  0.00  0.00    +0.000 OA
ATOM     32  C   UNL     1     109.015 129.384 140.233  0.00  0.00    +0.000 C 
ENDBRANCH  29  32
ENDBRANCH  21  30
ENDBRANCH   8  21
BRANCH  10  33
ATOM     33  C   UNL     1     111.201 126.468 138.931  0.00  0.00    +0.000 C 
BRANCH  33  34
ATOM     34  C   UNL     1     111.475 125.975 138.330  0.00  0.00    +0.000 C 
ATOM     35  C   UNL     1     111.006 125.351 138.061  0.00  0.00    +0.000 C 
BRANCH  35  37
ATOM     36  O   UNL     1     112.104 123.381 135.653  0.00  0.00    +0.000 OA
ATOM     37  C   UNL     1     111.281 124.858 137.460  0.00  0.00    +0.000 A 
ATOM     38  C   UNL     1     111.165 125.069 136.670  0.00  0.00    +0.000 A 
ATOM     39  C   UNL     1     111.670 124.155 137.647  0.00  0.00    +0.000 A 
ATOM     40  C   UNL     1     111.440 124.576 136.068  0.00  0.00    +0.000 A 
ATOM     41  C   UNL     1     111.944 123.663 137.045  0.00  0.00    +0.000 A 
ATOM     42  C   UNL     1     111.830 123.873 136.255  0.00  0.00    +0.000 A 
ENDBRANCH  35  37
ENDBRANCH  33  34
ENDBRANCH  10  33
TORSDOF 7
ENDMDL
MODEL 3
REMARK VINA RESULT:      -9.8      1.067      5.359
REMARK  Name = 44257071
REMARK  7 active torsions:
REMARK  status: ('A' for Active; 'I' for Inactive)
REMARK    1  A    between atoms: O_2  and  C_17
REMARK    2  A    between atoms: O_2  and  C_23
REMARK    3  A    between atoms: C_16  and  C_21
REMARK    4  A    between atoms: C_19  and  C_28
REMARK    5  A    between atoms: C_25  and  C_29
REMARK    6  A    between atoms: C_29  and  C_32
REMARK    7  A    between atoms: C_36  and  C_37
REMARK                            x       y       z     vdW  Elec       q    Type
REMARK                         _______ _______ _______ _____ _____    ______ ____
ROOT
ATOM      1  O   UNL     1     110.487 129.755 136.544  0.00  0.00    +0.000 OA
ATOM      2  O   UNL     1     109.441 129.317 134.612  0.00  0.00    +0.000 OA
ATOM      3  O   UNL     1     111.675 127.411 135.328  0.00  0.00    +0.000 OA
ATOM      4  C   UNL     1     109.967 129.256 135.246  0.00  0.00    +0.000 C 
ATOM      5  C   UNL     1     109.937 129.825 135.889  0.00  0.00    +0.000 C 
ATOM      6  C   UNL     1     110.548 128.623 135.267  0.00  0.00    +0.000 C 
ATOM      7  C   UNL     1     111.090 128.568 135.931  0.00  0.00    +0.000 A 
ATOM      8  C   UNL     1     112.143 128.441 137.195  0.00  0.00    +0.000 A 
ATOM      9  C   UNL     1     111.061 129.115 136.548  0.00  0.00    +0.000 A 
ATOM     10  C   UNL     1     112.172 127.895 136.577  0.00  0.00    +0.000 A 
ATOM     11  C   UNL     1     111.645 127.958 135.945  0.00  0.00    +0.000 A 
ATOM     12  C   UNL     1     111.587 129.051 137.180  0.00  0.00    +0.000 A 
ENDROOT
BRANCH   5  15
ATOM     13  O   UNL     1     109.261 132.543 135.316  0.00  0.00    +0.000 OA
ATOM     14  O   UNL     1     107.720 132.270 135.840  0.00  0.00    +0.000 OA
ATOM     15  C   UNL     1     109.382 130.436 135.876  0.00  0.00    +0.000 A 
ATOM     16  C   UNL     1     109.598 131.184 135.602  0.00  0.00    +0.000 A 
ATOM     17  C   UNL     1     108.612 130.300 136.138  0.00  0.00    +0.000 A 
ATOM     18  C   UNL     1     109.045 131.795 135.590  0.00  0.00    +0.000 A 
ATOM     19  C   UNL     1     108.058 130.911 136.126  0.00  0.00    +0.000 A 
ATOM     20  C   UNL     1     108.275 131.659 135.852  0.00  0.00    +0.000 A 
ENDBRANCH   5  15
BRANCH   8  21
ATOM     21  O   UNL     1     112.670 128.377 137.827  0.00  0.00    +0.000 OA
BRANCH  21  30
ATOM     22  O   UNL     1     113.444 129.560 137.615  0.00  0.00    +0.000 OA
ATOM     23  O   UNL     1     113.342 130.061 140.037  0.00  0.00    +0.000 OA
ATOM     24  O   UNL     1     114.150 131.076 139.017  0.00  0.00    +0.000 OA
ATOM     25  O   UNL     1     112.602 128.711 139.441  0.00  0.00    +0.000 OA
ATOM     26  C   UNL     1     113.376 129.894 139.229  0.00  0.00    +0.000 C 
ATOM     27  C   UNL     1     113.780 130.402 138.719  0.00  0.00    +0.000 C 
ATOM     28  C   UNL     1     113.006 129.219 138.931  0.00  0.00    +0.000 C 
ATOM     29  C   UNL     1     113.814 130.235 137.912  0.00  0.00    +0.000 C 
ATOM     30  C   UNL     1     113.040 129.052 138.124  0.00  0.00    +0.000 C 
BRANCH  29  32
ATOM     31  O   UNL     1     114.587 130.443 136.728  0.00  0.00    +0.000 OA
ATOM     32  C   UNL     1     114.218 130.742 137.403  0.00  0.00    +0.000 C 
ENDBRANCH  29  32
ENDBRANCH  21  30
ENDBRANCH   8  21
BRANCH  10  33
ATOM     33  C   UNL     1     112.727 127.284 136.592  0.00  0.00    +0.000 C 
BRANCH  33  34
ATOM     34  C   UNL     1     112.478 126.502 136.673  0.00  0.00    +0.000 C 
ATOM     35  C   UNL     1     113.025 125.912 136.858  0.00  0.00    +0.000 C 
BRANCH  35  37
ATOM     36  O   UNL     1     112.029 122.783 137.181  0.00  0.00    +0.000 OA
ATOM     37  C   UNL     1     112.776 125.130 136.939  0.00  0.00    +0.000 A 
ATOM     38  C   UNL     1     113.105 124.542 136.464  0.00  0.00    +0.000 A 
ATOM     39  C   UNL     1     112.197 124.936 137.495  0.00  0.00    +0.000 A 
ATOM     40  C   UNL     1     112.856 123.759 136.545  0.00  0.00    +0.000 A 
ATOM     41  C   UNL     1     111.949 124.155 137.575  0.00  0.00    +0.000 A 
ATOM     42  C   UNL     1     112.278 123.565 137.101  0.00  0.00    +0.000 A 
ENDBRANCH  35  37
ENDBRANCH  33  34
ENDBRANCH  10  33
TORSDOF 7
ENDMDL
MODEL 4
REMARK VINA RESULT:      -9.8      2.403      6.240
REMARK  Name = 44257071
REMARK  7 active torsions:
REMARK  status: ('A' for Active; 'I' for Inactive)
REMARK    1  A    between atoms: O_2  and  C_17
REMARK    2  A    between atoms: O_2  and  C_23
REMARK    3  A    between atoms: C_16  and  C_21
REMARK    4  A    between atoms: C_19  and  C_28
REMARK    5  A    between atoms: C_25  and  C_29
REMARK    6  A    between atoms: C_29  and  C_32
REMARK    7  A    between atoms: C_36  and  C_37
REMARK                            x       y       z     vdW  Elec       q    Type
REMARK                         _______ _______ _______ _____ _____    ______ ____
ROOT
ATOM      1  O   UNL     1     111.939 130.976 138.249  0.00  0.00    +0.000 OA
ATOM      2  O   UNL     1     110.110 130.470 137.059  0.00  0.00    +0.000 OA
ATOM      3  O   UNL     1     111.484 128.120 138.371  0.00  0.00    +0.000 OA
ATOM      4  C   UNL     1     110.778 130.385 137.535  0.00  0.00    +0.000 C 
ATOM      5  C   UNL     1     111.244 131.073 137.753  0.00  0.00    +0.000 C 
ATOM      6  C   UNL     1     111.013 129.608 137.817  0.00  0.00    +0.000 C 
ATOM      7  C   UNL     1     111.711 129.530 138.313  0.00  0.00    +0.000 A 
ATOM      8  C   UNL     1     113.046 129.354 139.265  0.00  0.00    +0.000 A 
ATOM      9  C   UNL     1     112.158 130.191 138.521  0.00  0.00    +0.000 A 
ATOM     10  C   UNL     1     112.599 128.694 139.056  0.00  0.00    +0.000 A 
ATOM     11  C   UNL     1     111.931 128.781 138.580  0.00  0.00    +0.000 A 
ATOM     12  C   UNL     1     112.826 130.103 138.997  0.00  0.00    +0.000 A 
ENDROOT
BRANCH   5  15
ATOM     13  O   UNL     1     109.973 133.591 138.216  0.00  0.00    +0.000 OA
ATOM     14  O   UNL     1     110.371 134.073 136.689  0.00  0.00    +0.000 OA
ATOM     15  C   UNL     1     111.026 131.823 137.486  0.00  0.00    +0.000 A 
ATOM     16  C   UNL     1     110.609 132.332 137.984  0.00  0.00    +0.000 A 
ATOM     17  C   UNL     1     111.225 132.064 136.723  0.00  0.00    +0.000 A 
ATOM     18  C   UNL     1     110.390 133.082 137.719  0.00  0.00    +0.000 A 
ATOM     19  C   UNL     1     111.007 132.814 136.457  0.00  0.00    +0.000 A 
ATOM     20  C   UNL     1     110.589 133.323 136.955  0.00  0.00    +0.000 A 
ENDBRANCH   5  15
BRANCH   8  21
ATOM     21  O   UNL     1     113.714 129.267 139.741  0.00  0.00    +0.000 OA
BRANCH  21  30
ATOM     22  O   UNL     1     113.347 130.001 140.911  0.00  0.00    +0.000 OA
ATOM     23  O   UNL     1     115.506 131.208 140.831  0.00  0.00    +0.000 OA
ATOM     24  O   UNL     1     114.419 131.540 142.027  0.00  0.00    +0.000 OA
ATOM     25  O   UNL     1     115.154 130.072 139.688  0.00  0.00    +0.000 OA
ATOM     26  C   UNL     1     114.786 130.806 140.858  0.00  0.00    +0.000 C 
ATOM     27  C   UNL     1     114.242 130.972 141.456  0.00  0.00    +0.000 C 
ATOM     28  C   UNL     1     114.610 130.237 140.287  0.00  0.00    +0.000 C 
ATOM     29  C   UNL     1     113.523 130.569 141.483  0.00  0.00    +0.000 C 
ATOM     30  C   UNL     1     113.890 129.835 140.313  0.00  0.00    +0.000 C 
BRANCH  29  32
ATOM     31  O   UNL     1     112.560 130.122 142.440  0.00  0.00    +0.000 OA
ATOM     32  C   UNL     1     112.980 130.735 142.081  0.00  0.00    +0.000 C 
ENDBRANCH  29  32
ENDBRANCH  21  30
ENDBRANCH   8  21
BRANCH  10  33
ATOM     33  C   UNL     1     112.820 127.945 139.324  0.00  0.00    +0.000 C 
BRANCH  33  34
ATOM     34  C   UNL     1     113.078 127.375 138.786  0.00  0.00    +0.000 C 
ATOM     35  C   UNL     1     113.303 126.627 139.055  0.00  0.00    +0.000 C 
BRANCH  35  37
ATOM     36  O   UNL     1     114.333 124.347 136.904  0.00  0.00    +0.000 OA
ATOM     37  C   UNL     1     113.561 126.057 138.517  0.00  0.00    +0.000 A 
ATOM     38  C   UNL     1     113.011 125.586 138.121  0.00  0.00    +0.000 A 
ATOM     39  C   UNL     1     114.367 125.958 138.375  0.00  0.00    +0.000 A 
ATOM     40  C   UNL     1     113.269 125.016 137.583  0.00  0.00    +0.000 A 
ATOM     41  C   UNL     1     114.625 125.389 137.838  0.00  0.00    +0.000 A 
ATOM     42  C   UNL     1     114.076 124.917 137.441  0.00  0.00    +0.000 A 
ENDBRANCH  35  37
ENDBRANCH  33  34
ENDBRANCH  10  33
TORSDOF 7
ENDMDL
MODEL 5
REMARK VINA RESULT:      -9.7      1.676      5.763
REMARK  Name = 44257071
REMARK  7 active torsions:
REMARK  status: ('A' for Active; 'I' for Inactive)
REMARK    1  A    between atoms: O_2  and  C_17
REMARK    2  A    between atoms: O_2  and  C_23
REMARK    3  A    between atoms: C_16  and  C_21
REMARK    4  A    between atoms: C_19  and  C_28
REMARK    5  A    between atoms: C_25  and  C_29
REMARK    6  A    between atoms: C_29  and  C_32
REMARK    7  A    between atoms: C_36  and  C_37
REMARK                            x       y       z     vdW  Elec       q    Type
REMARK                         _______ _______ _______ _____ _____    ______ ____
ROOT
ATOM      1  O   UNL     1     109.982 129.652 136.866  0.00  0.00    +0.000 OA
ATOM      2  O   UNL     1     108.435 128.668 135.580  0.00  0.00    +0.000 OA
ATOM      3  O   UNL     1     110.143 126.783 137.212  0.00  0.00    +0.000 OA
ATOM      4  C   UNL     1     109.054 128.768 136.116  0.00  0.00    +0.000 C 
ATOM      5  C   UNL     1     109.337 129.557 136.307  0.00  0.00    +0.000 C 
ATOM      6  C   UNL     1     109.421 128.085 136.487  0.00  0.00    +0.000 C 
ATOM      7  C   UNL     1     110.066 128.200 137.043  0.00  0.00    +0.000 A 
ATOM      8  C   UNL     1     111.305 128.395 138.115  0.00  0.00    +0.000 A 
ATOM      9  C   UNL     1     110.337 128.957 137.226  0.00  0.00    +0.000 A 
ATOM     10  C   UNL     1     111.033 127.638 137.931  0.00  0.00    +0.000 A 
ATOM     11  C   UNL     1     110.414 127.540 137.395  0.00  0.00    +0.000 A 
ATOM     12  C   UNL     1     110.956 129.055 137.762  0.00  0.00    +0.000 A 
ENDROOT
BRANCH   5  15
ATOM     13  O   UNL     1     107.366 131.627 136.336  0.00  0.00    +0.000 OA
ATOM     14  O   UNL     1     107.950 132.202 134.904  0.00  0.00    +0.000 OA
ATOM     15  C   UNL     1     108.990 130.218 135.956  0.00  0.00    +0.000 A 
ATOM     16  C   UNL     1     108.352 130.592 136.321  0.00  0.00    +0.000 A 
ATOM     17  C   UNL     1     109.282 130.506 135.241  0.00  0.00    +0.000 A 
ATOM     18  C   UNL     1     108.005 131.253 135.971  0.00  0.00    +0.000 A 
ATOM     19  C   UNL     1     108.936 131.167 134.890  0.00  0.00    +0.000 A 
ATOM     20  C   UNL     1     108.297 131.541 135.255  0.00  0.00    +0.000 A 
ENDBRANCH   5  15
BRANCH   8  21
ATOM     21  O   UNL     1     111.925 128.492 138.651  0.00  0.00    +0.000 OA
BRANCH  21  30
ATOM     22  O   UNL     1     111.230 129.123 139.729  0.00  0.00    +0.000 OA
ATOM     23  O   UNL     1     113.065 130.770 139.947  0.00  0.00    +0.000 OA
ATOM     24  O   UNL     1     111.759 130.852 140.952  0.00  0.00    +0.000 OA
ATOM     25  O   UNL     1     113.148 129.590 138.797  0.00  0.00    +0.000 OA
ATOM     26  C   UNL     1     112.453 130.221 139.874  0.00  0.00    +0.000 C 
ATOM     27  C   UNL     1     111.800 130.262 140.377  0.00  0.00    +0.000 C 
ATOM     28  C   UNL     1     112.494 129.631 139.299  0.00  0.00    +0.000 C 
ATOM     29  C   UNL     1     111.188 129.713 140.304  0.00  0.00    +0.000 C 
ATOM     30  C   UNL     1     111.883 129.082 139.227  0.00  0.00    +0.000 C 
BRANCH  29  32
ATOM     31  O   UNL     1     110.227 129.066 141.141  0.00  0.00    +0.000 OA
ATOM     32  C   UNL     1     110.535 129.754 140.806  0.00  0.00    +0.000 C 
ENDBRANCH  29  32
ENDBRANCH  21  30
ENDBRANCH   8  21
BRANCH  10  33
ATOM     33  C   UNL     1     111.382 126.978 138.284  0.00  0.00    +0.000 C 
BRANCH  33  34
ATOM     34  C   UNL     1     112.033 126.617 137.929  0.00  0.00    +0.000 C 
ATOM     35  C   UNL     1     112.389 125.964 138.287  0.00  0.00    +0.000 C 
BRANCH  35  37
ATOM     36  O   UNL     1     114.994 124.521 136.867  0.00  0.00    +0.000 OA
ATOM     37  C   UNL     1     113.040 125.603 137.932  0.00  0.00    +0.000 A 
ATOM     38  C   UNL     1     113.802 125.772 138.200  0.00  0.00    +0.000 A 
ATOM     39  C   UNL     1     112.930 125.073 137.309  0.00  0.00    +0.000 A 
ATOM     40  C   UNL     1     114.454 125.411 137.845  0.00  0.00    +0.000 A 
ATOM     41  C   UNL     1     113.581 124.713 136.955  0.00  0.00    +0.000 A 
ATOM     42  C   UNL     1     114.343 124.881 137.222  0.00  0.00    +0.000 A 
ENDBRANCH  35  37
ENDBRANCH  33  34
ENDBRANCH  10  33
TORSDOF 7
ENDMDL
MODEL 6
REMARK VINA RESULT:      -9.6      1.441      5.633
REMARK  Name = 44257071
REMARK  7 active torsions:
REMARK  status: ('A' for Active; 'I' for Inactive)
REMARK    1  A    between atoms: O_2  and  C_17
REMARK    2  A    between atoms: O_2  and  C_23
REMARK    3  A    between atoms: C_16  and  C_21
REMARK    4  A    between atoms: C_19  and  C_28
REMARK    5  A    between atoms: C_25  and  C_29
REMARK    6  A    between atoms: C_29  and  C_32
REMARK    7  A    between atoms: C_36  and  C_37
REMARK                            x       y       z     vdW  Elec       q    Type
REMARK                         _______ _______ _______ _____ _____    ______ ____
ROOT
ATOM      1  O   UNL     1     110.704 130.009 135.938  0.00  0.00    +0.000 OA
ATOM      2  O   UNL     1     108.684 129.832 136.890  0.00  0.00    +0.000 OA
ATOM      3  O   UNL     1     110.732 127.818 137.830  0.00  0.00    +0.000 OA
ATOM      4  C   UNL     1     109.474 129.684 136.705  0.00  0.00    +0.000 C 
ATOM      5  C   UNL     1     109.881 130.169 136.124  0.00  0.00    +0.000 C 
ATOM      6  C   UNL     1     109.898 129.045 137.094  0.00  0.00    +0.000 C 
ATOM      7  C   UNL     1     110.721 128.899 136.895  0.00  0.00    +0.000 A 
ATOM      8  C   UNL     1     112.302 128.600 136.531  0.00  0.00    +0.000 A 
ATOM      9  C   UNL     1     111.110 129.365 136.337  0.00  0.00    +0.000 A 
ATOM     10  C   UNL     1     111.912 128.135 137.089  0.00  0.00    +0.000 A 
ATOM     11  C   UNL     1     111.122 128.284 137.271  0.00  0.00    +0.000 A 
ATOM     12  C   UNL     1     111.901 129.216 136.154  0.00  0.00    +0.000 A 
ENDROOT
BRANCH   5  15
ATOM     13  O   UNL     1     109.304 132.957 135.872  0.00  0.00    +0.000 OA
ATOM     14  O   UNL     1     108.287 132.633 134.614  0.00  0.00    +0.000 OA
ATOM     15  C   UNL     1     109.482 130.785 135.746  0.00  0.00    +0.000 A 
ATOM     16  C   UNL     1     109.592 131.563 135.998  0.00  0.00    +0.000 A 
ATOM     17  C   UNL     1     108.974 130.623 135.117  0.00  0.00    +0.000 A 
ATOM     18  C   UNL     1     109.194 132.179 135.621  0.00  0.00    +0.000 A 
ATOM     19  C   UNL     1     108.575 131.239 134.739  0.00  0.00    +0.000 A 
ATOM     20  C   UNL     1     108.686 132.017 134.991  0.00  0.00    +0.000 A 
ENDBRANCH   5  15
BRANCH   8  21
ATOM     21  O   UNL     1     113.093 128.451 136.348  0.00  0.00    +0.000 OA
BRANCH  21  30
ATOM     22  O   UNL     1     113.687 129.659 136.828  0.00  0.00    +0.000 OA
ATOM     23  O   UNL     1     115.055 129.802 134.770  0.00  0.00    +0.000 OA
ATOM     24  O   UNL     1     115.193 130.963 135.935  0.00  0.00    +0.000 OA
ATOM     25  O   UNL     1     114.005 128.546 134.977  0.00  0.00    +0.000 OA
ATOM     26  C   UNL     1     114.599 129.755 135.456  0.00  0.00    +0.000 C 
ATOM     27  C   UNL     1     114.668 130.335 136.039  0.00  0.00    +0.000 C 
ATOM     28  C   UNL     1     114.074 129.127 135.560  0.00  0.00    +0.000 C 
ATOM     29  C   UNL     1     114.212 130.287 136.725  0.00  0.00    +0.000 C 
ATOM     30  C   UNL     1     113.618 129.079 136.246  0.00  0.00    +0.000 C 
BRANCH  29  32
ATOM     31  O   UNL     1     114.252 130.658 138.104  0.00  0.00    +0.000 OA
ATOM     32  C   UNL     1     114.281 130.867 137.307  0.00  0.00    +0.000 C 
ENDBRANCH  29  32
ENDBRANCH  21  30
ENDBRANCH   8  21
BRANCH  10  33
ATOM     33  C   UNL     1     112.314 127.519 137.465  0.00  0.00    +0.000 C 
BRANCH  33  34
ATOM     34  C   UNL     1     112.186 126.740 137.229  0.00  0.00    +0.000 C 
ATOM     35  C   UNL     1     112.596 126.125 137.597  0.00  0.00    +0.000 C 
BRANCH  35  37
ATOM     36  O   UNL     1     112.088 123.006 136.651  0.00  0.00    +0.000 OA
ATOM     37  C   UNL     1     112.469 125.345 137.361  0.00  0.00    +0.000 A 
ATOM     38  C   UNL     1     113.009 124.974 136.860  0.00  0.00    +0.000 A 
ATOM     39  C   UNL     1     111.802 124.937 137.625  0.00  0.00    +0.000 A 
ATOM     40  C   UNL     1     112.881 124.193 136.623  0.00  0.00    +0.000 A 
ATOM     41  C   UNL     1     111.675 124.158 137.388  0.00  0.00    +0.000 A 
ATOM     42  C   UNL     1     112.215 123.785 136.887  0.00  0.00    +0.000 A 
ENDBRANCH  35  37
ENDBRANCH  33  34
ENDBRANCH  10  33
TORSDOF 7
ENDMDL
MODEL 7
REMARK VINA RESULT:      -9.5      2.222      5.943
REMARK  Name = 44257071
REMARK  7 active torsions:
REMARK  status: ('A' for Active; 'I' for Inactive)
REMARK    1  A    between atoms: O_2  and  C_17
REMARK    2  A    between atoms: O_2  and  C_23
REMARK    3  A    between atoms: C_16  and  C_21
REMARK    4  A    between atoms: C_19  and  C_28
REMARK    5  A    between atoms: C_25  and  C_29
REMARK    6  A    between atoms: C_29  and  C_32
REMARK    7  A    between atoms: C_36  and  C_37
REMARK                            x       y       z     vdW  Elec       q    Type
REMARK                         _______ _______ _______ _____ _____    ______ ____
ROOT
ATOM      1  O   UNL     1     110.173 130.792 137.107  0.00  0.00    +0.000 OA
ATOM      2  O   UNL     1     109.091 132.579 137.917  0.00  0.00    +0.000 OA
ATOM      3  O   UNL     1     111.234 131.443 139.720  0.00  0.00    +0.000 OA
ATOM      4  C   UNL     1     109.618 131.946 137.859  0.00  0.00    +0.000 C 
ATOM      5  C   UNL     1     109.621 131.449 137.158  0.00  0.00    +0.000 C 
ATOM      6  C   UNL     1     110.167 131.780 138.499  0.00  0.00    +0.000 C 
ATOM      7  C   UNL     1     110.712 131.119 138.430  0.00  0.00    +0.000 A 
ATOM      8  C   UNL     1     111.767 129.856 138.320  0.00  0.00    +0.000 A 
ATOM      9  C   UNL     1     110.714 130.642 137.757  0.00  0.00    +0.000 A 
ATOM     10  C   UNL     1     111.764 130.334 138.992  0.00  0.00    +0.000 A 
ATOM     11  C   UNL     1     111.236 130.965 139.047  0.00  0.00    +0.000 A 
ATOM     12  C   UNL     1     111.242 130.010 137.702  0.00  0.00    +0.000 A 
ENDROOT
BRANCH   5  15
ATOM     13  O   UNL     1     107.090 131.031 135.899  0.00  0.00    +0.000 OA
ATOM     14  O   UNL     1     107.526 132.056 134.682  0.00  0.00    +0.000 OA
ATOM     15  C   UNL     1     109.097 131.601 136.539  0.00  0.00    +0.000 A 
ATOM     16  C   UNL     1     108.355 131.240 136.529  0.00  0.00    +0.000 A 
ATOM     17  C   UNL     1     109.316 132.113 135.931  0.00  0.00    +0.000 A 
ATOM     18  C   UNL     1     107.831 131.392 135.910  0.00  0.00    +0.000 A 
ATOM     19  C   UNL     1     108.792 132.265 135.312  0.00  0.00    +0.000 A 
ATOM     20  C   UNL     1     108.050 131.904 135.302  0.00  0.00    +0.000 A 
ENDBRANCH   5  15
BRANCH   8  21
ATOM     21  O   UNL     1     112.295 129.224 138.265  0.00  0.00    +0.000 OA
BRANCH  21  30
ATOM     22  O   UNL     1     113.182 129.722 137.262  0.00  0.00    +0.000 OA
ATOM     23  O   UNL     1     113.117 127.529 136.116  0.00  0.00    +0.000 OA
ATOM     24  O   UNL     1     114.026 128.758 135.494  0.00  0.00    +0.000 OA
ATOM     25  O   UNL     1     112.251 127.762 137.501  0.00  0.00    +0.000 OA
ATOM     26  C   UNL     1     113.139 128.260 136.498  0.00  0.00    +0.000 C 
ATOM     27  C   UNL     1     113.594 128.875 136.187  0.00  0.00    +0.000 C 
ATOM     28  C   UNL     1     112.706 128.377 137.190  0.00  0.00    +0.000 C 
ATOM     29  C   UNL     1     113.615 129.606 136.569  0.00  0.00    +0.000 C 
ATOM     30  C   UNL     1     112.728 129.108 137.572  0.00  0.00    +0.000 C 
BRANCH  29  32
ATOM     31  O   UNL     1     114.552 130.669 136.755  0.00  0.00    +0.000 OA
ATOM     32  C   UNL     1     114.069 130.220 136.258  0.00  0.00    +0.000 C 
ENDBRANCH  29  32
ENDBRANCH  21  30
ENDBRANCH   8  21
BRANCH  10  33
ATOM     33  C   UNL     1     112.289 130.179 139.610  0.00  0.00    +0.000 C 
BRANCH  33  34
ATOM     34  C   UNL     1     112.006 129.884 140.327  0.00  0.00    +0.000 C 
ATOM     35  C   UNL     1     112.537 129.654 140.916  0.00  0.00    +0.000 C 
BRANCH  35  37
ATOM     36  O   UNL     1     111.406 128.475 143.783  0.00  0.00    +0.000 OA
ATOM     37  C   UNL     1     112.254 129.359 141.632  0.00  0.00    +0.000 A 
ATOM     38  C   UNL     1     112.233 129.845 142.298  0.00  0.00    +0.000 A 
ATOM     39  C   UNL     1     111.993 128.578 141.683  0.00  0.00    +0.000 A 
ATOM     40  C   UNL     1     111.950 129.550 143.015  0.00  0.00    +0.000 A 
ATOM     41  C   UNL     1     111.711 128.284 142.400  0.00  0.00    +0.000 A 
ATOM     42  C   UNL     1     111.689 128.770 143.066  0.00  0.00    +0.000 A 
ENDBRANCH  35  37
ENDBRANCH  33  34
ENDBRANCH  10  33
TORSDOF 7
ENDMDL
MODEL 8
REMARK VINA RESULT:      -9.4      5.584      9.220
REMARK  Name = 44257071
REMARK  7 active torsions:
REMARK  status: ('A' for Active; 'I' for Inactive)
REMARK    1  A    between atoms: O_2  and  C_17
REMARK    2  A    between atoms: O_2  and  C_23
REMARK    3  A    between atoms: C_16  and  C_21
REMARK    4  A    between atoms: C_19  and  C_28
REMARK    5  A    between atoms: C_25  and  C_29
REMARK    6  A    between atoms: C_29  and  C_32
REMARK    7  A    between atoms: C_36  and  C_37
REMARK                            x       y       z     vdW  Elec       q    Type
REMARK                         _______ _______ _______ _____ _____    ______ ____
ROOT
ATOM      1  O   UNL     1     111.338 131.568 144.608  0.00  0.00    +0.000 OA
ATOM      2  O   UNL     1     112.889 133.180 144.728  0.00  0.00    +0.000 OA
ATOM      3  O   UNL     1     112.994 131.475 142.235  0.00  0.00    +0.000 OA
ATOM      4  C   UNL     1     112.448 132.542 144.447  0.00  0.00    +0.000 C 
ATOM      5  C   UNL     1     111.792 132.233 144.908  0.00  0.00    +0.000 C 
ATOM      6  C   UNL     1     112.640 132.183 143.690  0.00  0.00    +0.000 C 
ATOM      7  C   UNL     1     112.175 131.519 143.405  0.00  0.00    +0.000 A 
ATOM      8  C   UNL     1     111.296 130.243 142.837  0.00  0.00    +0.000 A 
ATOM      9  C   UNL     1     111.546 131.222 143.849  0.00  0.00    +0.000 A 
ATOM     10  C   UNL     1     111.926 130.540 142.395  0.00  0.00    +0.000 A 
ATOM     11  C   UNL     1     112.365 131.178 142.679  0.00  0.00    +0.000 A 
ATOM     12  C   UNL     1     111.107 130.584 143.565  0.00  0.00    +0.000 A 
ENDROOT
BRANCH   5  15
ATOM     13  O   UNL     1     110.104 133.914 146.486  0.00  0.00    +0.000 OA
ATOM     14  O   UNL     1     111.023 133.588 147.816  0.00  0.00    +0.000 OA
ATOM     15  C   UNL     1     111.600 132.571 145.635  0.00  0.00    +0.000 A 
ATOM     16  C   UNL     1     110.948 133.073 145.697  0.00  0.00    +0.000 A 
ATOM     17  C   UNL     1     112.060 132.409 146.301  0.00  0.00    +0.000 A 
ATOM     18  C   UNL     1     110.756 133.412 146.424  0.00  0.00    +0.000 A 
ATOM     19  C   UNL     1     111.868 132.748 147.028  0.00  0.00    +0.000 A 
ATOM     20  C   UNL     1     111.216 133.250 147.089  0.00  0.00    +0.000 A 
ENDBRANCH   5  15
BRANCH   8  21
ATOM     21  O   UNL     1     110.857 129.605 142.554  0.00  0.00    +0.000 OA
BRANCH  21  30
ATOM     22  O   UNL     1     109.601 130.237 142.298  0.00  0.00    +0.000 OA
ATOM     23  O   UNL     1     108.433 128.376 143.438  0.00  0.00    +0.000 OA
ATOM     24  O   UNL     1     107.566 129.628 142.802  0.00  0.00    +0.000 OA
ATOM     25  O   UNL     1     110.078 128.365 143.314  0.00  0.00    +0.000 OA
ATOM     26  C   UNL     1     108.822 128.996 143.058  0.00  0.00    +0.000 C 
ATOM     27  C   UNL     1     108.389 129.623 142.740  0.00  0.00    +0.000 C 
ATOM     28  C   UNL     1     109.645 128.991 142.996  0.00  0.00    +0.000 C 
ATOM     29  C   UNL     1     108.778 130.243 142.360  0.00  0.00    +0.000 C 
ATOM     30  C   UNL     1     110.034 129.611 142.616  0.00  0.00    +0.000 C 
BRANCH  29  32
ATOM     31  O   UNL     1     108.553 131.185 141.309  0.00  0.00    +0.000 OA
ATOM     32  C   UNL     1     108.345 130.868 142.042  0.00  0.00    +0.000 C 
ENDBRANCH  29  32
ENDBRANCH  21  30
ENDBRANCH   8  21
BRANCH  10  33
ATOM     33  C   UNL     1     112.116 130.199 141.667  0.00  0.00    +0.000 C 
BRANCH  33  34
ATOM     34  C   UNL     1     112.679 129.598 141.629  0.00  0.00    +0.000 C 
ATOM     35  C   UNL     1     112.823 129.213 140.913  0.00  0.00    +0.000 C 
BRANCH  35  37
ATOM     36  O   UNL     1     115.077 126.809 140.760  0.00  0.00    +0.000 OA
ATOM     37  C   UNL     1     113.386 128.611 140.875  0.00  0.00    +0.000 A 
ATOM     38  C   UNL     1     114.171 128.794 140.699  0.00  0.00    +0.000 A 
ATOM     39  C   UNL     1     113.164 127.828 141.012  0.00  0.00    +0.000 A 
ATOM     40  C   UNL     1     114.735 128.192 140.661  0.00  0.00    +0.000 A 
ATOM     41  C   UNL     1     113.728 127.228 140.974  0.00  0.00    +0.000 A 
ATOM     42  C   UNL     1     114.514 127.409 140.798  0.00  0.00    +0.000 A 
ENDBRANCH  35  37
ENDBRANCH  33  34
ENDBRANCH  10  33
TORSDOF 7
ENDMDL
MODEL 9
REMARK VINA RESULT:      -9.4      2.303      6.019
REMARK  Name = 44257071
REMARK  7 active torsions:
REMARK  status: ('A' for Active; 'I' for Inactive)
REMARK    1  A    between atoms: O_2  and  C_17
REMARK    2  A    between atoms: O_2  and  C_23
REMARK    3  A    between atoms: C_16  and  C_21
REMARK    4  A    between atoms: C_19  and  C_28
REMARK    5  A    between atoms: C_25  and  C_29
REMARK    6  A    between atoms: C_29  and  C_32
REMARK    7  A    between atoms: C_36  and  C_37
REMARK                            x       y       z     vdW  Elec       q    Type
REMARK                         _______ _______ _______ _____ _____    ______ ____
ROOT
ATOM      1  O   UNL     1     111.869 129.268 140.269  0.00  0.00    +0.000 OA
ATOM      2  O   UNL     1     113.792 128.807 141.321  0.00  0.00    +0.000 OA
ATOM      3  O   UNL     1     113.523 127.626 138.552  0.00  0.00    +0.000 OA
ATOM      4  C   UNL     1     113.205 128.824 140.741  0.00  0.00    +0.000 C 
ATOM      5  C   UNL     1     112.474 129.255 140.879  0.00  0.00    +0.000 C 
ATOM      6  C   UNL     1     113.321 128.412 139.996  0.00  0.00    +0.000 C 
ATOM      7  C   UNL     1     112.704 128.436 139.398  0.00  0.00    +0.000 A 
ATOM      8  C   UNL     1     111.535 128.468 138.235  0.00  0.00    +0.000 A 
ATOM      9  C   UNL     1     112.003 128.850 139.530  0.00  0.00    +0.000 A 
ATOM     10  C   UNL     1     112.236 128.055 138.103  0.00  0.00    +0.000 A 
ATOM     11  C   UNL     1     112.821 128.039 138.685  0.00  0.00    +0.000 A 
ATOM     12  C   UNL     1     111.418 128.866 138.949  0.00  0.00    +0.000 A 
ENDROOT
BRANCH   5  15
ATOM     13  O   UNL     1     112.624 131.650 142.430  0.00  0.00    +0.000 OA
ATOM     14  O   UNL     1     111.997 130.848 143.729  0.00  0.00    +0.000 OA
ATOM     15  C   UNL     1     112.355 129.653 141.591  0.00  0.00    +0.000 A 
ATOM     16  C   UNL     1     112.549 130.452 141.655  0.00  0.00    +0.000 A 
ATOM     17  C   UNL     1     112.041 129.252 142.240  0.00  0.00    +0.000 A 
ATOM     18  C   UNL     1     112.430 130.851 142.367  0.00  0.00    +0.000 A 
ATOM     19  C   UNL     1     111.922 129.650 142.953  0.00  0.00    +0.000 A 
ATOM     20  C   UNL     1     112.116 130.450 143.016  0.00  0.00    +0.000 A 
ENDBRANCH   5  15
BRANCH   8  21
ATOM     21  O   UNL     1     110.950 128.484 137.653  0.00  0.00    +0.000 OA
BRANCH  21  30
ATOM     22  O   UNL     1     110.992 129.865 137.288  0.00  0.00    +0.000 OA
ATOM     23  O   UNL     1     108.520 129.958 137.348  0.00  0.00    +0.000 OA
ATOM     24  O   UNL     1     109.387 131.308 136.963  0.00  0.00    +0.000 OA
ATOM     25  O   UNL     1     109.301 128.546 137.693  0.00  0.00    +0.000 OA
ATOM     26  C   UNL     1     109.344 129.927 137.328  0.00  0.00    +0.000 C 
ATOM     27  C   UNL     1     109.778 130.603 137.135  0.00  0.00    +0.000 C 
ATOM     28  C   UNL     1     109.735 129.222 137.501  0.00  0.00    +0.000 C 
ATOM     29  C   UNL     1     110.602 130.572 137.115  0.00  0.00    +0.000 C 
ATOM     30  C   UNL     1     110.559 129.191 137.480  0.00  0.00    +0.000 C 
BRANCH  29  32
ATOM     31  O   UNL     1     111.753 131.176 136.522  0.00  0.00    +0.000 OA
ATOM     32  C   UNL     1     111.035 131.246 136.923  0.00  0.00    +0.000 C 
ENDBRANCH  29  32
ENDBRANCH  21  30
ENDBRANCH   8  21
BRANCH  10  33
ATOM     33  C   UNL     1     112.353 127.658 137.389  0.00  0.00    +0.000 C 
BRANCH  33  34
ATOM     34  C   UNL     1     112.280 126.837 137.358  0.00  0.00    +0.000 C 
ATOM     35  C   UNL     1     112.377 126.441 136.640  0.00  0.00    +0.000 C 
BRANCH  35  37
ATOM     36  O   UNL     1     112.082 123.158 136.516  0.00  0.00    +0.000 OA
ATOM     37  C   UNL     1     112.304 125.620 136.609  0.00  0.00    +0.000 A 
ATOM     38  C   UNL     1     111.557 125.276 136.543  0.00  0.00    +0.000 A 
ATOM     39  C   UNL     1     112.976 125.144 136.644  0.00  0.00    +0.000 A 
ATOM     40  C   UNL     1     111.483 124.454 136.512  0.00  0.00    +0.000 A 
ATOM     41  C   UNL     1     112.902 124.323 136.613  0.00  0.00    +0.000 A 
ATOM     42  C   UNL     1     112.156 123.978 136.547  0.00  0.00    +0.000 A 
ENDBRANCH  35  37
ENDBRANCH  33  34
ENDBRANCH  10  33
TORSDOF 7
ENDMDL
MODEL 10
REMARK VINA RESULT:      -9.4      8.387      9.661
REMARK  Name = 44257071
REMARK  7 active torsions:
REMARK  status: ('A' for Active; 'I' for Inactive)
REMARK    1  A    between atoms: O_2  and  C_17
REMARK    2  A    between atoms: O_2  and  C_23
REMARK    3  A    between atoms: C_16  and  C_21
REMARK    4  A    between atoms: C_19  and  C_28
REMARK    5  A    between atoms: C_25  and  C_29
REMARK    6  A    between atoms: C_29  and  C_32
REMARK    7  A    between atoms: C_36  and  C_37
REMARK                            x       y       z     vdW  Elec       q    Type
REMARK                         _______ _______ _______ _____ _____    ______ ____
ROOT
ATOM      1  O   UNL     1     105.759 126.348 144.441  0.00  0.00    +0.000 OA
ATOM      2  O   UNL     1     105.749 124.333 145.420  0.00  0.00    +0.000 OA
ATOM      3  O   UNL     1     106.171 124.309 142.427  0.00  0.00    +0.000 OA
ATOM      4  C   UNL     1     105.793 124.917 144.839  0.00  0.00    +0.000 C 
ATOM      5  C   UNL     1     105.711 125.746 145.052  0.00  0.00    +0.000 C 
ATOM      6  C   UNL     1     105.923 124.702 144.017  0.00  0.00    +0.000 C 
ATOM      7  C   UNL     1     105.968 125.318 143.419  0.00  0.00    +0.000 A 
ATOM      8  C   UNL     1     106.058 126.482 142.254  0.00  0.00    +0.000 A 
ATOM      9  C   UNL     1     105.889 126.113 143.625  0.00  0.00    +0.000 A 
ATOM     10  C   UNL     1     106.137 125.687 142.050  0.00  0.00    +0.000 A 
ATOM     11  C   UNL     1     106.092 125.105 142.633  0.00  0.00    +0.000 A 
ATOM     12  C   UNL     1     105.934 126.695 143.042  0.00  0.00    +0.000 A 
ENDROOT
BRANCH   5  15
ATOM     13  O   UNL     1     106.743 126.604 147.575  0.00  0.00    +0.000 OA
ATOM     14  O   UNL     1     105.216 126.609 148.198  0.00  0.00    +0.000 OA
ATOM     15  C   UNL     1     105.587 125.961 145.839  0.00  0.00    +0.000 A 
ATOM     16  C   UNL     1     106.227 126.175 146.314  0.00  0.00    +0.000 A 
ATOM     17  C   UNL     1     104.823 125.963 146.150  0.00  0.00    +0.000 A 
ATOM     18  C   UNL     1     106.104 126.391 147.100  0.00  0.00    +0.000 A 
ATOM     19  C   UNL     1     104.699 126.179 146.937  0.00  0.00    +0.000 A 
ATOM     20  C   UNL     1     105.340 126.393 147.412  0.00  0.00    +0.000 A 
ENDBRANCH   5  15
BRANCH   8  21
ATOM     21  O   UNL     1     106.103 127.065 141.671  0.00  0.00    +0.000 OA
BRANCH  21  30
ATOM     22  O   UNL     1     107.305 127.711 142.093  0.00  0.00    +0.000 OA
ATOM     23  O   UNL     1     106.267 129.918 141.669  0.00  0.00    +0.000 OA
ATOM     24  O   UNL     1     107.816 129.829 142.232  0.00  0.00    +0.000 OA
ATOM     25  O   UNL     1     105.411 128.536 141.389  0.00  0.00    +0.000 OA
ATOM     26  C   UNL     1     106.613 129.182 141.810  0.00  0.00    +0.000 C 
ATOM     27  C   UNL     1     107.388 129.138 142.092  0.00  0.00    +0.000 C 
ATOM     28  C   UNL     1     106.186 128.491 141.670  0.00  0.00    +0.000 C 
ATOM     29  C   UNL     1     107.734 128.402 142.233  0.00  0.00    +0.000 C 
ATOM     30  C   UNL     1     106.532 127.756 141.812  0.00  0.00    +0.000 C 
BRANCH  29  32
ATOM     31  O   UNL     1     108.996 127.734 142.285  0.00  0.00    +0.000 OA
ATOM     32  C   UNL     1     108.508 128.358 142.514  0.00  0.00    +0.000 C 
ENDBRANCH  29  32
ENDBRANCH  21  30
ENDBRANCH   8  21
BRANCH  10  33
ATOM     33  C   UNL     1     106.261 125.474 141.262  0.00  0.00    +0.000 C 
BRANCH  33  34
ATOM     34  C   UNL     1     105.652 125.123 140.829  0.00  0.00    +0.000 C 
ATOM     35  C   UNL     1     105.755 124.967 140.025  0.00  0.00    +0.000 C 
BRANCH  35  37
ATOM     36  O   UNL     1     103.322 123.562 138.295  0.00  0.00    +0.000 OA
ATOM     37  C   UNL     1     105.147 124.616 139.593  0.00  0.00    +0.000 A 
ATOM     38  C   UNL     1     105.195 123.819 139.388  0.00  0.00    +0.000 A 
ATOM     39  C   UNL     1     104.491 125.062 139.366  0.00  0.00    +0.000 A 
ATOM     40  C   UNL     1     104.586 123.467 138.955  0.00  0.00    +0.000 A 
ATOM     41  C   UNL     1     103.883 124.711 138.933  0.00  0.00    +0.000 A 
ATOM     42  C   UNL     1     103.930 123.913 138.728  0.00  0.00    +0.000 A 
ENDBRANCH  35  37
ENDBRANCH  33  34
ENDBRANCH  10  33
TORSDOF 7
ENDMDL
