MODEL 1
REMARK VINA RESULT:      -7.8      0.000      0.000
REMARK  Name = 44259865
REMARK  7 active torsions:
REMARK  status: ('A' for Active; 'I' for Inactive)
REMARK    1  A    between atoms: O_2  and  C_16
REMARK    2  A    between atoms: O_2  and  C_22
REMARK    3  A    between atoms: O_3  and  C_14
REMARK    4  A    between atoms: O_4  and  C_17
REMARK    5  A    between atoms: O_7  and  C_21
REMARK    6  A    between atoms: C_11  and  C_18
REMARK    7  A    between atoms: C_22  and  C_25
REMARK                            x       y       z     vdW  Elec       q    Type
REMARK                         _______ _______ _______ _____ _____    ______ ____
ROOT
ATOM      1  O   UNL     1     111.005 127.088 136.738  0.00  0.00    +0.000 OA
ATOM      2  O   UNL     1     111.822 124.358 136.253  0.00  0.00    +0.000 OA
ATOM      3  O   UNL     1     110.733 124.953 135.516  0.00  0.00    +0.000 OA
ATOM      4  C   UNL     1     111.410 125.739 136.500  0.00  0.00    +0.000 A 
ATOM      5  C   UNL     1     111.501 126.449 136.906  0.00  0.00    +0.000 A 
ATOM      6  C   UNL     1     110.419 127.013 136.162  0.00  0.00    +0.000 A 
ATOM      7  C   UNL     1     111.920 125.067 136.665  0.00  0.00    +0.000 A 
ATOM      8  C   UNL     1     110.824 125.665 135.923  0.00  0.00    +0.000 A 
ATOM      9  C   UNL     1     110.329 126.303 135.756  0.00  0.00    +0.000 A 
ATOM     10  C   UNL     1     112.108 126.540 137.508  0.00  0.00    +0.000 A 
ATOM     11  C   UNL     1     112.627 125.879 137.688  0.00  0.00    +0.000 A 
ATOM     12  C   UNL     1     112.533 125.137 137.264  0.00  0.00    +0.000 A 
ENDROOT
BRANCH   6  14
ATOM     13  O   UNL     1     108.437 129.565 135.490  0.00  0.00    +0.000 OA
ATOM     14  C   UNL     1     109.923 127.652 135.994  0.00  0.00    +0.000 A 
ATOM     15  C   UNL     1     110.171 128.240 135.471  0.00  0.00    +0.000 A 
ATOM     16  C   UNL     1     109.181 127.701 136.349  0.00  0.00    +0.000 A 
ATOM     17  C   UNL     1     109.676 128.877 135.303  0.00  0.00    +0.000 A 
ATOM     18  C   UNL     1     108.685 128.340 136.181  0.00  0.00    +0.000 A 
ATOM     19  C   UNL     1     108.932 128.927 135.658  0.00  0.00    +0.000 A 
BRANCH  17  20
ATOM     20  O   UNL     1     109.924 129.466 134.779  0.00  0.00    +0.000 OA
ATOM     21  C   UNL     1     110.717 129.691 134.758  0.00  0.00    +0.000 C 
ENDBRANCH  17  20
ENDBRANCH   6  14
BRANCH   9  22
ATOM     22  O   UNL     1     109.742 126.228 135.179  0.00  0.00    +0.000 OA
ATOM     23  C   UNL     1     109.788 125.625 134.619  0.00  0.00    +0.000 C 
ENDBRANCH   9  22
BRANCH  12  24
ATOM     24  O   UNL     1     113.027 124.498 137.430  0.00  0.00    +0.000 OA
ATOM     25  C   UNL     1     113.627 124.292 136.903  0.00  0.00    +0.000 C 
ENDBRANCH  12  24
BRANCH  11  26
ATOM     26  O   UNL     1     113.213 125.956 138.264  0.00  0.00    +0.000 OA
BRANCH  26  27
ATOM     27  C   UNL     1     113.071 126.408 138.940  0.00  0.00    +0.000 C 
BRANCH  27  28
ATOM     28  C   UNL     1     113.702 126.680 139.395  0.00  0.00    +0.000 C 
ATOM     29  C   UNL     1     113.578 126.906 140.178  0.00  0.00    +0.000 C 
ATOM     30  C   UNL     1     114.210 127.179 140.633  0.00  0.00    +0.000 C 
ATOM     31  C   UNL     1     112.823 126.861 140.507  0.00  0.00    +0.000 C 
ENDBRANCH  27  28
ENDBRANCH  26  27
ENDBRANCH  11  26
TORSDOF 7
ENDMDL
MODEL 2
REMARK VINA RESULT:      -7.7      6.981      8.485
REMARK  Name = 44259865
REMARK  7 active torsions:
REMARK  status: ('A' for Active; 'I' for Inactive)
REMARK    1  A    between atoms: O_2  and  C_16
REMARK    2  A    between atoms: O_2  and  C_22
REMARK    3  A    between atoms: O_3  and  C_14
REMARK    4  A    between atoms: O_4  and  C_17
REMARK    5  A    between atoms: O_7  and  C_21
REMARK    6  A    between atoms: C_11  and  C_18
REMARK    7  A    between atoms: C_22  and  C_25
REMARK                            x       y       z     vdW  Elec       q    Type
REMARK                         _______ _______ _______ _____ _____    ______ ____
ROOT
ATOM      1  O   UNL     1     105.539 125.917 141.333  0.00  0.00    +0.000 OA
ATOM      2  O   UNL     1     107.842 126.944 142.745  0.00  0.00    +0.000 OA
ATOM      3  O   UNL     1     107.932 125.748 141.942  0.00  0.00    +0.000 OA
ATOM      4  C   UNL     1     106.677 126.426 142.032  0.00  0.00    +0.000 A 
ATOM      5  C   UNL     1     105.880 126.483 141.829  0.00  0.00    +0.000 A 
ATOM      6  C   UNL     1     105.997 125.297 141.041  0.00  0.00    +0.000 A 
ATOM      7  C   UNL     1     107.044 127.008 142.547  0.00  0.00    +0.000 A 
ATOM      8  C   UNL     1     107.135 125.805 141.739  0.00  0.00    +0.000 A 
ATOM      9  C   UNL     1     106.794 125.240 141.243  0.00  0.00    +0.000 A 
ATOM     10  C   UNL     1     105.393 127.124 142.127  0.00  0.00    +0.000 A 
ATOM     11  C   UNL     1     105.741 127.716 142.644  0.00  0.00    +0.000 A 
ATOM     12  C   UNL     1     106.573 127.657 142.856  0.00  0.00    +0.000 A 
ENDROOT
BRANCH   6  14
ATOM     13  O   UNL     1     104.635 123.038 139.057  0.00  0.00    +0.000 OA
ATOM     14  C   UNL     1     105.656 124.731 140.545  0.00  0.00    +0.000 A 
ATOM     15  C   UNL     1     105.341 124.039 140.863  0.00  0.00    +0.000 A 
ATOM     16  C   UNL     1     105.631 124.860 139.730  0.00  0.00    +0.000 A 
ATOM     17  C   UNL     1     105.001 123.475 140.368  0.00  0.00    +0.000 A 
ATOM     18  C   UNL     1     105.291 124.295 139.234  0.00  0.00    +0.000 A 
ATOM     19  C   UNL     1     104.975 123.602 139.553  0.00  0.00    +0.000 A 
BRANCH  17  20
ATOM     20  O   UNL     1     104.685 122.782 140.687  0.00  0.00    +0.000 OA
ATOM     21  C   UNL     1     104.300 122.802 141.417  0.00  0.00    +0.000 C 
ENDBRANCH  17  20
ENDBRANCH   6  14
BRANCH   9  22
ATOM     22  O   UNL     1     107.251 124.618 140.951  0.00  0.00    +0.000 OA
ATOM     23  C   UNL     1     108.074 124.681 140.939  0.00  0.00    +0.000 C 
ENDBRANCH   9  22
BRANCH  12  24
ATOM     24  O   UNL     1     106.916 128.221 143.351  0.00  0.00    +0.000 OA
ATOM     25  C   UNL     1     107.071 128.037 144.141  0.00  0.00    +0.000 C 
ENDBRANCH  12  24
BRANCH  11  26
ATOM     26  O   UNL     1     105.282 128.336 142.935  0.00  0.00    +0.000 OA
BRANCH  26  27
ATOM     27  C   UNL     1     104.664 128.640 142.481  0.00  0.00    +0.000 C 
BRANCH  27  28
ATOM     28  C   UNL     1     104.180 129.233 142.787  0.00  0.00    +0.000 C 
ATOM     29  C   UNL     1     103.630 129.609 142.301  0.00  0.00    +0.000 C 
ATOM     30  C   UNL     1     103.146 130.202 142.608  0.00  0.00    +0.000 C 
ATOM     31  C   UNL     1     103.564 129.392 141.508  0.00  0.00    +0.000 C 
ENDBRANCH  27  28
ENDBRANCH  26  27
ENDBRANCH  11  26
TORSDOF 7
ENDMDL
MODEL 3
REMARK VINA RESULT:      -7.6      9.847     11.588
REMARK  Name = 44259865
REMARK  7 active torsions:
REMARK  status: ('A' for Active; 'I' for Inactive)
REMARK    1  A    between atoms: O_2  and  C_16
REMARK    2  A    between atoms: O_2  and  C_22
REMARK    3  A    between atoms: O_3  and  C_14
REMARK    4  A    between atoms: O_4  and  C_17
REMARK    5  A    between atoms: O_7  and  C_21
REMARK    6  A    between atoms: C_11  and  C_18
REMARK    7  A    between atoms: C_22  and  C_25
REMARK                            x       y       z     vdW  Elec       q    Type
REMARK                         _______ _______ _______ _____ _____    ______ ____
ROOT
ATOM      1  O   UNL     1     104.787 125.814 145.671  0.00  0.00    +0.000 OA
ATOM      2  O   UNL     1     107.471 126.763 146.170  0.00  0.00    +0.000 OA
ATOM      3  O   UNL     1     106.944 125.614 146.867  0.00  0.00    +0.000 OA
ATOM      4  C   UNL     1     106.113 126.284 145.916  0.00  0.00    +0.000 A 
ATOM      5  C   UNL     1     105.395 126.351 145.518  0.00  0.00    +0.000 A 
ATOM      6  C   UNL     1     104.899 125.211 146.222  0.00  0.00    +0.000 A 
ATOM      7  C   UNL     1     106.755 126.837 145.767  0.00  0.00    +0.000 A 
ATOM      8  C   UNL     1     106.225 125.681 146.468  0.00  0.00    +0.000 A 
ATOM      9  C   UNL     1     105.617 125.144 146.621  0.00  0.00    +0.000 A 
ATOM     10  C   UNL     1     105.266 126.975 144.941  0.00  0.00    +0.000 A 
ATOM     11  C   UNL     1     105.895 127.537 144.777  0.00  0.00    +0.000 A 
ATOM     12  C   UNL     1     106.645 127.468 145.193  0.00  0.00    +0.000 A 
ENDROOT
BRANCH   6  14
ATOM     13  O   UNL     1     102.467 123.065 146.833  0.00  0.00    +0.000 OA
ATOM     14  C   UNL     1     104.290 124.674 146.375  0.00  0.00    +0.000 A 
ATOM     15  C   UNL     1     104.238 123.975 145.939  0.00  0.00    +0.000 A 
ATOM     16  C   UNL     1     103.735 124.837 146.963  0.00  0.00    +0.000 A 
ATOM     17  C   UNL     1     103.630 123.439 146.092  0.00  0.00    +0.000 A 
ATOM     18  C   UNL     1     103.127 124.300 147.116  0.00  0.00    +0.000 A 
ATOM     19  C   UNL     1     103.074 123.601 146.680  0.00  0.00    +0.000 A 
BRANCH  17  20
ATOM     20  O   UNL     1     103.577 122.740 145.656  0.00  0.00    +0.000 OA
ATOM     21  C   UNL     1     103.768 122.739 144.853  0.00  0.00    +0.000 C 
ENDBRANCH  17  20
ENDBRANCH   6  14
BRANCH   9  22
ATOM     22  O   UNL     1     105.728 124.541 147.173  0.00  0.00    +0.000 OA
ATOM     23  C   UNL     1     106.255 124.646 147.799  0.00  0.00    +0.000 C 
ENDBRANCH   9  22
BRANCH  12  24
ATOM     24  O   UNL     1     107.254 128.003 145.042  0.00  0.00    +0.000 OA
ATOM     25  C   UNL     1     107.418 128.605 145.582  0.00  0.00    +0.000 C 
ENDBRANCH  12  24
BRANCH  11  26
ATOM     26  O   UNL     1     105.781 128.139 144.225  0.00  0.00    +0.000 OA
BRANCH  26  27
ATOM     27  C   UNL     1     105.315 128.005 143.558  0.00  0.00    +0.000 C 
BRANCH  27  28
ATOM     28  C   UNL     1     104.920 128.632 143.198  0.00  0.00    +0.000 C 
ATOM     29  C   UNL     1     104.696 128.578 142.406  0.00  0.00    +0.000 C 
ATOM     30  C   UNL     1     104.301 129.206 142.045  0.00  0.00    +0.000 C 
ATOM     31  C   UNL     1     104.866 127.895 141.974  0.00  0.00    +0.000 C 
ENDBRANCH  27  28
ENDBRANCH  26  27
ENDBRANCH  11  26
TORSDOF 7
ENDMDL
MODEL 4
REMARK VINA RESULT:      -7.6      1.977      4.529
REMARK  Name = 44259865
REMARK  7 active torsions:
REMARK  status: ('A' for Active; 'I' for Inactive)
REMARK    1  A    between atoms: O_2  and  C_16
REMARK    2  A    between atoms: O_2  and  C_22
REMARK    3  A    between atoms: O_3  and  C_14
REMARK    4  A    between atoms: O_4  and  C_17
REMARK    5  A    between atoms: O_7  and  C_21
REMARK    6  A    between atoms: C_11  and  C_18
REMARK    7  A    between atoms: C_22  and  C_25
REMARK                            x       y       z     vdW  Elec       q    Type
REMARK                         _______ _______ _______ _____ _____    ______ ____
ROOT
ATOM      1  O   UNL     1     111.920 126.814 136.070  0.00  0.00    +0.000 OA
ATOM      2  O   UNL     1     110.138 128.563 134.615  0.00  0.00    +0.000 OA
ATOM      3  O   UNL     1     109.793 127.183 134.861  0.00  0.00    +0.000 OA
ATOM      4  C   UNL     1     111.040 127.680 135.351  0.00  0.00    +0.000 A 
ATOM      5  C   UNL     1     111.749 127.557 135.754  0.00  0.00    +0.000 A 
ATOM      6  C   UNL     1     111.382 126.195 135.983  0.00  0.00    +0.000 A 
ATOM      7  C   UNL     1     110.850 128.448 135.017  0.00  0.00    +0.000 A 
ATOM      8  C   UNL     1     110.502 127.060 135.264  0.00  0.00    +0.000 A 
ATOM      9  C   UNL     1     110.674 126.318 135.580  0.00  0.00    +0.000 A 
ATOM     10  C   UNL     1     112.318 128.193 135.851  0.00  0.00    +0.000 A 
ATOM     11  C   UNL     1     112.146 128.969 135.524  0.00  0.00    +0.000 A 
ATOM     12  C   UNL     1     111.406 129.098 135.104  0.00  0.00    +0.000 A 
ENDROOT
BRANCH   6  14
ATOM     13  O   UNL     1     112.067 123.225 137.248  0.00  0.00    +0.000 OA
ATOM     14  C   UNL     1     111.553 125.452 136.300  0.00  0.00    +0.000 A 
ATOM     15  C   UNL     1     111.367 125.285 137.086  0.00  0.00    +0.000 A 
ATOM     16  C   UNL     1     111.910 124.876 135.829  0.00  0.00    +0.000 A 
ATOM     17  C   UNL     1     111.539 124.543 137.402  0.00  0.00    +0.000 A 
ATOM     18  C   UNL     1     112.082 124.133 136.146  0.00  0.00    +0.000 A 
ATOM     19  C   UNL     1     111.896 123.967 136.932  0.00  0.00    +0.000 A 
BRANCH  17  20
ATOM     20  O   UNL     1     111.353 124.377 138.189  0.00  0.00    +0.000 OA
ATOM     21  C   UNL     1     111.161 124.991 138.706  0.00  0.00    +0.000 C 
ENDBRANCH  17  20
ENDBRANCH   6  14
BRANCH   9  22
ATOM     22  O   UNL     1     110.135 125.698 135.493  0.00  0.00    +0.000 OA
ATOM     23  C   UNL     1     109.512 125.765 134.957  0.00  0.00    +0.000 C 
ENDBRANCH   9  22
BRANCH  12  24
ATOM     24  O   UNL     1     111.233 129.839 134.787  0.00  0.00    +0.000 OA
ATOM     25  C   UNL     1     110.632 130.299 135.117  0.00  0.00    +0.000 C 
ENDBRANCH  12  24
BRANCH  11  26
ATOM     26  O   UNL     1     112.685 129.587 135.612  0.00  0.00    +0.000 OA
BRANCH  26  27
ATOM     27  C   UNL     1     113.483 129.465 135.440  0.00  0.00    +0.000 C 
BRANCH  27  28
ATOM     28  C   UNL     1     114.046 130.014 135.685  0.00  0.00    +0.000 C 
ATOM     29  C   UNL     1     114.772 130.064 135.295  0.00  0.00    +0.000 C 
ATOM     30  C   UNL     1     115.335 130.614 135.542  0.00  0.00    +0.000 C 
ATOM     31  C   UNL     1     114.933 129.564 134.659  0.00  0.00    +0.000 C 
ENDBRANCH  27  28
ENDBRANCH  26  27
ENDBRANCH  11  26
TORSDOF 7
ENDMDL
MODEL 5
REMARK VINA RESULT:      -7.5      8.440      9.923
REMARK  Name = 44259865
REMARK  7 active torsions:
REMARK  status: ('A' for Active; 'I' for Inactive)
REMARK    1  A    between atoms: O_2  and  C_16
REMARK    2  A    between atoms: O_2  and  C_22
REMARK    3  A    between atoms: O_3  and  C_14
REMARK    4  A    between atoms: O_4  and  C_17
REMARK    5  A    between atoms: O_7  and  C_21
REMARK    6  A    between atoms: C_11  and  C_18
REMARK    7  A    between atoms: C_22  and  C_25
REMARK                            x       y       z     vdW  Elec       q    Type
REMARK                         _______ _______ _______ _____ _____    ______ ____
ROOT
ATOM      1  O   UNL     1     103.422 130.201 142.360  0.00  0.00    +0.000 OA
ATOM      2  O   UNL     1     104.311 127.782 141.054  0.00  0.00    +0.000 OA
ATOM      3  O   UNL     1     103.380 128.677 140.411  0.00  0.00    +0.000 OA
ATOM      4  C   UNL     1     103.863 129.005 141.716  0.00  0.00    +0.000 A 
ATOM      5  C   UNL     1     103.877 129.512 142.365  0.00  0.00    +0.000 A 
ATOM      6  C   UNL     1     102.954 130.381 141.705  0.00  0.00    +0.000 A 
ATOM      7  C   UNL     1     104.331 128.284 141.708  0.00  0.00    +0.000 A 
ATOM      8  C   UNL     1     103.394 129.185 141.060  0.00  0.00    +0.000 A 
ATOM      9  C   UNL     1     102.940 129.874 141.056  0.00  0.00    +0.000 A 
ATOM     10  C   UNL     1     104.361 129.336 143.053  0.00  0.00    +0.000 A 
ATOM     11  C   UNL     1     104.837 128.620 143.064  0.00  0.00    +0.000 A 
ATOM     12  C   UNL     1     104.822 128.091 142.387  0.00  0.00    +0.000 A 
ENDROOT
BRANCH   6  14
ATOM     13  O   UNL     1     101.135 133.135 141.687  0.00  0.00    +0.000 OA
ATOM     14  C   UNL     1     102.499 131.070 141.700  0.00  0.00    +0.000 A 
ATOM     15  C   UNL     1     102.822 131.776 141.422  0.00  0.00    +0.000 A 
ATOM     16  C   UNL     1     101.721 131.052 141.975  0.00  0.00    +0.000 A 
ATOM     17  C   UNL     1     102.368 132.464 141.417  0.00  0.00    +0.000 A 
ATOM     18  C   UNL     1     101.266 131.741 141.970  0.00  0.00    +0.000 A 
ATOM     19  C   UNL     1     101.590 132.447 141.691  0.00  0.00    +0.000 A 
BRANCH  17  20
ATOM     20  O   UNL     1     102.692 133.171 141.138  0.00  0.00    +0.000 OA
ATOM     21  C   UNL     1     103.477 133.360 141.308  0.00  0.00    +0.000 C 
ENDBRANCH  17  20
ENDBRANCH   6  14
BRANCH   9  22
ATOM     22  O   UNL     1     102.471 130.054 140.401  0.00  0.00    +0.000 OA
ATOM     23  C   UNL     1     102.288 129.467 139.850  0.00  0.00    +0.000 C 
ENDBRANCH   9  22
BRANCH  12  24
ATOM     24  O   UNL     1     105.275 127.401 142.389  0.00  0.00    +0.000 OA
ATOM     25  C   UNL     1     105.971 127.364 141.947  0.00  0.00    +0.000 C 
ENDBRANCH  12  24
BRANCH  11  26
ATOM     26  O   UNL     1     105.304 128.443 143.720  0.00  0.00    +0.000 OA
BRANCH  26  27
ATOM     27  C   UNL     1     105.156 128.810 144.444  0.00  0.00    +0.000 C 
BRANCH  27  28
ATOM     28  C   UNL     1     105.720 128.780 145.044  0.00  0.00    +0.000 C 
ATOM     29  C   UNL     1     105.509 128.972 145.818  0.00  0.00    +0.000 C 
ATOM     30  C   UNL     1     106.074 128.943 146.419  0.00  0.00    +0.000 C 
ATOM     31  C   UNL     1     104.734 129.195 145.992  0.00  0.00    +0.000 C 
ENDBRANCH  27  28
ENDBRANCH  26  27
ENDBRANCH  11  26
TORSDOF 7
ENDMDL
MODEL 6
REMARK VINA RESULT:      -7.4      2.361      4.086
REMARK  Name = 44259865
REMARK  7 active torsions:
REMARK  status: ('A' for Active; 'I' for Inactive)
REMARK    1  A    between atoms: O_2  and  C_16
REMARK    2  A    between atoms: O_2  and  C_22
REMARK    3  A    between atoms: O_3  and  C_14
REMARK    4  A    between atoms: O_4  and  C_17
REMARK    5  A    between atoms: O_7  and  C_21
REMARK    6  A    between atoms: C_11  and  C_18
REMARK    7  A    between atoms: C_22  and  C_25
REMARK                            x       y       z     vdW  Elec       q    Type
REMARK                         _______ _______ _______ _____ _____    ______ ____
ROOT
ATOM      1  O   UNL     1     112.236 128.205 136.825  0.00  0.00    +0.000 OA
ATOM      2  O   UNL     1     110.406 127.878 134.612  0.00  0.00    +0.000 OA
ATOM      3  O   UNL     1     110.835 129.189 135.038  0.00  0.00    +0.000 OA
ATOM      4  C   UNL     1     111.331 128.042 135.731  0.00  0.00    +0.000 A 
ATOM      5  C   UNL     1     111.798 127.714 136.326  0.00  0.00    +0.000 A 
ATOM      6  C   UNL     1     112.206 129.024 136.727  0.00  0.00    +0.000 A 
ATOM      7  C   UNL     1     110.870 127.542 135.206  0.00  0.00    +0.000 A 
ATOM      8  C   UNL     1     111.302 128.861 135.633  0.00  0.00    +0.000 A 
ATOM      9  C   UNL     1     111.740 129.351 136.132  0.00  0.00    +0.000 A 
ATOM     10  C   UNL     1     111.838 126.863 136.439  0.00  0.00    +0.000 A 
ATOM     11  C   UNL     1     111.384 126.346 135.923  0.00  0.00    +0.000 A 
ATOM     12  C   UNL     1     110.897 126.688 135.302  0.00  0.00    +0.000 A 
ENDROOT
BRANCH   6  14
ATOM     13  O   UNL     1     113.958 130.987 138.719  0.00  0.00    +0.000 OA
ATOM     14  C   UNL     1     112.645 129.515 137.225  0.00  0.00    +0.000 A 
ATOM     15  C   UNL     1     112.329 129.755 137.949  0.00  0.00    +0.000 A 
ATOM     16  C   UNL     1     113.397 129.765 136.999  0.00  0.00    +0.000 A 
ATOM     17  C   UNL     1     112.767 130.246 138.446  0.00  0.00    +0.000 A 
ATOM     18  C   UNL     1     113.836 130.256 137.498  0.00  0.00    +0.000 A 
ATOM     19  C   UNL     1     113.521 130.497 138.221  0.00  0.00    +0.000 A 
BRANCH  17  20
ATOM     20  O   UNL     1     112.452 130.487 139.171  0.00  0.00    +0.000 OA
ATOM     21  C   UNL     1     111.990 129.965 139.613  0.00  0.00    +0.000 C 
ENDBRANCH  17  20
ENDBRANCH   6  14
BRANCH   9  22
ATOM     22  O   UNL     1     111.710 130.171 136.034  0.00  0.00    +0.000 OA
ATOM     23  C   UNL     1     111.016 130.530 135.770  0.00  0.00    +0.000 C 
ENDBRANCH   9  22
BRANCH  12  24
ATOM     24  O   UNL     1     110.458 126.199 134.803  0.00  0.00    +0.000 OA
ATOM     25  C   UNL     1     109.646 126.113 134.919  0.00  0.00    +0.000 C 
ENDBRANCH  12  24
BRANCH  11  26
ATOM     26  O   UNL     1     111.415 125.528 136.023  0.00  0.00    +0.000 OA
BRANCH  26  27
ATOM     27  C   UNL     1     112.062 125.183 136.402  0.00  0.00    +0.000 C 
BRANCH  27  28
ATOM     28  C   UNL     1     111.993 124.432 136.734  0.00  0.00    +0.000 C 
ATOM     29  C   UNL     1     112.667 123.973 136.861  0.00  0.00    +0.000 C 
ATOM     30  C   UNL     1     112.597 123.222 137.194  0.00  0.00    +0.000 C 
ATOM     31  C   UNL     1     113.410 124.266 136.655  0.00  0.00    +0.000 C 
ENDBRANCH  27  28
ENDBRANCH  26  27
ENDBRANCH  11  26
TORSDOF 7
ENDMDL
MODEL 7
REMARK VINA RESULT:      -7.4      1.917      4.810
REMARK  Name = 44259865
REMARK  7 active torsions:
REMARK  status: ('A' for Active; 'I' for Inactive)
REMARK    1  A    between atoms: O_2  and  C_16
REMARK    2  A    between atoms: O_2  and  C_22
REMARK    3  A    between atoms: O_3  and  C_14
REMARK    4  A    between atoms: O_4  and  C_17
REMARK    5  A    between atoms: O_7  and  C_21
REMARK    6  A    between atoms: C_11  and  C_18
REMARK    7  A    between atoms: C_22  and  C_25
REMARK                            x       y       z     vdW  Elec       q    Type
REMARK                         _______ _______ _______ _____ _____    ______ ____
ROOT
ATOM      1  O   UNL     1     111.878 126.680 139.209  0.00  0.00    +0.000 OA
ATOM      2  O   UNL     1     114.369 125.664 138.153  0.00  0.00    +0.000 OA
ATOM      3  O   UNL     1     114.316 126.319 139.438  0.00  0.00    +0.000 OA
ATOM      4  C   UNL     1     113.108 126.177 138.686  0.00  0.00    +0.000 A 
ATOM      5  C   UNL     1     112.297 126.297 138.610  0.00  0.00    +0.000 A 
ATOM      6  C   UNL     1     112.273 126.942 139.885  0.00  0.00    +0.000 A 
ATOM      7  C   UNL     1     113.556 125.780 138.069  0.00  0.00    +0.000 A 
ATOM      8  C   UNL     1     113.503 126.440 139.362  0.00  0.00    +0.000 A 
ATOM      9  C   UNL     1     113.085 126.822 139.961  0.00  0.00    +0.000 A 
ATOM     10  C   UNL     1     111.874 126.029 137.911  0.00  0.00    +0.000 A 
ATOM     11  C   UNL     1     112.304 125.630 137.283  0.00  0.00    +0.000 A 
ATOM     12  C   UNL     1     113.151 125.504 137.362  0.00  0.00    +0.000 A 
ENDROOT
BRANCH   6  14
ATOM     13  O   UNL     1     110.599 128.473 142.282  0.00  0.00    +0.000 OA
ATOM     14  C   UNL     1     111.854 127.325 140.484  0.00  0.00    +0.000 A 
ATOM     15  C   UNL     1     111.728 128.140 140.444  0.00  0.00    +0.000 A 
ATOM     16  C   UNL     1     111.562 126.893 141.123  0.00  0.00    +0.000 A 
ATOM     17  C   UNL     1     111.310 128.522 141.043  0.00  0.00    +0.000 A 
ATOM     18  C   UNL     1     111.143 127.276 141.723  0.00  0.00    +0.000 A 
ATOM     19  C   UNL     1     111.017 128.091 141.683  0.00  0.00    +0.000 A 
BRANCH  17  20
ATOM     20  O   UNL     1     111.184 129.337 141.003  0.00  0.00    +0.000 OA
ATOM     21  C   UNL     1     111.025 129.694 140.277  0.00  0.00    +0.000 C 
ENDBRANCH  17  20
ENDBRANCH   6  14
BRANCH   9  22
ATOM     22  O   UNL     1     113.479 127.085 140.637  0.00  0.00    +0.000 OA
ATOM     23  C   UNL     1     114.302 127.142 140.637  0.00  0.00    +0.000 C 
ENDBRANCH   9  22
BRANCH  12  24
ATOM     24  O   UNL     1     113.572 125.122 136.765  0.00  0.00    +0.000 OA
ATOM     25  C   UNL     1     113.811 124.338 136.865  0.00  0.00    +0.000 C 
ENDBRANCH  12  24
BRANCH  11  26
ATOM     26  O   UNL     1     111.907 125.368 136.609  0.00  0.00    +0.000 OA
BRANCH  26  27
ATOM     27  C   UNL     1     111.319 125.837 136.268  0.00  0.00    +0.000 C 
BRANCH  27  28
ATOM     28  C   UNL     1     110.802 125.513 135.715  0.00  0.00    +0.000 C 
ATOM     29  C   UNL     1     110.425 126.000 135.167  0.00  0.00    +0.000 C 
ATOM     30  C   UNL     1     109.908 125.675 134.613  0.00  0.00    +0.000 C 
ATOM     31  C   UNL     1     110.565 126.814 135.173  0.00  0.00    +0.000 C 
ENDBRANCH  27  28
ENDBRANCH  26  27
ENDBRANCH  11  26
TORSDOF 7
ENDMDL
MODEL 8
REMARK VINA RESULT:      -7.3      2.010      3.263
REMARK  Name = 44259865
REMARK  7 active torsions:
REMARK  status: ('A' for Active; 'I' for Inactive)
REMARK    1  A    between atoms: O_2  and  C_16
REMARK    2  A    between atoms: O_2  and  C_22
REMARK    3  A    between atoms: O_3  and  C_14
REMARK    4  A    between atoms: O_4  and  C_17
REMARK    5  A    between atoms: O_7  and  C_21
REMARK    6  A    between atoms: C_11  and  C_18
REMARK    7  A    between atoms: C_22  and  C_25
REMARK                            x       y       z     vdW  Elec       q    Type
REMARK                         _______ _______ _______ _____ _____    ______ ____
ROOT
ATOM      1  O   UNL     1     111.464 128.648 136.673  0.00  0.00    +0.000 OA
ATOM      2  O   UNL     1     110.198 127.067 134.612  0.00  0.00    +0.000 OA
ATOM      3  O   UNL     1     109.897 128.470 134.766  0.00  0.00    +0.000 OA
ATOM      4  C   UNL     1     110.839 127.865 135.655  0.00  0.00    +0.000 A 
ATOM      5  C   UNL     1     111.361 127.924 136.290  0.00  0.00    +0.000 A 
ATOM      6  C   UNL     1     111.044 129.312 136.420  0.00  0.00    +0.000 A 
ATOM      7  C   UNL     1     110.722 127.118 135.247  0.00  0.00    +0.000 A 
ATOM      8  C   UNL     1     110.419 128.530 135.402  0.00  0.00    +0.000 A 
ATOM      9  C   UNL     1     110.523 129.252 135.785  0.00  0.00    +0.000 A 
ATOM     10  C   UNL     1     111.804 127.241 136.563  0.00  0.00    +0.000 A 
ATOM     11  C   UNL     1     111.701 126.484 136.168  0.00  0.00    +0.000 A 
ATOM     12  C   UNL     1     111.156 126.422 135.505  0.00  0.00    +0.000 A 
ENDROOT
BRANCH   6  14
ATOM     13  O   UNL     1     111.457 132.205 137.954  0.00  0.00    +0.000 OA
ATOM     14  C   UNL     1     111.148 130.036 136.804  0.00  0.00    +0.000 A 
ATOM     15  C   UNL     1     111.809 130.501 136.637  0.00  0.00    +0.000 A 
ATOM     16  C   UNL     1     110.590 130.293 137.354  0.00  0.00    +0.000 A 
ATOM     17  C   UNL     1     111.911 131.223 137.020  0.00  0.00    +0.000 A 
ATOM     18  C   UNL     1     110.693 131.017 137.738  0.00  0.00    +0.000 A 
ATOM     19  C   UNL     1     111.354 131.482 137.571  0.00  0.00    +0.000 A 
BRANCH  17  20
ATOM     20  O   UNL     1     112.573 131.689 136.853  0.00  0.00    +0.000 OA
ATOM     21  C   UNL     1     113.326 131.352 136.863  0.00  0.00    +0.000 C 
ENDBRANCH  17  20
ENDBRANCH   6  14
BRANCH   9  22
ATOM     22  O   UNL     1     110.103 129.917 135.533  0.00  0.00    +0.000 OA
ATOM     23  C   UNL     1     109.774 129.934 134.776  0.00  0.00    +0.000 C 
ENDBRANCH   9  22
BRANCH  12  24
ATOM     24  O   UNL     1     111.051 125.700 135.120  0.00  0.00    +0.000 OA
ATOM     25  C   UNL     1     110.306 125.346 135.104  0.00  0.00    +0.000 C 
ENDBRANCH  12  24
BRANCH  11  26
ATOM     26  O   UNL     1     112.122 125.821 136.422  0.00  0.00    +0.000 OA
BRANCH  26  27
ATOM     27  C   UNL     1     112.928 125.883 136.587  0.00  0.00    +0.000 C 
BRANCH  27  28
ATOM     28  C   UNL     1     113.314 125.276 136.989  0.00  0.00    +0.000 C 
ATOM     29  C   UNL     1     114.136 125.212 136.949  0.00  0.00    +0.000 C 
ATOM     30  C   UNL     1     114.522 124.604 137.351  0.00  0.00    +0.000 C 
ATOM     31  C   UNL     1     114.571 125.757 136.507  0.00  0.00    +0.000 C 
ENDBRANCH  27  28
ENDBRANCH  26  27
ENDBRANCH  11  26
TORSDOF 7
ENDMDL
MODEL 9
REMARK VINA RESULT:      -7.3      2.863      5.003
REMARK  Name = 44259865
REMARK  7 active torsions:
REMARK  status: ('A' for Active; 'I' for Inactive)
REMARK    1  A    between atoms: O_2  and  C_16
REMARK    2  A    between atoms: O_2  and  C_22
REMARK    3  A    between atoms: O_3  and  C_14
REMARK    4  A    between atoms: O_4  and  C_17
REMARK    5  A    between atoms: O_7  and  C_21
REMARK    6  A    between atoms: C_11  and  C_18
REMARK    7  A    between atoms: C_22  and  C_25
REMARK                            x       y       z     vdW  Elec       q    Type
REMARK                         _______ _______ _______ _____ _____    ______ ____
ROOT
ATOM      1  O   UNL     1     113.161 128.865 138.135  0.00  0.00    +0.000 OA
ATOM      2  O   UNL     1     111.610 129.196 135.719  0.00  0.00    +0.000 OA
ATOM      3  O   UNL     1     111.924 130.323 136.564  0.00  0.00    +0.000 OA
ATOM      4  C   UNL     1     112.395 129.027 136.940  0.00  0.00    +0.000 A 
ATOM      5  C   UNL     1     112.806 128.541 137.463  0.00  0.00    +0.000 A 
ATOM      6  C   UNL     1     113.103 129.674 138.282  0.00  0.00    +0.000 A 
ATOM      7  C   UNL     1     112.021 128.703 136.237  0.00  0.00    +0.000 A 
ATOM      8  C   UNL     1     112.336 129.837 137.088  0.00  0.00    +0.000 A 
ATOM      9  C   UNL     1     112.691 130.160 137.759  0.00  0.00    +0.000 A 
ATOM     10  C   UNL     1     112.875 127.696 137.321  0.00  0.00    +0.000 A 
ATOM     11  C   UNL     1     112.508 127.353 136.624  0.00  0.00    +0.000 A 
ATOM     12  C   UNL     1     112.078 127.860 136.078  0.00  0.00    +0.000 A 
ENDROOT
BRANCH   6  14
ATOM     13  O   UNL     1     114.521 130.968 140.966  0.00  0.00    +0.000 OA
ATOM     14  C   UNL     1     113.457 129.998 138.954  0.00  0.00    +0.000 A 
ATOM     15  C   UNL     1     113.072 129.960 139.682  0.00  0.00    +0.000 A 
ATOM     16  C   UNL     1     114.197 130.359 138.895  0.00  0.00    +0.000 A 
ATOM     17  C   UNL     1     113.427 130.283 140.353  0.00  0.00    +0.000 A 
ATOM     18  C   UNL     1     114.551 130.682 139.567  0.00  0.00    +0.000 A 
ATOM     19  C   UNL     1     114.166 130.645 140.296  0.00  0.00    +0.000 A 
BRANCH  17  20
ATOM     20  O   UNL     1     113.041 130.245 141.082  0.00  0.00    +0.000 OA
ATOM     21  C   UNL     1     112.692 129.539 141.328  0.00  0.00    +0.000 C 
ENDBRANCH  17  20
ENDBRANCH   6  14
BRANCH   9  22
ATOM     22  O   UNL     1     112.632 130.970 137.906  0.00  0.00    +0.000 OA
ATOM     23  C   UNL     1     112.042 131.415 137.540  0.00  0.00    +0.000 C 
ENDBRANCH   9  22
BRANCH  12  24
ATOM     24  O   UNL     1     111.723 127.539 135.406  0.00  0.00    +0.000 OA
ATOM     25  C   UNL     1     110.904 127.441 135.379  0.00  0.00    +0.000 C 
ENDBRANCH  12  24
BRANCH  11  26
ATOM     26  O   UNL     1     112.567 126.543 136.478  0.00  0.00    +0.000 OA
BRANCH  26  27
ATOM     27  C   UNL     1     113.210 126.118 136.772  0.00  0.00    +0.000 C 
BRANCH  27  28
ATOM     28  C   UNL     1     113.154 125.302 136.873  0.00  0.00    +0.000 C 
ATOM     29  C   UNL     1     113.837 124.841 136.905  0.00  0.00    +0.000 C 
ATOM     30  C   UNL     1     113.780 124.024 137.006  0.00  0.00    +0.000 C 
ATOM     31  C   UNL     1     114.578 125.197 136.835  0.00  0.00    +0.000 C 
ENDBRANCH  27  28
ENDBRANCH  26  27
ENDBRANCH  11  26
TORSDOF 7
ENDMDL
MODEL 10
REMARK VINA RESULT:      -7.3      2.636      5.687
REMARK  Name = 44259865
REMARK  7 active torsions:
REMARK  status: ('A' for Active; 'I' for Inactive)
REMARK    1  A    between atoms: O_2  and  C_16
REMARK    2  A    between atoms: O_2  and  C_22
REMARK    3  A    between atoms: O_3  and  C_14
REMARK    4  A    between atoms: O_4  and  C_17
REMARK    5  A    between atoms: O_7  and  C_21
REMARK    6  A    between atoms: C_11  and  C_18
REMARK    7  A    between atoms: C_22  and  C_25
REMARK                            x       y       z     vdW  Elec       q    Type
REMARK                         _______ _______ _______ _____ _____    ______ ____
ROOT
ATOM      1  O   UNL     1     113.145 128.983 139.257  0.00  0.00    +0.000 OA
ATOM      2  O   UNL     1     112.942 126.112 138.997  0.00  0.00    +0.000 OA
ATOM      3  O   UNL     1     113.722 126.712 140.052  0.00  0.00    +0.000 OA
ATOM      4  C   UNL     1     113.043 127.564 139.127  0.00  0.00    +0.000 A 
ATOM      5  C   UNL     1     112.851 128.320 138.862  0.00  0.00    +0.000 A 
ATOM      6  C   UNL     1     113.631 128.888 139.916  0.00  0.00    +0.000 A 
ATOM      7  C   UNL     1     112.744 126.866 138.725  0.00  0.00    +0.000 A 
ATOM      8  C   UNL     1     113.530 127.469 139.787  0.00  0.00    +0.000 A 
ATOM      9  C   UNL     1     113.823 128.132 140.181  0.00  0.00    +0.000 A 
ATOM     10  C   UNL     1     112.346 128.433 138.176  0.00  0.00    +0.000 A 
ATOM     11  C   UNL     1     112.037 127.747 137.760  0.00  0.00    +0.000 A 
ATOM     12  C   UNL     1     112.237 126.958 138.037  0.00  0.00    +0.000 A 
ENDROOT
BRANCH   6  14
ATOM     13  O   UNL     1     114.807 131.537 141.494  0.00  0.00    +0.000 OA
ATOM     14  C   UNL     1     113.925 129.551 140.311  0.00  0.00    +0.000 A 
ATOM     15  C   UNL     1     113.460 129.936 140.873  0.00  0.00    +0.000 A 
ATOM     16  C   UNL     1     114.684 129.827 140.143  0.00  0.00    +0.000 A 
ATOM     17  C   UNL     1     113.754 130.598 141.267  0.00  0.00    +0.000 A 
ATOM     18  C   UNL     1     114.978 130.490 140.538  0.00  0.00    +0.000 A 
ATOM     19  C   UNL     1     114.513 130.876 141.100  0.00  0.00    +0.000 A 
BRANCH  17  20
ATOM     20  O   UNL     1     113.288 130.984 141.829  0.00  0.00    +0.000 OA
ATOM     21  C   UNL     1     112.628 130.605 142.148  0.00  0.00    +0.000 C 
ENDBRANCH  17  20
ENDBRANCH   6  14
BRANCH   9  22
ATOM     22  O   UNL     1     114.310 128.036 140.841  0.00  0.00    +0.000 OA
ATOM     23  C   UNL     1     114.636 127.298 141.011  0.00  0.00    +0.000 C 
ENDBRANCH   9  22
BRANCH  12  24
ATOM     24  O   UNL     1     111.945 126.294 137.644  0.00  0.00    +0.000 OA
ATOM     25  C   UNL     1     111.335 125.851 137.981  0.00  0.00    +0.000 C 
ENDBRANCH  12  24
BRANCH  11  26
ATOM     26  O   UNL     1     111.551 127.845 137.101  0.00  0.00    +0.000 OA
BRANCH  26  27
ATOM     27  C   UNL     1     111.716 128.437 136.551  0.00  0.00    +0.000 C 
BRANCH  27  28
ATOM     28  C   UNL     1     111.126 128.702 136.041  0.00  0.00    +0.000 C 
ATOM     29  C   UNL     1     111.328 129.049 135.320  0.00  0.00    +0.000 C 
ATOM     30  C   UNL     1     110.737 129.314 134.809  0.00  0.00    +0.000 C 
ATOM     31  C   UNL     1     112.122 129.130 135.110  0.00  0.00    +0.000 C 
ENDBRANCH  27  28
ENDBRANCH  26  27
ENDBRANCH  11  26
TORSDOF 7
ENDMDL
