MODEL 1
REMARK VINA RESULT:      -9.1      0.000      0.000
REMARK  Name = 74977947
REMARK  13 active torsions:
REMARK  status: ('A' for Active; 'I' for Inactive)
REMARK    1  A    between atoms: O_4  and  C_22
REMARK    2  A    between atoms: O_4  and  C_24
REMARK    3  A    between atoms: O_7  and  C_25
REMARK    4  A    between atoms: O_10  and  C_38
REMARK    5  A    between atoms: O_10  and  C_40
REMARK    6  A    between atoms: O_11  and  C_39
REMARK    7  A    between atoms: O_12  and  C_43
REMARK    8  A    between atoms: C_20  and  C_23
REMARK    9  A    between atoms: C_27  and  C_32
REMARK   10  A    between atoms: C_29  and  C_31
REMARK   11  A    between atoms: C_29  and  C_33
REMARK   12  A    between atoms: C_31  and  C_38
REMARK   13  A    between atoms: C_33  and  C_44
REMARK                            x       y       z     vdW  Elec       q    Type
REMARK                         _______ _______ _______ _____ _____    ______ ____
ROOT
ATOM      1  O   UNL     1     111.729 129.383 136.731  0.00  0.00    +0.000 OA
ATOM      2  O   UNL     1     111.584 131.881 138.187  0.00  0.00    +0.000 OA
ATOM      3  O   UNL     1     112.584 130.912 138.560  0.00  0.00    +0.000 OA
ATOM      4  C   UNL     1     112.387 129.127 137.221  0.00  0.00    +0.000 A 
ATOM      5  C   UNL     1     111.373 130.153 136.870  0.00  0.00    +0.000 A 
ATOM      6  C   UNL     1     111.653 130.649 137.467  0.00  0.00    +0.000 A 
ATOM      7  C   UNL     1     112.679 129.643 137.842  0.00  0.00    +0.000 A 
ATOM      8  C   UNL     1     110.741 130.394 136.397  0.00  0.00    +0.000 A 
ATOM      9  C   UNL     1     110.391 131.131 136.520  0.00  0.00    +0.000 A 
ATOM     10  C   UNL     1     112.310 130.409 137.966  0.00  0.00    +0.000 A 
ATOM     11  C   UNL     1     111.303 131.386 137.590  0.00  0.00    +0.000 A 
ATOM     12  C   UNL     1     110.672 131.626 137.117  0.00  0.00    +0.000 A 
ENDROOT
BRANCH   4  16
ATOM     13  C   UNL     1     113.433 126.915 136.844  0.00  0.00    +0.000 A 
ATOM     14  C   UNL     1     113.650 127.559 136.377  0.00  0.00    +0.000 A 
ATOM     15  C   UNL     1     112.866 127.008 137.438  0.00  0.00    +0.000 A 
ATOM     16  C   UNL     1     112.735 128.390 137.096  0.00  0.00    +0.000 A 
ATOM     17  C   UNL     1     113.301 128.297 136.503  0.00  0.00    +0.000 A 
ATOM     18  C   UNL     1     112.518 127.745 137.563  0.00  0.00    +0.000 A 
BRANCH  14  19
ATOM     19  O   UNL     1     114.216 127.466 135.784  0.00  0.00    +0.000 OA
ATOM     20  C   UNL     1     114.504 128.127 135.382  0.00  0.00    +0.000 C 
ENDBRANCH  14  19
BRANCH  13  21
ATOM     21  O   UNL     1     113.781 126.179 136.719  0.00  0.00    +0.000 OA
BRANCH  21  30
ATOM     22  O   UNL     1     112.559 125.521 136.375  0.00  0.00    +0.000 OA
ATOM     23  O   UNL     1     111.916 123.457 136.674  0.00  0.00    +0.000 OA
ATOM     24  O   UNL     1     113.424 123.411 137.338  0.00  0.00    +0.000 OA
ATOM     25  O   UNL     1     114.357 124.771 137.361  0.00  0.00    +0.000 OA
ATOM     26  C   UNL     1     112.382 124.137 136.685  0.00  0.00    +0.000 C 
ATOM     27  C   UNL     1     113.136 124.114 137.017  0.00  0.00    +0.000 C 
ATOM     28  C   UNL     1     112.093 124.841 136.364  0.00  0.00    +0.000 C 
ATOM     29  C   UNL     1     113.603 124.795 137.029  0.00  0.00    +0.000 C 
ATOM     30  C   UNL     1     113.315 125.498 136.708  0.00  0.00    +0.000 C 
BRANCH  28  32
ATOM     31  O   UNL     1     111.223 125.223 135.297  0.00  0.00    +0.000 OA
ATOM     32  C   UNL     1     111.339 124.864 136.031  0.00  0.00    +0.000 C 
ENDBRANCH  28  32
ENDBRANCH  21  30
ENDBRANCH  13  21
ENDBRANCH   4  16
BRANCH   8  33
ATOM     33  O   UNL     1     110.460 129.898 135.800  0.00  0.00    +0.000 OA
ATOM     34  C   UNL     1     110.815 129.906 135.056  0.00  0.00    +0.000 C 
ENDBRANCH   8  33
BRANCH  12  35
ATOM     35  O   UNL     1     110.322 132.363 137.240  0.00  0.00    +0.000 OA
ATOM     36  C   UNL     1     110.756 133.052 137.115  0.00  0.00    +0.000 C 
ENDBRANCH  12  35
BRANCH   9  37
ATOM     37  O   UNL     1     109.759 131.372 136.047  0.00  0.00    +0.000 OA
BRANCH  37  39
ATOM     38  O   UNL     1     108.803 130.951 137.022  0.00  0.00    +0.000 OA
ATOM     39  C   UNL     1     108.989 131.152 136.244  0.00  0.00    +0.000 C 
BRANCH  39  40
ATOM     40  C   UNL     1     108.405 131.134 135.662  0.00  0.00    +0.000 C 
BRANCH  40  42
ATOM     41  O   UNL     1     107.440 130.776 136.214  0.00  0.00    +0.000 OA
ATOM     42  C   UNL     1     107.663 131.461 135.812  0.00  0.00    +0.000 C 
ATOM     43  C   UNL     1     107.884 132.147 135.410  0.00  0.00    +0.000 C 
BRANCH  42  44
ATOM     44  C   UNL     1     106.921 131.789 135.961  0.00  0.00    +0.000 C 
BRANCH  44  47
ATOM     45  O   UNL     1     105.646 131.359 135.478  0.00  0.00    +0.000 OA
ATOM     46  O   UNL     1     106.461 132.217 134.677  0.00  0.00    +0.000 OA
ATOM     47  C   UNL     1     106.343 131.788 135.372  0.00  0.00    +0.000 C 
ENDBRANCH  44  47
ENDBRANCH  42  44
ENDBRANCH  40  42
ENDBRANCH  39  40
ENDBRANCH  37  39
ENDBRANCH   9  37
TORSDOF 13
ENDMDL
MODEL 2
REMARK VINA RESULT:      -8.6      9.116     11.103
REMARK  Name = 74977947
REMARK  13 active torsions:
REMARK  status: ('A' for Active; 'I' for Inactive)
REMARK    1  A    between atoms: O_4  and  C_22
REMARK    2  A    between atoms: O_4  and  C_24
REMARK    3  A    between atoms: O_7  and  C_25
REMARK    4  A    between atoms: O_10  and  C_38
REMARK    5  A    between atoms: O_10  and  C_40
REMARK    6  A    between atoms: O_11  and  C_39
REMARK    7  A    between atoms: O_12  and  C_43
REMARK    8  A    between atoms: C_20  and  C_23
REMARK    9  A    between atoms: C_27  and  C_32
REMARK   10  A    between atoms: C_29  and  C_31
REMARK   11  A    between atoms: C_29  and  C_33
REMARK   12  A    between atoms: C_31  and  C_38
REMARK   13  A    between atoms: C_33  and  C_44
REMARK                            x       y       z     vdW  Elec       q    Type
REMARK                         _______ _______ _______ _____ _____    ______ ____
ROOT
ATOM      1  O   UNL     1     106.179 126.735 143.794  0.00  0.00    +0.000 OA
ATOM      2  O   UNL     1     105.308 123.975 143.844  0.00  0.00    +0.000 OA
ATOM      3  O   UNL     1     105.503 124.623 142.571  0.00  0.00    +0.000 OA
ATOM      4  C   UNL     1     106.171 126.730 142.934  0.00  0.00    +0.000 A 
ATOM      5  C   UNL     1     105.959 126.024 144.223  0.00  0.00    +0.000 A 
ATOM      6  C   UNL     1     105.738 125.337 143.822  0.00  0.00    +0.000 A 
ATOM      7  C   UNL     1     105.942 126.015 142.517  0.00  0.00    +0.000 A 
ATOM      8  C   UNL     1     105.969 126.034 145.048  0.00  0.00    +0.000 A 
ATOM      9  C   UNL     1     105.759 125.358 145.472  0.00  0.00    +0.000 A 
ATOM     10  C   UNL     1     105.724 125.315 142.963  0.00  0.00    +0.000 A 
ATOM     11  C   UNL     1     105.528 124.661 144.246  0.00  0.00    +0.000 A 
ATOM     12  C   UNL     1     105.539 124.672 145.070  0.00  0.00    +0.000 A 
ENDROOT
BRANCH   4  16
ATOM     13  C   UNL     1     106.802 128.764 141.672  0.00  0.00    +0.000 A 
ATOM     14  C   UNL     1     106.017 128.643 141.895  0.00  0.00    +0.000 A 
ATOM     15  C   UNL     1     107.377 128.205 141.870  0.00  0.00    +0.000 A 
ATOM     16  C   UNL     1     106.381 127.407 142.514  0.00  0.00    +0.000 A 
ATOM     17  C   UNL     1     105.807 127.965 142.315  0.00  0.00    +0.000 A 
ATOM     18  C   UNL     1     107.167 127.528 142.290  0.00  0.00    +0.000 A 
BRANCH  14  19
ATOM     19  O   UNL     1     105.442 129.201 141.696  0.00  0.00    +0.000 OA
ATOM     20  C   UNL     1     104.643 129.002 141.738  0.00  0.00    +0.000 C 
ENDBRANCH  14  19
BRANCH  13  21
ATOM     21  O   UNL     1     107.012 129.440 141.251  0.00  0.00    +0.000 OA
BRANCH  21  30
ATOM     22  O   UNL     1     107.771 130.116 142.256  0.00  0.00    +0.000 OA
ATOM     23  O   UNL     1     109.677 131.173 142.137  0.00  0.00    +0.000 OA
ATOM     24  O   UNL     1     109.492 130.690 140.571  0.00  0.00    +0.000 OA
ATOM     25  O   UNL     1     108.160 129.823 140.127  0.00  0.00    +0.000 OA
ATOM     26  C   UNL     1     109.011 130.740 141.916  0.00  0.00    +0.000 C 
ATOM     27  C   UNL     1     108.919 130.498 141.132  0.00  0.00    +0.000 C 
ATOM     28  C   UNL     1     108.438 130.549 142.477  0.00  0.00    +0.000 C 
ATOM     29  C   UNL     1     108.252 130.065 140.911  0.00  0.00    +0.000 C 
ATOM     30  C   UNL     1     107.679 129.874 141.472  0.00  0.00    +0.000 C 
BRANCH  28  32
ATOM     31  O   UNL     1     107.878 131.062 143.687  0.00  0.00    +0.000 OA
ATOM     32  C   UNL     1     108.530 130.790 143.260  0.00  0.00    +0.000 C 
ENDBRANCH  28  32
ENDBRANCH  21  30
ENDBRANCH  13  21
ENDBRANCH   4  16
BRANCH   8  33
ATOM     33  O   UNL     1     106.189 126.720 145.450  0.00  0.00    +0.000 OA
ATOM     34  C   UNL     1     105.621 127.289 145.638  0.00  0.00    +0.000 C 
ENDBRANCH   8  33
BRANCH  12  35
ATOM     35  O   UNL     1     105.329 123.995 145.493  0.00  0.00    +0.000 OA
ATOM     36  C   UNL     1     104.570 123.683 145.421  0.00  0.00    +0.000 C 
ENDBRANCH  12  35
BRANCH   9  37
ATOM     37  O   UNL     1     105.769 125.368 146.297  0.00  0.00    +0.000 OA
BRANCH  37  39
ATOM     38  O   UNL     1     107.183 125.185 146.391  0.00  0.00    +0.000 OA
ATOM     39  C   UNL     1     106.427 125.083 146.705  0.00  0.00    +0.000 C 
BRANCH  39  40
ATOM     40  C   UNL     1     106.328 124.696 147.426  0.00  0.00    +0.000 C 
BRANCH  40  42
ATOM     41  O   UNL     1     107.462 124.578 147.677  0.00  0.00    +0.000 OA
ATOM     42  C   UNL     1     106.807 124.892 148.068  0.00  0.00    +0.000 C 
ATOM     43  C   UNL     1     106.153 125.206 148.461  0.00  0.00    +0.000 C 
BRANCH  42  44
ATOM     44  C   UNL     1     107.286 125.088 148.711  0.00  0.00    +0.000 C 
BRANCH  44  47
ATOM     45  O   UNL     1     108.282 124.411 149.480  0.00  0.00    +0.000 OA
ATOM     46  O   UNL     1     106.909 124.033 149.598  0.00  0.00    +0.000 OA
ATOM     47  C   UNL     1     107.492 124.510 149.263  0.00  0.00    +0.000 C 
ENDBRANCH  44  47
ENDBRANCH  42  44
ENDBRANCH  40  42
ENDBRANCH  39  40
ENDBRANCH  37  39
ENDBRANCH   9  37
TORSDOF 13
ENDMDL
MODEL 3
REMARK VINA RESULT:      -8.6      3.948      5.736
REMARK  Name = 74977947
REMARK  13 active torsions:
REMARK  status: ('A' for Active; 'I' for Inactive)
REMARK    1  A    between atoms: O_4  and  C_22
REMARK    2  A    between atoms: O_4  and  C_24
REMARK    3  A    between atoms: O_7  and  C_25
REMARK    4  A    between atoms: O_10  and  C_38
REMARK    5  A    between atoms: O_10  and  C_40
REMARK    6  A    between atoms: O_11  and  C_39
REMARK    7  A    between atoms: O_12  and  C_43
REMARK    8  A    between atoms: C_20  and  C_23
REMARK    9  A    between atoms: C_27  and  C_32
REMARK   10  A    between atoms: C_29  and  C_31
REMARK   11  A    between atoms: C_29  and  C_33
REMARK   12  A    between atoms: C_31  and  C_38
REMARK   13  A    between atoms: C_33  and  C_44
REMARK                            x       y       z     vdW  Elec       q    Type
REMARK                         _______ _______ _______ _____ _____    ______ ____
ROOT
ATOM      1  O   UNL     1     112.399 128.693 140.738  0.00  0.00    +0.000 OA
ATOM      2  O   UNL     1     111.001 128.124 143.207  0.00  0.00    +0.000 OA
ATOM      3  O   UNL     1     110.924 127.174 142.125  0.00  0.00    +0.000 OA
ATOM      4  C   UNL     1     112.120 127.954 140.400  0.00  0.00    +0.000 A 
ATOM      5  C   UNL     1     112.173 128.905 141.539  0.00  0.00    +0.000 A 
ATOM      6  C   UNL     1     111.692 128.408 141.989  0.00  0.00    +0.000 A 
ATOM      7  C   UNL     1     111.620 127.436 140.868  0.00  0.00    +0.000 A 
ATOM      8  C   UNL     1     112.444 129.616 141.858  0.00  0.00    +0.000 A 
ATOM      9  C   UNL     1     112.234 129.829 142.627  0.00  0.00    +0.000 A 
ATOM     10  C   UNL     1     111.404 127.664 141.668  0.00  0.00    +0.000 A 
ATOM     11  C   UNL     1     111.482 128.621 142.758  0.00  0.00    +0.000 A 
ATOM     12  C   UNL     1     111.753 129.332 143.076  0.00  0.00    +0.000 A 
ENDROOT
BRANCH   4  16
ATOM     13  C   UNL     1     112.756 127.320 138.093  0.00  0.00    +0.000 A 
ATOM     14  C   UNL     1     112.145 127.860 138.219  0.00  0.00    +0.000 A 
ATOM     15  C   UNL     1     113.155 126.991 138.736  0.00  0.00    +0.000 A 
ATOM     16  C   UNL     1     112.332 127.743 139.631  0.00  0.00    +0.000 A 
ATOM     17  C   UNL     1     111.933 128.071 138.988  0.00  0.00    +0.000 A 
ATOM     18  C   UNL     1     112.943 127.202 139.505  0.00  0.00    +0.000 A 
BRANCH  14  19
ATOM     19  O   UNL     1     111.745 128.188 137.576  0.00  0.00    +0.000 OA
ATOM     20  C   UNL     1     111.358 128.912 137.658  0.00  0.00    +0.000 C 
ENDBRANCH  14  19
BRANCH  13  21
ATOM     21  O   UNL     1     112.967 127.109 137.325  0.00  0.00    +0.000 OA
BRANCH  21  30
ATOM     22  O   UNL     1     112.449 125.778 137.293  0.00  0.00    +0.000 OA
ATOM     23  O   UNL     1     113.312 123.927 136.522  0.00  0.00    +0.000 OA
ATOM     24  O   UNL     1     114.521 124.998 136.185  0.00  0.00    +0.000 OA
ATOM     25  O   UNL     1     114.349 126.589 136.586  0.00  0.00    +0.000 OA
ATOM     26  C   UNL     1     113.226 124.723 136.723  0.00  0.00    +0.000 C 
ATOM     27  C   UNL     1     113.831 125.258 136.554  0.00  0.00    +0.000 C 
ATOM     28  C   UNL     1     112.535 124.983 137.092  0.00  0.00    +0.000 C 
ATOM     29  C   UNL     1     113.744 126.054 136.755  0.00  0.00    +0.000 C 
ATOM     30  C   UNL     1     113.054 126.314 137.124  0.00  0.00    +0.000 C 
BRANCH  28  32
ATOM     31  O   UNL     1     111.146 124.647 137.094  0.00  0.00    +0.000 OA
ATOM     32  C   UNL     1     111.931 124.448 137.260  0.00  0.00    +0.000 C 
ENDBRANCH  28  32
ENDBRANCH  21  30
ENDBRANCH  13  21
ENDBRANCH   4  16
BRANCH   8  33
ATOM     33  O   UNL     1     112.925 130.113 141.409  0.00  0.00    +0.000 OA
ATOM     34  C   UNL     1     113.742 130.006 141.407  0.00  0.00    +0.000 C 
ENDBRANCH   8  33
BRANCH  12  35
ATOM     35  O   UNL     1     111.542 129.546 143.845  0.00  0.00    +0.000 OA
ATOM     36  C   UNL     1     111.697 129.034 144.472  0.00  0.00    +0.000 C 
ENDBRANCH  12  35
BRANCH   9  37
ATOM     37  O   UNL     1     112.504 130.541 142.946  0.00  0.00    +0.000 OA
BRANCH  37  39
ATOM     38  O   UNL     1     111.591 131.399 142.260  0.00  0.00    +0.000 OA
ATOM     39  C   UNL     1     112.019 131.207 142.939  0.00  0.00    +0.000 C 
BRANCH  39  40
ATOM     40  C   UNL     1     111.961 131.682 143.611  0.00  0.00    +0.000 C 
BRANCH  40  42
ATOM     41  O   UNL     1     111.247 132.544 143.278  0.00  0.00    +0.000 OA
ATOM     42  C   UNL     1     112.027 132.502 143.544  0.00  0.00    +0.000 C 
ATOM     43  C   UNL     1     112.807 132.461 143.810  0.00  0.00    +0.000 C 
BRANCH  42  44
ATOM     44  C   UNL     1     112.093 133.321 143.478  0.00  0.00    +0.000 C 
BRANCH  44  47
ATOM     45  O   UNL     1     112.576 133.961 144.661  0.00  0.00    +0.000 OA
ATOM     46  O   UNL     1     111.211 134.120 144.268  0.00  0.00    +0.000 OA
ATOM     47  C   UNL     1     111.960 133.801 144.136  0.00  0.00    +0.000 C 
ENDBRANCH  44  47
ENDBRANCH  42  44
ENDBRANCH  40  42
ENDBRANCH  39  40
ENDBRANCH  37  39
ENDBRANCH   9  37
TORSDOF 13
ENDMDL
MODEL 4
REMARK VINA RESULT:      -8.6      5.518      6.368
REMARK  Name = 74977947
REMARK  13 active torsions:
REMARK  status: ('A' for Active; 'I' for Inactive)
REMARK    1  A    between atoms: O_4  and  C_22
REMARK    2  A    between atoms: O_4  and  C_24
REMARK    3  A    between atoms: O_7  and  C_25
REMARK    4  A    between atoms: O_10  and  C_38
REMARK    5  A    between atoms: O_10  and  C_40
REMARK    6  A    between atoms: O_11  and  C_39
REMARK    7  A    between atoms: O_12  and  C_43
REMARK    8  A    between atoms: C_20  and  C_23
REMARK    9  A    between atoms: C_27  and  C_32
REMARK   10  A    between atoms: C_29  and  C_31
REMARK   11  A    between atoms: C_29  and  C_33
REMARK   12  A    between atoms: C_31  and  C_38
REMARK   13  A    between atoms: C_33  and  C_44
REMARK                            x       y       z     vdW  Elec       q    Type
REMARK                         _______ _______ _______ _____ _____    ______ ____
ROOT
ATOM      1  O   UNL     1     108.309 126.576 140.845  0.00  0.00    +0.000 OA
ATOM      2  O   UNL     1     106.565 124.684 142.170  0.00  0.00    +0.000 OA
ATOM      3  O   UNL     1     107.700 124.189 141.430  0.00  0.00    +0.000 OA
ATOM      4  C   UNL     1     108.800 125.932 140.555  0.00  0.00    +0.000 A 
ATOM      5  C   UNL     1     107.621 126.399 141.328  0.00  0.00    +0.000 A 
ATOM      6  C   UNL     1     107.424 125.620 141.517  0.00  0.00    +0.000 A 
ATOM      7  C   UNL     1     108.596 125.122 140.752  0.00  0.00    +0.000 A 
ATOM      8  C   UNL     1     107.154 127.021 141.603  0.00  0.00    +0.000 A 
ATOM      9  C   UNL     1     106.490 126.864 142.067  0.00  0.00    +0.000 A 
ATOM     10  C   UNL     1     107.904 124.965 141.236  0.00  0.00    +0.000 A 
ATOM     11  C   UNL     1     106.761 125.463 141.981  0.00  0.00    +0.000 A 
ATOM     12  C   UNL     1     106.294 126.085 142.256  0.00  0.00    +0.000 A 
ENDROOT
BRANCH   4  16
ATOM     13  C   UNL     1     110.790 126.414 139.162  0.00  0.00    +0.000 A 
ATOM     14  C   UNL     1     110.871 126.308 139.976  0.00  0.00    +0.000 A 
ATOM     15  C   UNL     1     110.044 126.358 138.812  0.00  0.00    +0.000 A 
ATOM     16  C   UNL     1     109.463 126.093 140.091  0.00  0.00    +0.000 A 
ATOM     17  C   UNL     1     110.208 126.148 140.441  0.00  0.00    +0.000 A 
ATOM     18  C   UNL     1     109.381 126.198 139.276  0.00  0.00    +0.000 A 
BRANCH  14  19
ATOM     19  O   UNL     1     111.617 126.363 140.326  0.00  0.00    +0.000 OA
ATOM     20  C   UNL     1     111.697 126.701 141.074  0.00  0.00    +0.000 C 
ENDBRANCH  14  19
BRANCH  13  21
ATOM     21  O   UNL     1     111.452 126.574 138.699  0.00  0.00    +0.000 OA
BRANCH  21  30
ATOM     22  O   UNL     1     111.512 125.370 137.931  0.00  0.00    +0.000 OA
ATOM     23  O   UNL     1     111.844 125.051 135.798  0.00  0.00    +0.000 OA
ATOM     24  O   UNL     1     111.919 126.696 135.881  0.00  0.00    +0.000 OA
ATOM     25  O   UNL     1     111.724 127.458 137.332  0.00  0.00    +0.000 OA
ATOM     26  C   UNL     1     111.746 125.431 136.523  0.00  0.00    +0.000 C 
ATOM     27  C   UNL     1     111.784 126.254 136.564  0.00  0.00    +0.000 C 
ATOM     28  C   UNL     1     111.610 124.989 137.206  0.00  0.00    +0.000 C 
ATOM     29  C   UNL     1     111.686 126.635 137.290  0.00  0.00    +0.000 C 
ATOM     30  C   UNL     1     111.550 126.193 137.973  0.00  0.00    +0.000 C 
BRANCH  28  32
ATOM     31  O   UNL     1     111.927 123.707 137.752  0.00  0.00    +0.000 OA
ATOM     32  C   UNL     1     111.572 124.166 137.165  0.00  0.00    +0.000 C 
ENDBRANCH  28  32
ENDBRANCH  21  30
ENDBRANCH  13  21
ENDBRANCH   4  16
BRANCH   8  33
ATOM     33  O   UNL     1     107.349 127.800 141.414  0.00  0.00    +0.000 OA
ATOM     34  C   UNL     1     107.892 128.213 141.877  0.00  0.00    +0.000 C 
ENDBRANCH   8  33
BRANCH  12  35
ATOM     35  O   UNL     1     105.631 125.927 142.721  0.00  0.00    +0.000 OA
ATOM     36  C   UNL     1     105.720 125.584 143.464  0.00  0.00    +0.000 C 
ENDBRANCH  12  35
BRANCH   9  37
ATOM     37  O   UNL     1     106.022 127.485 142.343  0.00  0.00    +0.000 OA
BRANCH  37  39
ATOM     38  O   UNL     1     105.035 127.293 141.328  0.00  0.00    +0.000 OA
ATOM     39  C   UNL     1     105.414 127.783 141.872  0.00  0.00    +0.000 C 
BRANCH  39  40
ATOM     40  C   UNL     1     105.185 128.572 141.947  0.00  0.00    +0.000 C 
BRANCH  40  42
ATOM     41  O   UNL     1     104.523 128.713 140.996  0.00  0.00    +0.000 OA
ATOM     42  C   UNL     1     104.401 128.789 141.808  0.00  0.00    +0.000 C 
ATOM     43  C   UNL     1     104.279 128.865 142.621  0.00  0.00    +0.000 C 
BRANCH  42  44
ATOM     44  C   UNL     1     103.617 129.007 141.671  0.00  0.00    +0.000 C 
BRANCH  44  47
ATOM     45  O   UNL     1     103.029 130.140 142.313  0.00  0.00    +0.000 OA
ATOM     46  O   UNL     1     103.572 130.266 140.997  0.00  0.00    +0.000 OA
ATOM     47  C   UNL     1     103.406 129.804 141.660  0.00  0.00    +0.000 C 
ENDBRANCH  44  47
ENDBRANCH  42  44
ENDBRANCH  40  42
ENDBRANCH  39  40
ENDBRANCH  37  39
ENDBRANCH   9  37
TORSDOF 13
ENDMDL
MODEL 5
REMARK VINA RESULT:      -8.6      8.354      9.689
REMARK  Name = 74977947
REMARK  13 active torsions:
REMARK  status: ('A' for Active; 'I' for Inactive)
REMARK    1  A    between atoms: O_4  and  C_22
REMARK    2  A    between atoms: O_4  and  C_24
REMARK    3  A    between atoms: O_7  and  C_25
REMARK    4  A    between atoms: O_10  and  C_38
REMARK    5  A    between atoms: O_10  and  C_40
REMARK    6  A    between atoms: O_11  and  C_39
REMARK    7  A    between atoms: O_12  and  C_43
REMARK    8  A    between atoms: C_20  and  C_23
REMARK    9  A    between atoms: C_27  and  C_32
REMARK   10  A    between atoms: C_29  and  C_31
REMARK   11  A    between atoms: C_29  and  C_33
REMARK   12  A    between atoms: C_31  and  C_38
REMARK   13  A    between atoms: C_33  and  C_44
REMARK                            x       y       z     vdW  Elec       q    Type
REMARK                         _______ _______ _______ _____ _____    ______ ____
ROOT
ATOM      1  O   UNL     1     104.634 129.105 142.884  0.00  0.00    +0.000 OA
ATOM      2  O   UNL     1     103.313 128.713 140.339  0.00  0.00    +0.000 OA
ATOM      3  O   UNL     1     104.211 127.694 140.824  0.00  0.00    +0.000 OA
ATOM      4  C   UNL     1     105.033 128.347 142.802  0.00  0.00    +0.000 A 
ATOM      5  C   UNL     1     104.100 129.370 142.266  0.00  0.00    +0.000 A 
ATOM      6  C   UNL     1     103.964 128.909 141.595  0.00  0.00    +0.000 A 
ATOM      7  C   UNL     1     104.891 127.867 142.105  0.00  0.00    +0.000 A 
ATOM      8  C   UNL     1     103.720 130.098 142.349  0.00  0.00    +0.000 A 
ATOM      9  C   UNL     1     103.205 130.364 141.762  0.00  0.00    +0.000 A 
ATOM     10  C   UNL     1     104.354 128.149 141.497  0.00  0.00    +0.000 A 
ATOM     11  C   UNL     1     103.448 129.174 141.009  0.00  0.00    +0.000 A 
ATOM     12  C   UNL     1     103.069 129.902 141.092  0.00  0.00    +0.000 A 
ENDROOT
BRANCH   4  16
ATOM     13  C   UNL     1     106.578 127.557 144.568  0.00  0.00    +0.000 A 
ATOM     14  C   UNL     1     106.875 127.802 143.838  0.00  0.00    +0.000 A 
ATOM     15  C   UNL     1     105.765 127.576 144.709  0.00  0.00    +0.000 A 
ATOM     16  C   UNL     1     105.548 128.084 143.390  0.00  0.00    +0.000 A 
ATOM     17  C   UNL     1     106.360 128.065 143.250  0.00  0.00    +0.000 A 
ATOM     18  C   UNL     1     105.250 127.839 144.121  0.00  0.00    +0.000 A 
BRANCH  14  19
ATOM     19  O   UNL     1     107.689 127.783 143.697  0.00  0.00    +0.000 OA
ATOM     20  C   UNL     1     108.009 128.221 143.076  0.00  0.00    +0.000 C 
ENDBRANCH  14  19
BRANCH  13  21
ATOM     21  O   UNL     1     107.093 127.294 145.155  0.00  0.00    +0.000 OA
BRANCH  21  30
ATOM     22  O   UNL     1     106.579 125.965 145.256  0.00  0.00    +0.000 OA
ATOM     23  O   UNL     1     106.300 124.668 146.990  0.00  0.00    +0.000 OA
ATOM     24  O   UNL     1     106.930 126.014 147.706  0.00  0.00    +0.000 OA
ATOM     25  O   UNL     1     107.326 127.327 146.789  0.00  0.00    +0.000 OA
ATOM     26  C   UNL     1     106.498 125.325 146.531  0.00  0.00    +0.000 C 
ATOM     27  C   UNL     1     106.813 125.997 146.890  0.00  0.00    +0.000 C 
ATOM     28  C   UNL     1     106.381 125.308 145.714  0.00  0.00    +0.000 C 
ATOM     29  C   UNL     1     107.011 126.655 146.431  0.00  0.00    +0.000 C 
ATOM     30  C   UNL     1     106.895 126.638 145.614  0.00  0.00    +0.000 C 
BRANCH  28  32
ATOM     31  O   UNL     1     106.441 124.306 144.697  0.00  0.00    +0.000 OA
ATOM     32  C   UNL     1     106.066 124.636 145.356  0.00  0.00    +0.000 C 
ENDBRANCH  28  32
ENDBRANCH  21  30
ENDBRANCH  13  21
ENDBRANCH   4  16
BRANCH   8  33
ATOM     33  O   UNL     1     103.856 130.560 143.019  0.00  0.00    +0.000 OA
ATOM     34  C   UNL     1     103.386 130.463 143.690  0.00  0.00    +0.000 C 
ENDBRANCH   8  33
BRANCH  12  35
ATOM     35  O   UNL     1     102.553 130.168 140.506  0.00  0.00    +0.000 OA
ATOM     36  C   UNL     1     101.934 129.687 140.252  0.00  0.00    +0.000 C 
ENDBRANCH  12  35
BRANCH   9  37
ATOM     37  O   UNL     1     102.825 131.092 141.845  0.00  0.00    +0.000 OA
BRANCH  37  39
ATOM     38  O   UNL     1     103.958 131.868 141.453  0.00  0.00    +0.000 OA
ATOM     39  C   UNL     1     103.140 131.765 141.488  0.00  0.00    +0.000 C 
BRANCH  39  40
ATOM     40  C   UNL     1     102.638 132.334 141.167  0.00  0.00    +0.000 C 
BRANCH  40  42
ATOM     41  O   UNL     1     102.157 133.017 141.983  0.00  0.00    +0.000 OA
ATOM     42  C   UNL     1     102.716 133.125 141.386  0.00  0.00    +0.000 C 
ATOM     43  C   UNL     1     103.276 133.235 140.790  0.00  0.00    +0.000 C 
BRANCH  42  44
ATOM     44  C   UNL     1     102.796 133.917 141.605  0.00  0.00    +0.000 C 
BRANCH  44  47
ATOM     45  O   UNL     1     102.312 134.848 140.635  0.00  0.00    +0.000 OA
ATOM     46  O   UNL     1     101.592 134.645 141.853  0.00  0.00    +0.000 OA
ATOM     47  C   UNL     1     102.233 134.470 141.364  0.00  0.00    +0.000 C 
ENDBRANCH  44  47
ENDBRANCH  42  44
ENDBRANCH  40  42
ENDBRANCH  39  40
ENDBRANCH  37  39
ENDBRANCH   9  37
TORSDOF 13
ENDMDL
MODEL 6
REMARK VINA RESULT:      -8.5      4.367      6.566
REMARK  Name = 74977947
REMARK  13 active torsions:
REMARK  status: ('A' for Active; 'I' for Inactive)
REMARK    1  A    between atoms: O_4  and  C_22
REMARK    2  A    between atoms: O_4  and  C_24
REMARK    3  A    between atoms: O_7  and  C_25
REMARK    4  A    between atoms: O_10  and  C_38
REMARK    5  A    between atoms: O_10  and  C_40
REMARK    6  A    between atoms: O_11  and  C_39
REMARK    7  A    between atoms: O_12  and  C_43
REMARK    8  A    between atoms: C_20  and  C_23
REMARK    9  A    between atoms: C_27  and  C_32
REMARK   10  A    between atoms: C_29  and  C_31
REMARK   11  A    between atoms: C_29  and  C_33
REMARK   12  A    between atoms: C_31  and  C_38
REMARK   13  A    between atoms: C_33  and  C_44
REMARK                            x       y       z     vdW  Elec       q    Type
REMARK                         _______ _______ _______ _____ _____    ______ ____
ROOT
ATOM      1  O   UNL     1     111.877 129.707 141.145  0.00  0.00    +0.000 OA
ATOM      2  O   UNL     1     110.904 128.743 143.695  0.00  0.00    +0.000 OA
ATOM      3  O   UNL     1     110.653 127.961 142.509  0.00  0.00    +0.000 OA
ATOM      4  C   UNL     1     111.548 129.018 140.750  0.00  0.00    +0.000 A 
ATOM      5  C   UNL     1     111.785 129.792 141.994  0.00  0.00    +0.000 A 
ATOM      6  C   UNL     1     111.386 129.221 142.437  0.00  0.00    +0.000 A 
ATOM      7  C   UNL     1     111.132 128.424 141.210  0.00  0.00    +0.000 A 
ATOM      8  C   UNL     1     112.103 130.455 142.368  0.00  0.00    +0.000 A 
ATOM      9  C   UNL     1     112.021 130.548 143.184  0.00  0.00    +0.000 A 
ATOM     10  C   UNL     1     111.050 128.526 142.059  0.00  0.00    +0.000 A 
ATOM     11  C   UNL     1     111.304 129.314 143.253  0.00  0.00    +0.000 A 
ATOM     12  C   UNL     1     111.621 129.977 143.626  0.00  0.00    +0.000 A 
ENDROOT
BRANCH   4  16
ATOM     13  C   UNL     1     111.798 128.748 138.301  0.00  0.00    +0.000 A 
ATOM     14  C   UNL     1     111.119 129.099 138.611  0.00  0.00    +0.000 A 
ATOM     15  C   UNL     1     112.395 128.487 138.809  0.00  0.00    +0.000 A 
ATOM     16  C   UNL     1     111.631 128.928 139.934  0.00  0.00    +0.000 A 
ATOM     17  C   UNL     1     111.035 129.189 139.427  0.00  0.00    +0.000 A 
ATOM     18  C   UNL     1     112.311 128.577 139.625  0.00  0.00    +0.000 A 
BRANCH  14  19
ATOM     19  O   UNL     1     110.522 129.361 138.104  0.00  0.00    +0.000 OA
ATOM     20  C   UNL     1     109.759 129.481 138.393  0.00  0.00    +0.000 C 
ENDBRANCH  14  19
BRANCH  13  21
ATOM     21  O   UNL     1     111.881 128.659 137.487  0.00  0.00    +0.000 OA
BRANCH  21  30
ATOM     22  O   UNL     1     112.826 129.702 137.240  0.00  0.00    +0.000 OA
ATOM     23  O   UNL     1     114.604 129.748 135.975  0.00  0.00    +0.000 OA
ATOM     24  O   UNL     1     114.077 128.208 135.712  0.00  0.00    +0.000 OA
ATOM     25  O   UNL     1     112.715 127.662 136.468  0.00  0.00    +0.000 OA
ATOM     26  C   UNL     1     113.923 129.476 136.353  0.00  0.00    +0.000 C 
ATOM     27  C   UNL     1     113.660 128.705 136.221  0.00  0.00    +0.000 C 
ATOM     28  C   UNL     1     113.507 129.974 136.862  0.00  0.00    +0.000 C 
ATOM     29  C   UNL     1     112.978 128.433 136.599  0.00  0.00    +0.000 C 
ATOM     30  C   UNL     1     112.562 128.931 137.109  0.00  0.00    +0.000 C 
BRANCH  28  32
ATOM     31  O   UNL     1     113.233 131.371 136.981  0.00  0.00    +0.000 OA
ATOM     32  C   UNL     1     113.770 130.744 136.993  0.00  0.00    +0.000 C 
ENDBRANCH  28  32
ENDBRANCH  21  30
ENDBRANCH  13  21
ENDBRANCH   4  16
BRANCH   8  33
ATOM     33  O   UNL     1     112.502 131.026 141.927  0.00  0.00    +0.000 OA
ATOM     34  C   UNL     1     113.305 130.935 141.763  0.00  0.00    +0.000 C 
ENDBRANCH   8  33
BRANCH  12  35
ATOM     35  O   UNL     1     111.540 130.069 144.442  0.00  0.00    +0.000 OA
ATOM     36  C   UNL     1     111.823 129.488 144.953  0.00  0.00    +0.000 C 
ENDBRANCH  12  35
BRANCH   9  37
ATOM     37  O   UNL     1     112.339 131.211 143.558  0.00  0.00    +0.000 OA
BRANCH  37  39
ATOM     38  O   UNL     1     111.079 131.883 143.605  0.00  0.00    +0.000 OA
ATOM     39  C   UNL     1     111.903 131.911 143.597  0.00  0.00    +0.000 C 
BRANCH  39  40
ATOM     40  C   UNL     1     112.292 132.637 143.629  0.00  0.00    +0.000 C 
BRANCH  40  42
ATOM     41  O   UNL     1     111.413 133.402 143.570  0.00  0.00    +0.000 OA
ATOM     42  C   UNL     1     112.007 133.237 144.118  0.00  0.00    +0.000 C 
ATOM     43  C   UNL     1     112.601 133.073 144.667  0.00  0.00    +0.000 C 
BRANCH  42  44
ATOM     44  C   UNL     1     111.723 133.837 144.607  0.00  0.00    +0.000 C 
BRANCH  44  47
ATOM     45  O   UNL     1     111.271 135.110 144.141  0.00  0.00    +0.000 OA
ATOM     46  O   UNL     1     112.636 134.933 144.524  0.00  0.00    +0.000 OA
ATOM     47  C   UNL     1     111.877 134.627 144.424  0.00  0.00    +0.000 C 
ENDBRANCH  44  47
ENDBRANCH  42  44
ENDBRANCH  40  42
ENDBRANCH  39  40
ENDBRANCH  37  39
ENDBRANCH   9  37
TORSDOF 13
ENDMDL
MODEL 7
REMARK VINA RESULT:      -8.4      3.301      5.256
REMARK  Name = 74977947
REMARK  13 active torsions:
REMARK  status: ('A' for Active; 'I' for Inactive)
REMARK    1  A    between atoms: O_4  and  C_22
REMARK    2  A    between atoms: O_4  and  C_24
REMARK    3  A    between atoms: O_7  and  C_25
REMARK    4  A    between atoms: O_10  and  C_38
REMARK    5  A    between atoms: O_10  and  C_40
REMARK    6  A    between atoms: O_11  and  C_39
REMARK    7  A    between atoms: O_12  and  C_43
REMARK    8  A    between atoms: C_20  and  C_23
REMARK    9  A    between atoms: C_27  and  C_32
REMARK   10  A    between atoms: C_29  and  C_31
REMARK   11  A    between atoms: C_29  and  C_33
REMARK   12  A    between atoms: C_31  and  C_38
REMARK   13  A    between atoms: C_33  and  C_44
REMARK                            x       y       z     vdW  Elec       q    Type
REMARK                         _______ _______ _______ _____ _____    ______ ____
ROOT
ATOM      1  O   UNL     1     111.033 129.377 138.917  0.00  0.00    +0.000 OA
ATOM      2  O   UNL     1     110.921 127.797 136.493  0.00  0.00    +0.000 OA
ATOM      3  O   UNL     1     111.549 127.237 137.665  0.00  0.00    +0.000 OA
ATOM      4  C   UNL     1     111.443 128.739 139.322  0.00  0.00    +0.000 A 
ATOM      5  C   UNL     1     110.806 129.278 138.094  0.00  0.00    +0.000 A 
ATOM      6  C   UNL     1     110.975 128.579 137.688  0.00  0.00    +0.000 A 
ATOM      7  C   UNL     1     111.619 128.012 138.901  0.00  0.00    +0.000 A 
ATOM      8  C   UNL     1     110.413 129.893 137.710  0.00  0.00    +0.000 A 
ATOM      9  C   UNL     1     110.189 129.809 136.920  0.00  0.00    +0.000 A 
ATOM     10  C   UNL     1     111.384 127.932 138.078  0.00  0.00    +0.000 A 
ATOM     11  C   UNL     1     110.752 128.496 136.899  0.00  0.00    +0.000 A 
ATOM     12  C   UNL     1     110.359 129.111 136.515  0.00  0.00    +0.000 A 
ENDROOT
BRANCH   4  16
ATOM     13  C   UNL     1     112.109 128.998 141.693  0.00  0.00    +0.000 A 
ATOM     14  C   UNL     1     112.656 129.140 141.092  0.00  0.00    +0.000 A 
ATOM     15  C   UNL     1     111.339 128.769 141.503  0.00  0.00    +0.000 A 
ATOM     16  C   UNL     1     111.665 128.825 140.112  0.00  0.00    +0.000 A 
ATOM     17  C   UNL     1     112.434 129.054 140.302  0.00  0.00    +0.000 A 
ATOM     18  C   UNL     1     111.117 128.683 140.713  0.00  0.00    +0.000 A 
BRANCH  14  19
ATOM     19  O   UNL     1     113.427 129.369 141.282  0.00  0.00    +0.000 OA
ATOM     20  C   UNL     1     114.004 129.399 140.693  0.00  0.00    +0.000 C 
ENDBRANCH  14  19
BRANCH  13  21
ATOM     21  O   UNL     1     112.331 129.084 142.482  0.00  0.00    +0.000 OA
BRANCH  21  30
ATOM     22  O   UNL     1     111.670 130.308 142.804  0.00  0.00    +0.000 OA
ATOM     23  O   UNL     1     110.466 130.868 144.537  0.00  0.00    +0.000 OA
ATOM     24  O   UNL     1     110.855 129.312 144.919  0.00  0.00    +0.000 OA
ATOM     25  O   UNL     1     111.788 128.419 143.892  0.00  0.00    +0.000 OA
ATOM     26  C   UNL     1     110.932 130.422 144.023  0.00  0.00    +0.000 C 
ATOM     27  C   UNL     1     111.127 129.644 144.215  0.00  0.00    +0.000 C 
ATOM     28  C   UNL     1     111.204 130.754 143.318  0.00  0.00    +0.000 C 
ATOM     29  C   UNL     1     111.593 129.197 143.700  0.00  0.00    +0.000 C 
ATOM     30  C   UNL     1     111.865 129.529 142.996  0.00  0.00    +0.000 C 
BRANCH  28  32
ATOM     31  O   UNL     1     111.548 132.002 142.713  0.00  0.00    +0.000 OA
ATOM     32  C   UNL     1     111.009 131.533 143.127  0.00  0.00    +0.000 C 
ENDBRANCH  28  32
ENDBRANCH  21  30
ENDBRANCH  13  21
ENDBRANCH   4  16
BRANCH   8  33
ATOM     33  O   UNL     1     110.243 130.591 138.115  0.00  0.00    +0.000 OA
ATOM     34  C   UNL     1     110.803 131.195 138.150  0.00  0.00    +0.000 C 
ENDBRANCH   8  33
BRANCH  12  35
ATOM     35  O   UNL     1     110.136 129.028 135.725  0.00  0.00    +0.000 OA
ATOM     36  C   UNL     1     110.709 128.909 135.145  0.00  0.00    +0.000 C 
ENDBRANCH  12  35
BRANCH   9  37
ATOM     37  O   UNL     1     109.796 130.424 136.535  0.00  0.00    +0.000 OA
BRANCH  37  39
ATOM     38  O   UNL     1     108.525 130.106 137.104  0.00  0.00    +0.000 OA
ATOM     39  C   UNL     1     108.973 130.422 136.487  0.00  0.00    +0.000 C 
BRANCH  39  40
ATOM     40  C   UNL     1     108.598 130.735 135.823  0.00  0.00    +0.000 C 
BRANCH  40  42
ATOM     41  O   UNL     1     107.470 130.573 136.080  0.00  0.00    +0.000 OA
ATOM     42  C   UNL     1     107.943 131.228 135.913  0.00  0.00    +0.000 C 
ATOM     43  C   UNL     1     108.414 131.884 135.746  0.00  0.00    +0.000 C 
BRANCH  42  44
ATOM     44  C   UNL     1     107.288 131.722 136.003  0.00  0.00    +0.000 C 
BRANCH  44  47
ATOM     45  O   UNL     1     105.981 131.450 135.494  0.00  0.00    +0.000 OA
ATOM     46  O   UNL     1     106.921 132.174 134.698  0.00  0.00    +0.000 OA
ATOM     47  C   UNL     1     106.730 131.782 135.398  0.00  0.00    +0.000 C 
ENDBRANCH  44  47
ENDBRANCH  42  44
ENDBRANCH  40  42
ENDBRANCH  39  40
ENDBRANCH  37  39
ENDBRANCH   9  37
TORSDOF 13
ENDMDL
MODEL 8
REMARK VINA RESULT:      -8.4      9.498     10.458
REMARK  Name = 74977947
REMARK  13 active torsions:
REMARK  status: ('A' for Active; 'I' for Inactive)
REMARK    1  A    between atoms: O_4  and  C_22
REMARK    2  A    between atoms: O_4  and  C_24
REMARK    3  A    between atoms: O_7  and  C_25
REMARK    4  A    between atoms: O_10  and  C_38
REMARK    5  A    between atoms: O_10  and  C_40
REMARK    6  A    between atoms: O_11  and  C_39
REMARK    7  A    between atoms: O_12  and  C_43
REMARK    8  A    between atoms: C_20  and  C_23
REMARK    9  A    between atoms: C_27  and  C_32
REMARK   10  A    between atoms: C_29  and  C_31
REMARK   11  A    between atoms: C_29  and  C_33
REMARK   12  A    between atoms: C_31  and  C_38
REMARK   13  A    between atoms: C_33  and  C_44
REMARK                            x       y       z     vdW  Elec       q    Type
REMARK                         _______ _______ _______ _____ _____    ______ ____
ROOT
ATOM      1  O   UNL     1     106.612 126.528 144.136  0.00  0.00    +0.000 OA
ATOM      2  O   UNL     1     107.451 129.219 143.477  0.00  0.00    +0.000 OA
ATOM      3  O   UNL     1     106.867 128.966 144.771  0.00  0.00    +0.000 OA
ATOM      4  C   UNL     1     106.349 126.792 144.911  0.00  0.00    +0.000 A 
ATOM      5  C   UNL     1     106.955 127.096 143.590  0.00  0.00    +0.000 A 
ATOM      6  C   UNL     1     107.038 127.890 143.800  0.00  0.00    +0.000 A 
ATOM      7  C   UNL     1     106.434 127.618 145.130  0.00  0.00    +0.000 A 
ATOM      8  C   UNL     1     107.206 126.838 142.848  0.00  0.00    +0.000 A 
ATOM      9  C   UNL     1     107.537 127.373 142.315  0.00  0.00    +0.000 A 
ATOM     10  C   UNL     1     106.781 128.171 144.570  0.00  0.00    +0.000 A 
ATOM     11  C   UNL     1     107.369 128.426 143.267  0.00  0.00    +0.000 A 
ATOM     12  C   UNL     1     107.619 128.167 142.525  0.00  0.00    +0.000 A 
ENDROOT
BRANCH   4  16
ATOM     13  C   UNL     1     105.355 125.178 146.504  0.00  0.00    +0.000 A 
ATOM     14  C   UNL     1     106.174 125.251 146.448  0.00  0.00    +0.000 A 
ATOM     15  C   UNL     1     104.866 125.643 146.028  0.00  0.00    +0.000 A 
ATOM     16  C   UNL     1     106.018 126.254 145.442  0.00  0.00    +0.000 A 
ATOM     17  C   UNL     1     106.506 125.789 145.917  0.00  0.00    +0.000 A 
ATOM     18  C   UNL     1     105.197 126.181 145.497  0.00  0.00    +0.000 A 
BRANCH  14  19
ATOM     19  O   UNL     1     106.663 124.786 146.924  0.00  0.00    +0.000 OA
ATOM     20  C   UNL     1     107.323 125.121 147.287  0.00  0.00    +0.000 C 
ENDBRANCH  14  19
BRANCH  13  21
ATOM     21  O   UNL     1     105.024 124.641 147.034  0.00  0.00    +0.000 OA
BRANCH  21  30
ATOM     22  O   UNL     1     104.439 123.691 146.141  0.00  0.00    +0.000 OA
ATOM     23  O   UNL     1     102.451 122.789 146.118  0.00  0.00    +0.000 OA
ATOM     24  O   UNL     1     102.334 123.762 147.444  0.00  0.00    +0.000 OA
ATOM     25  O   UNL     1     103.621 124.688 147.903  0.00  0.00    +0.000 OA
ATOM     26  C   UNL     1     103.094 123.252 146.346  0.00  0.00    +0.000 C 
ATOM     27  C   UNL     1     103.035 123.738 147.010  0.00  0.00    +0.000 C 
ATOM     28  C   UNL     1     103.795 123.228 145.912  0.00  0.00    +0.000 C 
ATOM     29  C   UNL     1     103.679 124.202 147.239  0.00  0.00    +0.000 C 
ATOM     30  C   UNL     1     104.380 124.178 146.805  0.00  0.00    +0.000 C 
BRANCH  28  32
ATOM     31  O   UNL     1     104.105 123.056 144.528  0.00  0.00    +0.000 OA
ATOM     32  C   UNL     1     103.854 122.741 145.249  0.00  0.00    +0.000 C 
ENDBRANCH  28  32
ENDBRANCH  21  30
ENDBRANCH  13  21
ENDBRANCH   4  16
BRANCH   8  33
ATOM     33  O   UNL     1     107.124 126.044 142.638  0.00  0.00    +0.000 OA
ATOM     34  C   UNL     1     106.421 125.777 142.299  0.00  0.00    +0.000 C 
ENDBRANCH   8  33
BRANCH  12  35
ATOM     35  O   UNL     1     107.951 128.702 141.992  0.00  0.00    +0.000 OA
ATOM     36  C   UNL     1     107.512 129.349 141.730  0.00  0.00    +0.000 C 
ENDBRANCH  12  35
BRANCH   9  37
ATOM     37  O   UNL     1     107.787 127.115 141.572  0.00  0.00    +0.000 OA
BRANCH  37  39
ATOM     38  O   UNL     1     109.166 127.115 141.949  0.00  0.00    +0.000 OA
ATOM     39  C   UNL     1     108.556 126.832 141.471  0.00  0.00    +0.000 C 
BRANCH  39  40
ATOM     40  C   UNL     1     108.713 126.266 140.893  0.00  0.00    +0.000 C 
BRANCH  40  42
ATOM     41  O   UNL     1     108.785 126.706 139.814  0.00  0.00    +0.000 OA
ATOM     42  C   UNL     1     109.324 126.387 140.352  0.00  0.00    +0.000 C 
ATOM     43  C   UNL     1     109.863 126.068 140.889  0.00  0.00    +0.000 C 
BRANCH  42  44
ATOM     44  C   UNL     1     109.935 126.508 139.811  0.00  0.00    +0.000 C 
BRANCH  44  47
ATOM     45  O   UNL     1     109.772 126.133 138.442  0.00  0.00    +0.000 OA
ATOM     46  O   UNL     1     110.463 125.265 139.343  0.00  0.00    +0.000 OA
ATOM     47  C   UNL     1     110.057 125.969 139.199  0.00  0.00    +0.000 C 
ENDBRANCH  44  47
ENDBRANCH  42  44
ENDBRANCH  40  42
ENDBRANCH  39  40
ENDBRANCH  37  39
ENDBRANCH   9  37
TORSDOF 13
ENDMDL
MODEL 9
REMARK VINA RESULT:      -8.4      2.719      3.240
REMARK  Name = 74977947
REMARK  13 active torsions:
REMARK  status: ('A' for Active; 'I' for Inactive)
REMARK    1  A    between atoms: O_4  and  C_22
REMARK    2  A    between atoms: O_4  and  C_24
REMARK    3  A    between atoms: O_7  and  C_25
REMARK    4  A    between atoms: O_10  and  C_38
REMARK    5  A    between atoms: O_10  and  C_40
REMARK    6  A    between atoms: O_11  and  C_39
REMARK    7  A    between atoms: O_12  and  C_43
REMARK    8  A    between atoms: C_20  and  C_23
REMARK    9  A    between atoms: C_27  and  C_32
REMARK   10  A    between atoms: C_29  and  C_31
REMARK   11  A    between atoms: C_29  and  C_33
REMARK   12  A    between atoms: C_31  and  C_38
REMARK   13  A    between atoms: C_33  and  C_44
REMARK                            x       y       z     vdW  Elec       q    Type
REMARK                         _______ _______ _______ _____ _____    ______ ____
ROOT
ATOM      1  O   UNL     1     111.357 129.086 138.761  0.00  0.00    +0.000 OA
ATOM      2  O   UNL     1     111.285 131.953 138.369  0.00  0.00    +0.000 OA
ATOM      3  O   UNL     1     112.478 131.228 138.008  0.00  0.00    +0.000 OA
ATOM      4  C   UNL     1     112.158 129.056 138.452  0.00  0.00    +0.000 A 
ATOM      5  C   UNL     1     110.950 129.841 138.810  0.00  0.00    +0.000 A 
ATOM      6  C   UNL     1     111.318 130.538 138.563  0.00  0.00    +0.000 A 
ATOM      7  C   UNL     1     112.541 129.781 138.196  0.00  0.00    +0.000 A 
ATOM      8  C   UNL     1     110.181 129.864 139.107  0.00  0.00    +0.000 A 
ATOM      9  C   UNL     1     109.780 130.583 139.159  0.00  0.00    +0.000 A 
ATOM     10  C   UNL     1     112.118 130.526 138.252  0.00  0.00    +0.000 A 
ATOM     11  C   UNL     1     110.917 131.257 138.615  0.00  0.00    +0.000 A 
ATOM     12  C   UNL     1     110.148 131.279 138.913  0.00  0.00    +0.000 A 
ENDROOT
BRANCH   4  16
ATOM     13  C   UNL     1     113.354 126.894 138.301  0.00  0.00    +0.000 A 
ATOM     14  C   UNL     1     113.242 127.253 139.034  0.00  0.00    +0.000 A 
ATOM     15  C   UNL     1     113.067 127.255 137.616  0.00  0.00    +0.000 A 
ATOM     16  C   UNL     1     112.557 128.336 138.401  0.00  0.00    +0.000 A 
ATOM     17  C   UNL     1     112.844 127.974 139.085  0.00  0.00    +0.000 A 
ATOM     18  C   UNL     1     112.668 127.976 137.667  0.00  0.00    +0.000 A 
BRANCH  14  19
ATOM     19  O   UNL     1     113.530 126.892 139.719  0.00  0.00    +0.000 OA
ATOM     20  C   UNL     1     113.685 127.345 140.390  0.00  0.00    +0.000 C 
ENDBRANCH  14  19
BRANCH  13  21
ATOM     21  O   UNL     1     113.752 126.174 138.250  0.00  0.00    +0.000 OA
BRANCH  21  30
ATOM     22  O   UNL     1     112.663 125.329 137.873  0.00  0.00    +0.000 OA
ATOM     23  O   UNL     1     112.537 123.742 136.380  0.00  0.00    +0.000 OA
ATOM     24  O   UNL     1     114.107 124.214 136.199  0.00  0.00    +0.000 OA
ATOM     25  O   UNL     1     114.715 125.430 137.134  0.00  0.00    +0.000 OA
ATOM     26  C   UNL     1     112.841 124.350 136.848  0.00  0.00    +0.000 C 
ATOM     27  C   UNL     1     113.626 124.586 136.757  0.00  0.00    +0.000 C 
ATOM     28  C   UNL     1     112.360 124.721 137.406  0.00  0.00    +0.000 C 
ATOM     29  C   UNL     1     113.930 125.194 137.225  0.00  0.00    +0.000 C 
ATOM     30  C   UNL     1     113.449 125.566 137.783  0.00  0.00    +0.000 C 
BRANCH  28  32
ATOM     31  O   UNL     1     111.220 124.510 138.242  0.00  0.00    +0.000 OA
ATOM     32  C   UNL     1     111.575 124.485 137.497  0.00  0.00    +0.000 C 
ENDBRANCH  28  32
ENDBRANCH  21  30
ENDBRANCH  13  21
ENDBRANCH   4  16
BRANCH   8  33
ATOM     33  O   UNL     1     109.812 129.168 139.353  0.00  0.00    +0.000 OA
ATOM     34  C   UNL     1     109.447 128.677 138.801  0.00  0.00    +0.000 C 
ENDBRANCH   8  33
BRANCH  12  35
ATOM     35  O   UNL     1     109.747 131.998 138.964  0.00  0.00    +0.000 OA
ATOM     36  C   UNL     1     109.572 132.423 138.280  0.00  0.00    +0.000 C 
ENDBRANCH  12  35
BRANCH   9  37
ATOM     37  O   UNL     1     109.010 130.607 139.456  0.00  0.00    +0.000 OA
BRANCH  37  39
ATOM     38  O   UNL     1     109.363 131.202 140.707  0.00  0.00    +0.000 OA
ATOM     39  C   UNL     1     108.884 130.694 140.267  0.00  0.00    +0.000 C 
BRANCH  39  40
ATOM     40  C   UNL     1     108.280 130.272 140.637  0.00  0.00    +0.000 C 
BRANCH  40  42
ATOM     41  O   UNL     1     107.325 130.935 140.522  0.00  0.00    +0.000 OA
ATOM     42  C   UNL     1     107.769 130.656 141.159  0.00  0.00    +0.000 C 
ATOM     43  C   UNL     1     108.212 130.377 141.797  0.00  0.00    +0.000 C 
BRANCH  42  44
ATOM     44  C   UNL     1     107.259 131.039 141.682  0.00  0.00    +0.000 C 
BRANCH  44  47
ATOM     45  O   UNL     1     106.517 130.247 142.612  0.00  0.00    +0.000 OA
ATOM     46  O   UNL     1     105.882 130.747 141.433  0.00  0.00    +0.000 OA
ATOM     47  C   UNL     1     106.553 130.678 141.909  0.00  0.00    +0.000 C 
ENDBRANCH  44  47
ENDBRANCH  42  44
ENDBRANCH  40  42
ENDBRANCH  39  40
ENDBRANCH  37  39
ENDBRANCH   9  37
TORSDOF 13
ENDMDL
MODEL 10
REMARK VINA RESULT:      -8.4      3.366      5.012
REMARK  Name = 74977947
REMARK  13 active torsions:
REMARK  status: ('A' for Active; 'I' for Inactive)
REMARK    1  A    between atoms: O_4  and  C_22
REMARK    2  A    between atoms: O_4  and  C_24
REMARK    3  A    between atoms: O_7  and  C_25
REMARK    4  A    between atoms: O_10  and  C_38
REMARK    5  A    between atoms: O_10  and  C_40
REMARK    6  A    between atoms: O_11  and  C_39
REMARK    7  A    between atoms: O_12  and  C_43
REMARK    8  A    between atoms: C_20  and  C_23
REMARK    9  A    between atoms: C_27  and  C_32
REMARK   10  A    between atoms: C_29  and  C_31
REMARK   11  A    between atoms: C_29  and  C_33
REMARK   12  A    between atoms: C_31  and  C_38
REMARK   13  A    between atoms: C_33  and  C_44
REMARK                            x       y       z     vdW  Elec       q    Type
REMARK                         _______ _______ _______ _____ _____    ______ ____
ROOT
ATOM      1  O   UNL     1     111.276 128.806 139.863  0.00  0.00    +0.000 OA
ATOM      2  O   UNL     1     108.810 130.289 140.180  0.00  0.00    +0.000 OA
ATOM      3  O   UNL     1     109.003 129.500 138.988  0.00  0.00    +0.000 OA
ATOM      4  C   UNL     1     111.008 128.508 139.102  0.00  0.00    +0.000 A 
ATOM      5  C   UNL     1     110.769 129.333 140.313  0.00  0.00    +0.000 A 
ATOM      6  C   UNL     1     110.028 129.558 140.026  0.00  0.00    +0.000 A 
ATOM      7  C   UNL     1     110.238 128.742 138.803  0.00  0.00    +0.000 A 
ATOM      8  C   UNL     1     111.031 129.615 141.043  0.00  0.00    +0.000 A 
ATOM      9  C   UNL     1     110.553 130.122 141.485  0.00  0.00    +0.000 A 
ATOM     10  C   UNL     1     109.745 129.270 139.267  0.00  0.00    +0.000 A 
ATOM     11  C   UNL     1     109.550 130.065 140.468  0.00  0.00    +0.000 A 
ATOM     12  C   UNL     1     109.813 130.346 141.197  0.00  0.00    +0.000 A 
ENDROOT
BRANCH   4  16
ATOM     13  C   UNL     1     112.449 126.987 137.783  0.00  0.00    +0.000 A 
ATOM     14  C   UNL     1     112.478 127.801 137.652  0.00  0.00    +0.000 A 
ATOM     15  C   UNL     1     111.938 126.680 138.354  0.00  0.00    +0.000 A 
ATOM     16  C   UNL     1     111.488 128.002 138.662  0.00  0.00    +0.000 A 
ATOM     17  C   UNL     1     111.998 128.308 138.091  0.00  0.00    +0.000 A 
ATOM     18  C   UNL     1     111.458 127.187 138.794  0.00  0.00    +0.000 A 
BRANCH  14  19
ATOM     19  O   UNL     1     112.989 128.109 137.080  0.00  0.00    +0.000 OA
ATOM     20  C   UNL     1     113.265 128.883 137.148  0.00  0.00    +0.000 C 
ENDBRANCH  14  19
BRANCH  13  21
ATOM     21  O   UNL     1     112.929 126.481 137.343  0.00  0.00    +0.000 OA
BRANCH  21  30
ATOM     22  O   UNL     1     111.932 125.807 136.572  0.00  0.00    +0.000 OA
ATOM     23  O   UNL     1     111.682 123.690 136.100  0.00  0.00    +0.000 OA
ATOM     24  O   UNL     1     113.050 123.644 137.020  0.00  0.00    +0.000 OA
ATOM     25  O   UNL     1     113.674 125.039 137.642  0.00  0.00    +0.000 OA
ATOM     26  C   UNL     1     111.994 124.388 136.411  0.00  0.00    +0.000 C 
ATOM     27  C   UNL     1     112.678 124.364 136.871  0.00  0.00    +0.000 C 
ATOM     28  C   UNL     1     111.621 125.109 136.262  0.00  0.00    +0.000 C 
ATOM     29  C   UNL     1     112.990 125.063 137.182  0.00  0.00    +0.000 C 
ATOM     30  C   UNL     1     112.617 125.783 137.033  0.00  0.00    +0.000 C 
BRANCH  28  32
ATOM     31  O   UNL     1     110.854 125.708 135.215  0.00  0.00    +0.000 OA
ATOM     32  C   UNL     1     110.937 125.133 135.802  0.00  0.00    +0.000 C 
ENDBRANCH  28  32
ENDBRANCH  21  30
ENDBRANCH  13  21
ENDBRANCH   4  16
BRANCH   8  33
ATOM     33  O   UNL     1     111.771 129.391 141.331  0.00  0.00    +0.000 OA
ATOM     34  C   UNL     1     111.848 128.703 141.778  0.00  0.00    +0.000 C 
ENDBRANCH   8  33
BRANCH  12  35
ATOM     35  O   UNL     1     109.335 130.853 141.639  0.00  0.00    +0.000 OA
ATOM     36  C   UNL     1     108.588 130.606 141.884  0.00  0.00    +0.000 C 
ENDBRANCH  12  35
BRANCH   9  37
ATOM     37  O   UNL     1     110.814 130.405 142.214  0.00  0.00    +0.000 OA
BRANCH  37  39
ATOM     38  O   UNL     1     111.629 131.423 141.630  0.00  0.00    +0.000 OA
ATOM     39  C   UNL     1     111.181 131.142 142.264  0.00  0.00    +0.000 C 
BRANCH  39  40
ATOM     40  C   UNL     1     111.099 131.598 142.946  0.00  0.00    +0.000 C 
BRANCH  40  42
ATOM     41  O   UNL     1     111.616 132.590 142.611  0.00  0.00    +0.000 OA
ATOM     42  C   UNL     1     111.735 132.047 143.221  0.00  0.00    +0.000 C 
ATOM     43  C   UNL     1     111.854 131.504 143.831  0.00  0.00    +0.000 C 
BRANCH  42  44
ATOM     44  C   UNL     1     112.370 132.495 143.496  0.00  0.00    +0.000 C 
BRANCH  44  47
ATOM     45  O   UNL     1     112.495 132.892 144.864  0.00  0.00    +0.000 OA
ATOM     46  O   UNL     1     111.894 133.776 143.916  0.00  0.00    +0.000 OA
ATOM     47  C   UNL     1     112.253 133.054 144.092  0.00  0.00    +0.000 C 
ENDBRANCH  44  47
ENDBRANCH  42  44
ENDBRANCH  40  42
ENDBRANCH  39  40
ENDBRANCH  37  39
ENDBRANCH   9  37
TORSDOF 13
ENDMDL
