MODEL 1
REMARK VINA RESULT:      -9.6      0.000      0.000
REMARK  Name = 5471129
REMARK  9 active torsions:
REMARK  status: ('A' for Active; 'I' for Inactive)
REMARK    1  A    between atoms: O_3  and  C_22
REMARK    2  A    between atoms: O_3  and  C_28
REMARK    3  A    between atoms: O_4  and  C_25
REMARK    4  A    between atoms: O_4  and  C_30
REMARK    5  A    between atoms: O_15  and  C_45
REMARK    6  A    between atoms: C_19  and  C_26
REMARK    7  A    between atoms: C_29  and  C_37
REMARK    8  A    between atoms: C_35  and  C_38
REMARK    9  A    between atoms: C_37  and  C_39
REMARK                            x       y       z     vdW  Elec       q    Type
REMARK                         _______ _______ _______ _____ _____    ______ ____
ROOT
ATOM      1  O   UNL     1     112.501 128.136 137.759  0.00  0.00    +0.000 OA
ATOM      2  O   UNL     1     110.912 129.753 139.550  0.00  0.00    +0.000 OA
ATOM      3  O   UNL     1     111.289 128.406 139.901  0.00  0.00    +0.000 OA
ATOM      4  C   UNL     1     111.753 130.229 137.530  0.00  0.00    +0.000 A 
ATOM      5  C   UNL     1     112.149 129.487 137.357  0.00  0.00    +0.000 A 
ATOM      6  C   UNL     1     112.075 127.605 139.016  0.00  0.00    +0.000 A 
ATOM      7  C   UNL     1     112.119 128.847 137.930  0.00  0.00    +0.000 A 
ATOM      8  C   UNL     1     111.715 128.937 138.645  0.00  0.00    +0.000 A 
ATOM      9  C   UNL     1     111.693 128.316 139.187  0.00  0.00    +0.000 A 
ATOM     10  C   UNL     1     111.333 130.323 138.273  0.00  0.00    +0.000 A 
ATOM     11  C   UNL     1     112.479 127.515 138.302  0.00  0.00    +0.000 A 
ATOM     12  C   UNL     1     111.313 129.672 138.834  0.00  0.00    +0.000 A 
ENDROOT
BRANCH  11  13
ATOM     13  C   UNL     1     112.861 126.804 138.131  0.00  0.00    +0.000 A 
ATOM     14  C   UNL     1     113.564 126.611 138.516  0.00  0.00    +0.000 A 
ATOM     15  C   UNL     1     112.539 126.286 137.575  0.00  0.00    +0.000 A 
ATOM     16  C   UNL     1     113.945 125.900 138.345  0.00  0.00    +0.000 A 
ATOM     17  C   UNL     1     112.920 125.576 137.404  0.00  0.00    +0.000 A 
ATOM     18  C   UNL     1     113.624 125.382 137.789  0.00  0.00    +0.000 A 
BRANCH  18  19
ATOM     19  O   UNL     1     114.006 124.671 137.618  0.00  0.00    +0.000 OA
ATOM     20  C   UNL     1     114.720 124.675 137.205  0.00  0.00    +0.000 C 
ENDBRANCH  18  19
ENDBRANCH  11  13
BRANCH   4  21
ATOM     21  O   UNL     1     111.777 130.850 136.985  0.00  0.00    +0.000 OA
BRANCH  21  30
ATOM     22  O   UNL     1     110.425 130.862 136.523  0.00  0.00    +0.000 OA
ATOM     23  O   UNL     1     110.347 133.317 136.818  0.00  0.00    +0.000 OA
ATOM     24  O   UNL     1     109.022 132.513 136.257  0.00  0.00    +0.000 OA
ATOM     25  O   UNL     1     111.725 132.487 137.182  0.00  0.00    +0.000 OA
ATOM     26  C   UNL     1     110.373 132.500 136.720  0.00  0.00    +0.000 C 
ATOM     27  C   UNL     1     109.711 132.096 136.439  0.00  0.00    +0.000 C 
ATOM     28  C   UNL     1     111.063 132.083 136.902  0.00  0.00    +0.000 C 
ATOM     29  C   UNL     1     109.737 131.278 136.341  0.00  0.00    +0.000 C 
ATOM     30  C   UNL     1     111.088 131.265 136.803  0.00  0.00    +0.000 C 
BRANCH  29  32
ATOM     31  O   UNL     1     109.163 130.263 135.515  0.00  0.00    +0.000 OA
ATOM     32  C   UNL     1     109.074 130.875 136.060  0.00  0.00    +0.000 C 
ENDBRANCH  29  32
ENDBRANCH  21  30
ENDBRANCH   4  21
BRANCH   6  33
ATOM     33  O   UNL     1     112.053 126.984 139.558  0.00  0.00    +0.000 OA
BRANCH  33  42
ATOM     34  O   UNL     1     110.703 126.619 139.269  0.00  0.00    +0.000 OA
ATOM     35  O   UNL     1     110.405 125.861 141.606  0.00  0.00    +0.000 OA
ATOM     36  O   UNL     1     109.154 125.748 140.536  0.00  0.00    +0.000 OA
ATOM     37  O   UNL     1     111.855 126.479 141.117  0.00  0.00    +0.000 OA
ATOM     38  C   UNL     1     110.504 126.113 140.827  0.00  0.00    +0.000 C 
ATOM     39  C   UNL     1     109.879 126.057 140.292  0.00  0.00    +0.000 C 
ATOM     40  C   UNL     1     111.229 126.422 140.583  0.00  0.00    +0.000 C 
ATOM     41  C   UNL     1     109.978 126.310 139.513  0.00  0.00    +0.000 C 
ATOM     42  C   UNL     1     111.328 126.675 139.804  0.00  0.00    +0.000 C 
ATOM     43  C   UNL     1     109.352 126.254 138.978  0.00  0.00    +0.000 C 
ENDBRANCH  33  42
ENDBRANCH   6  33
BRANCH   5  44
ATOM     44  C   UNL     1     112.555 129.388 136.647  0.00  0.00    +0.000 C 
BRANCH  44  45
ATOM     45  C   UNL     1     113.338 129.641 136.579  0.00  0.00    +0.000 C 
ATOM     46  C   UNL     1     113.751 129.523 135.876  0.00  0.00    +0.000 C 
ATOM     47  C   UNL     1     114.534 129.775 135.808  0.00  0.00    +0.000 C 
ATOM     48  C   UNL     1     113.382 129.151 135.238  0.00  0.00    +0.000 C 
ENDBRANCH  44  45
ENDBRANCH   5  44
TORSDOF 9
ENDMDL
MODEL 2
REMARK VINA RESULT:      -9.5      2.256      4.445
REMARK  Name = 5471129
REMARK  9 active torsions:
REMARK  status: ('A' for Active; 'I' for Inactive)
REMARK    1  A    between atoms: O_3  and  C_22
REMARK    2  A    between atoms: O_3  and  C_28
REMARK    3  A    between atoms: O_4  and  C_25
REMARK    4  A    between atoms: O_4  and  C_30
REMARK    5  A    between atoms: O_15  and  C_45
REMARK    6  A    between atoms: C_19  and  C_26
REMARK    7  A    between atoms: C_29  and  C_37
REMARK    8  A    between atoms: C_35  and  C_38
REMARK    9  A    between atoms: C_37  and  C_39
REMARK                            x       y       z     vdW  Elec       q    Type
REMARK                         _______ _______ _______ _____ _____    ______ ____
ROOT
ATOM      1  O   UNL     1     112.716 128.136 138.691  0.00  0.00    +0.000 OA
ATOM      2  O   UNL     1     112.198 130.975 138.555  0.00  0.00    +0.000 OA
ATOM      3  O   UNL     1     112.066 130.138 137.388  0.00  0.00    +0.000 OA
ATOM      4  C   UNL     1     112.825 129.698 140.285  0.00  0.00    +0.000 A 
ATOM      5  C   UNL     1     112.864 128.933 139.896  0.00  0.00    +0.000 A 
ATOM      6  C   UNL     1     112.322 128.733 137.455  0.00  0.00    +0.000 A 
ATOM      7  C   UNL     1     112.677 128.873 139.060  0.00  0.00    +0.000 A 
ATOM      8  C   UNL     1     112.460 129.540 138.625  0.00  0.00    +0.000 A 
ATOM      9  C   UNL     1     112.282 129.470 137.822  0.00  0.00    +0.000 A 
ATOM     10  C   UNL     1     112.599 130.393 139.833  0.00  0.00    +0.000 A 
ATOM     11  C   UNL     1     112.538 128.066 137.889  0.00  0.00    +0.000 A 
ATOM     12  C   UNL     1     112.416 130.313 138.998  0.00  0.00    +0.000 A 
ENDROOT
BRANCH  11  13
ATOM     13  C   UNL     1     112.577 127.329 137.520  0.00  0.00    +0.000 A 
ATOM     14  C   UNL     1     113.208 127.151 137.019  0.00  0.00    +0.000 A 
ATOM     15  C   UNL     1     111.986 126.769 137.653  0.00  0.00    +0.000 A 
ATOM     16  C   UNL     1     113.246 126.414 136.651  0.00  0.00    +0.000 A 
ATOM     17  C   UNL     1     112.024 126.032 137.285  0.00  0.00    +0.000 A 
ATOM     18  C   UNL     1     112.655 125.855 136.783  0.00  0.00    +0.000 A 
BRANCH  18  19
ATOM     19  O   UNL     1     112.694 125.118 136.415  0.00  0.00    +0.000 OA
ATOM     20  C   UNL     1     113.333 124.616 136.562  0.00  0.00    +0.000 C 
ENDBRANCH  18  19
ENDBRANCH  11  13
BRANCH   4  21
ATOM     21  O   UNL     1     113.003 129.765 141.089  0.00  0.00    +0.000 OA
BRANCH  21  30
ATOM     22  O   UNL     1     111.735 130.084 141.666  0.00  0.00    +0.000 OA
ATOM     23  O   UNL     1     112.758 131.998 142.854  0.00  0.00    +0.000 OA
ATOM     24  O   UNL     1     111.151 131.679 143.035  0.00  0.00    +0.000 OA
ATOM     25  O   UNL     1     113.685 131.042 141.881  0.00  0.00    +0.000 OA
ATOM     26  C   UNL     1     112.418 131.361 142.459  0.00  0.00    +0.000 C 
ATOM     27  C   UNL     1     111.613 131.201 142.549  0.00  0.00    +0.000 C 
ATOM     28  C   UNL     1     112.881 130.881 141.971  0.00  0.00    +0.000 C 
ATOM     29  C   UNL     1     111.272 130.562 142.152  0.00  0.00    +0.000 C 
ATOM     30  C   UNL     1     112.540 130.243 141.575  0.00  0.00    +0.000 C 
BRANCH  29  32
ATOM     31  O   UNL     1     110.203 129.622 142.276  0.00  0.00    +0.000 OA
ATOM     32  C   UNL     1     110.469 130.403 142.243  0.00  0.00    +0.000 C 
ENDBRANCH  29  32
ENDBRANCH  21  30
ENDBRANCH   4  21
BRANCH   6  33
ATOM     33  O   UNL     1     112.144 128.663 136.652  0.00  0.00    +0.000 OA
BRANCH  33  42
ATOM     34  O   UNL     1     110.731 128.764 136.830  0.00  0.00    +0.000 OA
ATOM     35  O   UNL     1     110.527 129.844 134.612  0.00  0.00    +0.000 OA
ATOM     36  O   UNL     1     109.181 129.585 135.530  0.00  0.00    +0.000 OA
ATOM     37  O   UNL     1     112.009 129.383 135.173  0.00  0.00    +0.000 OA
ATOM     38  C   UNL     1     110.595 129.484 135.351  0.00  0.00    +0.000 C 
ATOM     39  C   UNL     1     109.922 129.354 135.810  0.00  0.00    +0.000 C 
ATOM     40  C   UNL     1     111.336 129.254 135.631  0.00  0.00    +0.000 C 
ATOM     41  C   UNL     1     109.990 128.995 136.550  0.00  0.00    +0.000 C 
ATOM     42  C   UNL     1     111.404 128.894 136.371  0.00  0.00    +0.000 C 
ATOM     43  C   UNL     1     109.316 128.865 137.009  0.00  0.00    +0.000 C 
ENDBRANCH  33  42
ENDBRANCH   6  33
BRANCH   5  44
ATOM     44  C   UNL     1     113.080 128.261 140.323  0.00  0.00    +0.000 C 
BRANCH  44  45
ATOM     45  C   UNL     1     113.877 128.070 140.418  0.00  0.00    +0.000 C 
ATOM     46  C   UNL     1     114.091 127.375 140.806  0.00  0.00    +0.000 C 
ATOM     47  C   UNL     1     114.888 127.184 140.901  0.00  0.00    +0.000 C 
ATOM     48  C   UNL     1     113.509 126.869 141.099  0.00  0.00    +0.000 C 
ENDBRANCH  44  45
ENDBRANCH   5  44
TORSDOF 9
ENDMDL
MODEL 3
REMARK VINA RESULT:      -9.4      1.630      5.222
REMARK  Name = 5471129
REMARK  9 active torsions:
REMARK  status: ('A' for Active; 'I' for Inactive)
REMARK    1  A    between atoms: O_3  and  C_22
REMARK    2  A    between atoms: O_3  and  C_28
REMARK    3  A    between atoms: O_4  and  C_25
REMARK    4  A    between atoms: O_4  and  C_30
REMARK    5  A    between atoms: O_15  and  C_45
REMARK    6  A    between atoms: C_19  and  C_26
REMARK    7  A    between atoms: C_29  and  C_37
REMARK    8  A    between atoms: C_35  and  C_38
REMARK    9  A    between atoms: C_37  and  C_39
REMARK                            x       y       z     vdW  Elec       q    Type
REMARK                         _______ _______ _______ _____ _____    ______ ____
ROOT
ATOM      1  O   UNL     1     112.174 129.171 137.382  0.00  0.00    +0.000 OA
ATOM      2  O   UNL     1     112.187 127.094 139.391  0.00  0.00    +0.000 OA
ATOM      3  O   UNL     1     111.626 128.394 139.668  0.00  0.00    +0.000 OA
ATOM      4  C   UNL     1     112.950 127.078 137.285  0.00  0.00    +0.000 A 
ATOM      5  C   UNL     1     112.750 127.880 137.050  0.00  0.00    +0.000 A 
ATOM      6  C   UNL     1     111.619 129.422 138.675  0.00  0.00    +0.000 A 
ATOM      7  C   UNL     1     112.363 128.402 137.612  0.00  0.00    +0.000 A 
ATOM      8  C   UNL     1     112.181 128.143 138.375  0.00  0.00    +0.000 A 
ATOM      9  C   UNL     1     111.809 128.653 138.906  0.00  0.00    +0.000 A 
ATOM     10  C   UNL     1     112.760 126.808 138.078  0.00  0.00    +0.000 A 
ATOM     11  C   UNL     1     111.802 129.681 137.913  0.00  0.00    +0.000 A 
ATOM     12  C   UNL     1     112.373 127.344 138.626  0.00  0.00    +0.000 A 
ENDROOT
BRANCH  11  13
ATOM     13  C   UNL     1     111.612 130.450 137.682  0.00  0.00    +0.000 A 
ATOM     14  C   UNL     1     112.201 131.026 137.644  0.00  0.00    +0.000 A 
ATOM     15  C   UNL     1     110.833 130.643 137.490  0.00  0.00    +0.000 A 
ATOM     16  C   UNL     1     112.011 131.795 137.413  0.00  0.00    +0.000 A 
ATOM     17  C   UNL     1     110.643 131.411 137.260  0.00  0.00    +0.000 A 
ATOM     18  C   UNL     1     111.232 131.988 137.221  0.00  0.00    +0.000 A 
BRANCH  18  19
ATOM     19  O   UNL     1     111.043 132.757 136.991  0.00  0.00    +0.000 OA
ATOM     20  C   UNL     1     110.407 133.148 137.342  0.00  0.00    +0.000 C 
ENDBRANCH  18  19
ENDBRANCH  11  13
BRANCH   4  21
ATOM     21  O   UNL     1     113.323 126.569 136.752  0.00  0.00    +0.000 OA
BRANCH  21  30
ATOM     22  O   UNL     1     112.283 125.634 136.457  0.00  0.00    +0.000 OA
ATOM     23  O   UNL     1     113.845 123.763 136.880  0.00  0.00    +0.000 OA
ATOM     24  O   UNL     1     112.285 123.452 136.445  0.00  0.00    +0.000 OA
ATOM     25  O   UNL     1     114.364 125.321 137.034  0.00  0.00    +0.000 OA
ATOM     26  C   UNL     1     113.324 124.386 136.739  0.00  0.00    +0.000 C 
ATOM     27  C   UNL     1     112.544 124.232 136.521  0.00  0.00    +0.000 C 
ATOM     28  C   UNL     1     113.584 125.166 136.816  0.00  0.00    +0.000 C 
ATOM     29  C   UNL     1     112.023 124.856 136.380  0.00  0.00    +0.000 C 
ATOM     30  C   UNL     1     113.063 125.790 136.675  0.00  0.00    +0.000 C 
BRANCH  29  32
ATOM     31  O   UNL     1     110.877 125.158 135.582  0.00  0.00    +0.000 OA
ATOM     32  C   UNL     1     111.243 124.700 136.163  0.00  0.00    +0.000 C 
ENDBRANCH  29  32
ENDBRANCH  21  30
ENDBRANCH   4  21
BRANCH   6  33
ATOM     33  O   UNL     1     111.248 129.932 139.206  0.00  0.00    +0.000 OA
BRANCH  33  42
ATOM     34  O   UNL     1     112.420 130.130 139.996  0.00  0.00    +0.000 OA
ATOM     35  O   UNL     1     111.010 130.535 141.990  0.00  0.00    +0.000 OA
ATOM     36  O   UNL     1     112.654 130.599 142.115  0.00  0.00    +0.000 OA
ATOM     37  O   UNL     1     110.307 130.202 140.534  0.00  0.00    +0.000 OA
ATOM     38  C   UNL     1     111.480 130.400 141.325  0.00  0.00    +0.000 C 
ATOM     39  C   UNL     1     112.302 130.432 141.388  0.00  0.00    +0.000 C 
ATOM     40  C   UNL     1     111.128 130.234 140.598  0.00  0.00    +0.000 C 
ATOM     41  C   UNL     1     112.772 130.297 140.723  0.00  0.00    +0.000 C 
ATOM     42  C   UNL     1     111.598 130.099 139.933  0.00  0.00    +0.000 C 
ATOM     43  C   UNL     1     113.594 130.329 140.786  0.00  0.00    +0.000 C 
ENDBRANCH  33  42
ENDBRANCH   6  33
BRANCH   5  44
ATOM     44  C   UNL     1     112.929 128.147 136.291  0.00  0.00    +0.000 C 
BRANCH  44  45
ATOM     45  C   UNL     1     113.681 128.443 136.123  0.00  0.00    +0.000 C 
ATOM     46  C   UNL     1     113.840 128.771 135.384  0.00  0.00    +0.000 C 
ATOM     47  C   UNL     1     114.591 129.067 135.216  0.00  0.00    +0.000 C 
ATOM     48  C   UNL     1     113.247 128.803 134.810  0.00  0.00    +0.000 C 
ENDBRANCH  44  45
ENDBRANCH   5  44
TORSDOF 9
ENDMDL
MODEL 4
REMARK VINA RESULT:      -9.3      1.995      3.974
REMARK  Name = 5471129
REMARK  9 active torsions:
REMARK  status: ('A' for Active; 'I' for Inactive)
REMARK    1  A    between atoms: O_3  and  C_22
REMARK    2  A    between atoms: O_3  and  C_28
REMARK    3  A    between atoms: O_4  and  C_25
REMARK    4  A    between atoms: O_4  and  C_30
REMARK    5  A    between atoms: O_15  and  C_45
REMARK    6  A    between atoms: C_19  and  C_26
REMARK    7  A    between atoms: C_29  and  C_37
REMARK    8  A    between atoms: C_35  and  C_38
REMARK    9  A    between atoms: C_37  and  C_39
REMARK                            x       y       z     vdW  Elec       q    Type
REMARK                         _______ _______ _______ _____ _____    ______ ____
ROOT
ATOM      1  O   UNL     1     111.679 129.452 137.170  0.00  0.00    +0.000 OA
ATOM      2  O   UNL     1     110.227 127.668 138.918  0.00  0.00    +0.000 OA
ATOM      3  O   UNL     1     111.271 127.175 138.053  0.00  0.00    +0.000 OA
ATOM      4  C   UNL     1     110.028 129.878 138.614  0.00  0.00    +0.000 A 
ATOM      5  C   UNL     1     110.637 130.000 138.020  0.00  0.00    +0.000 A 
ATOM      6  C   UNL     1     111.990 128.057 137.189  0.00  0.00    +0.000 A 
ATOM      7  C   UNL     1     111.096 129.329 137.741  0.00  0.00    +0.000 A 
ATOM      8  C   UNL     1     110.960 128.570 138.035  0.00  0.00    +0.000 A 
ATOM      9  C   UNL     1     111.407 127.934 137.759  0.00  0.00    +0.000 A 
ATOM     10  C   UNL     1     109.886 129.088 138.921  0.00  0.00    +0.000 A 
ATOM     11  C   UNL     1     112.126 128.816 136.894  0.00  0.00    +0.000 A 
ATOM     12  C   UNL     1     110.355 128.430 138.629  0.00  0.00    +0.000 A 
ENDROOT
BRANCH  11  13
ATOM     13  C   UNL     1     112.710 128.938 136.324  0.00  0.00    +0.000 A 
ATOM     14  C   UNL     1     112.498 129.039 135.532  0.00  0.00    +0.000 A 
ATOM     15  C   UNL     1     113.504 128.960 136.544  0.00  0.00    +0.000 A 
ATOM     16  C   UNL     1     113.082 129.161 134.963  0.00  0.00    +0.000 A 
ATOM     17  C   UNL     1     114.088 129.082 135.975  0.00  0.00    +0.000 A 
ATOM     18  C   UNL     1     113.877 129.183 135.183  0.00  0.00    +0.000 A 
BRANCH  18  19
ATOM     19  O   UNL     1     114.460 129.305 134.613  0.00  0.00    +0.000 OA
ATOM     20  C   UNL     1     115.020 129.902 134.717  0.00  0.00    +0.000 C 
ENDBRANCH  18  19
ENDBRANCH  11  13
BRANCH   4  21
ATOM     21  O   UNL     1     109.582 130.516 138.889  0.00  0.00    +0.000 OA
BRANCH  21  30
ATOM     22  O   UNL     1     110.110 130.660 140.209  0.00  0.00    +0.000 OA
ATOM     23  O   UNL     1     107.813 130.843 141.108  0.00  0.00    +0.000 OA
ATOM     24  O   UNL     1     109.106 130.925 142.128  0.00  0.00    +0.000 OA
ATOM     25  O   UNL     1     108.050 130.638 139.489  0.00  0.00    +0.000 OA
ATOM     26  C   UNL     1     108.578 130.782 140.809  0.00  0.00    +0.000 C 
ATOM     27  C   UNL     1     109.225 130.823 141.318  0.00  0.00    +0.000 C 
ATOM     28  C   UNL     1     108.697 130.679 139.998  0.00  0.00    +0.000 C 
ATOM     29  C   UNL     1     109.992 130.762 141.018  0.00  0.00    +0.000 C 
ATOM     30  C   UNL     1     109.463 130.618 139.698  0.00  0.00    +0.000 C 
BRANCH  29  32
ATOM     31  O   UNL     1     111.293 131.264 141.329  0.00  0.00    +0.000 OA
ATOM     32  C   UNL     1     110.638 130.803 141.528  0.00  0.00    +0.000 C 
ENDBRANCH  29  32
ENDBRANCH  21  30
ENDBRANCH   4  21
BRANCH   6  33
ATOM     33  O   UNL     1     112.437 127.421 136.913  0.00  0.00    +0.000 OA
BRANCH  33  42
ATOM     34  O   UNL     1     111.383 126.885 136.112  0.00  0.00    +0.000 OA
ATOM     35  O   UNL     1     112.301 124.608 136.425  0.00  0.00    +0.000 OA
ATOM     36  O   UNL     1     110.940 124.832 135.519  0.00  0.00    +0.000 OA
ATOM     37  O   UNL     1     113.050 125.903 137.122  0.00  0.00    +0.000 OA
ATOM     38  C   UNL     1     111.995 125.367 136.321  0.00  0.00    +0.000 C 
ATOM     39  C   UNL     1     111.315 125.479 135.868  0.00  0.00    +0.000 C 
ATOM     40  C   UNL     1     112.370 126.014 136.669  0.00  0.00    +0.000 C 
ATOM     41  C   UNL     1     111.009 126.238 135.763  0.00  0.00    +0.000 C 
ATOM     42  C   UNL     1     112.064 126.773 136.565  0.00  0.00    +0.000 C 
ATOM     43  C   UNL     1     110.328 126.350 135.310  0.00  0.00    +0.000 C 
ENDBRANCH  33  42
ENDBRANCH   6  33
BRANCH   5  44
ATOM     44  C   UNL     1     110.780 130.754 137.720  0.00  0.00    +0.000 C 
BRANCH  44  45
ATOM     45  C   UNL     1     110.304 131.057 137.118  0.00  0.00    +0.000 C 
ATOM     46  C   UNL     1     110.448 131.810 136.816  0.00  0.00    +0.000 C 
ATOM     47  C   UNL     1     109.973 132.113 136.214  0.00  0.00    +0.000 C 
ATOM     48  C   UNL     1     111.069 132.263 137.117  0.00  0.00    +0.000 C 
ENDBRANCH  44  45
ENDBRANCH   5  44
TORSDOF 9
ENDMDL
MODEL 5
REMARK VINA RESULT:      -9.3      1.417      2.090
REMARK  Name = 5471129
REMARK  9 active torsions:
REMARK  status: ('A' for Active; 'I' for Inactive)
REMARK    1  A    between atoms: O_3  and  C_22
REMARK    2  A    between atoms: O_3  and  C_28
REMARK    3  A    between atoms: O_4  and  C_25
REMARK    4  A    between atoms: O_4  and  C_30
REMARK    5  A    between atoms: O_15  and  C_45
REMARK    6  A    between atoms: C_19  and  C_26
REMARK    7  A    between atoms: C_29  and  C_37
REMARK    8  A    between atoms: C_35  and  C_38
REMARK    9  A    between atoms: C_37  and  C_39
REMARK                            x       y       z     vdW  Elec       q    Type
REMARK                         _______ _______ _______ _____ _____    ______ ____
ROOT
ATOM      1  O   UNL     1     111.746 128.250 138.001  0.00  0.00    +0.000 OA
ATOM      2  O   UNL     1     108.958 127.769 137.412  0.00  0.00    +0.000 OA
ATOM      3  O   UNL     1     109.667 126.957 138.371  0.00  0.00    +0.000 OA
ATOM      4  C   UNL     1     110.368 129.304 136.593  0.00  0.00    +0.000 A 
ATOM      5  C   UNL     1     111.080 129.097 137.028  0.00  0.00    +0.000 A 
ATOM      6  C   UNL     1     111.046 127.194 138.663  0.00  0.00    +0.000 A 
ATOM      7  C   UNL     1     111.060 128.444 137.586  0.00  0.00    +0.000 A 
ATOM      8  C   UNL     1     110.367 128.013 137.709  0.00  0.00    +0.000 A 
ATOM      9  C   UNL     1     110.360 127.388 138.248  0.00  0.00    +0.000 A 
ATOM     10  C   UNL     1     109.647 128.855 136.721  0.00  0.00    +0.000 A 
ATOM     11  C   UNL     1     111.739 127.625 138.540  0.00  0.00    +0.000 A 
ATOM     12  C   UNL     1     109.646 128.206 137.283  0.00  0.00    +0.000 A 
ENDROOT
BRANCH  11  13
ATOM     13  C   UNL     1     112.425 127.431 138.955  0.00  0.00    +0.000 A 
ATOM     14  C   UNL     1     112.684 127.914 139.572  0.00  0.00    +0.000 A 
ATOM     15  C   UNL     1     112.851 126.754 138.754  0.00  0.00    +0.000 A 
ATOM     16  C   UNL     1     113.370 127.719 139.986  0.00  0.00    +0.000 A 
ATOM     17  C   UNL     1     113.536 126.559 139.169  0.00  0.00    +0.000 A 
ATOM     18  C   UNL     1     113.796 127.042 139.785  0.00  0.00    +0.000 A 
BRANCH  18  19
ATOM     19  O   UNL     1     114.482 126.847 140.201  0.00  0.00    +0.000 OA
ATOM     20  C   UNL     1     114.568 127.082 140.987  0.00  0.00    +0.000 C 
ENDBRANCH  18  19
ENDBRANCH  11  13
BRANCH   4  21
ATOM     21  O   UNL     1     110.378 129.930 136.054  0.00  0.00    +0.000 OA
BRANCH  21  30
ATOM     22  O   UNL     1     109.538 130.874 136.721  0.00  0.00    +0.000 OA
ATOM     23  O   UNL     1     108.308 131.271 134.612  0.00  0.00    +0.000 OA
ATOM     24  O   UNL     1     107.878 132.082 135.981  0.00  0.00    +0.000 OA
ATOM     25  O   UNL     1     109.557 130.195 134.647  0.00  0.00    +0.000 OA
ATOM     26  C   UNL     1     108.717 131.139 135.315  0.00  0.00    +0.000 C 
ATOM     27  C   UNL     1     108.503 131.544 136.000  0.00  0.00    +0.000 C 
ATOM     28  C   UNL     1     109.343 130.600 135.333  0.00  0.00    +0.000 C 
ATOM     29  C   UNL     1     108.913 131.412 136.704  0.00  0.00    +0.000 C 
ATOM     30  C   UNL     1     109.753 130.468 136.036  0.00  0.00    +0.000 C 
BRANCH  29  32
ATOM     31  O   UNL     1     109.260 132.262 137.799  0.00  0.00    +0.000 OA
ATOM     32  C   UNL     1     108.699 131.818 137.388  0.00  0.00    +0.000 C 
ENDBRANCH  29  32
ENDBRANCH  21  30
ENDBRANCH   4  21
BRANCH   6  33
ATOM     33  O   UNL     1     111.039 126.569 139.201  0.00  0.00    +0.000 OA
BRANCH  33  42
ATOM     34  O   UNL     1     110.339 127.291 140.215  0.00  0.00    +0.000 OA
ATOM     35  O   UNL     1     109.303 125.185 141.002  0.00  0.00    +0.000 OA
ATOM     36  O   UNL     1     108.948 126.611 141.753  0.00  0.00    +0.000 OA
ATOM     37  O   UNL     1     110.349 125.165 139.725  0.00  0.00    +0.000 OA
ATOM     38  C   UNL     1     109.648 125.887 140.739  0.00  0.00    +0.000 C 
ATOM     39  C   UNL     1     109.471 126.600 141.115  0.00  0.00    +0.000 C 
ATOM     40  C   UNL     1     110.171 125.877 140.101  0.00  0.00    +0.000 C 
ATOM     41  C   UNL     1     109.816 127.302 140.853  0.00  0.00    +0.000 C 
ATOM     42  C   UNL     1     110.516 126.579 139.839  0.00  0.00    +0.000 C 
ATOM     43  C   UNL     1     109.638 128.015 141.228  0.00  0.00    +0.000 C 
ENDBRANCH  33  42
ENDBRANCH   6  33
BRANCH   5  44
ATOM     44  C   UNL     1     111.776 129.523 136.911  0.00  0.00    +0.000 C 
BRANCH  44  45
ATOM     45  C   UNL     1     112.285 129.321 136.293  0.00  0.00    +0.000 C 
ATOM     46  C   UNL     1     112.993 129.731 136.191  0.00  0.00    +0.000 C 
ATOM     47  C   UNL     1     113.501 129.530 135.574  0.00  0.00    +0.000 C 
ATOM     48  C   UNL     1     113.194 130.343 136.707  0.00  0.00    +0.000 C 
ENDBRANCH  44  45
ENDBRANCH   5  44
TORSDOF 9
ENDMDL
MODEL 6
REMARK VINA RESULT:      -9.3      1.279      5.423
REMARK  Name = 5471129
REMARK  9 active torsions:
REMARK  status: ('A' for Active; 'I' for Inactive)
REMARK    1  A    between atoms: O_3  and  C_22
REMARK    2  A    between atoms: O_3  and  C_28
REMARK    3  A    between atoms: O_4  and  C_25
REMARK    4  A    between atoms: O_4  and  C_30
REMARK    5  A    between atoms: O_15  and  C_45
REMARK    6  A    between atoms: C_19  and  C_26
REMARK    7  A    between atoms: C_29  and  C_37
REMARK    8  A    between atoms: C_35  and  C_38
REMARK    9  A    between atoms: C_37  and  C_39
REMARK                            x       y       z     vdW  Elec       q    Type
REMARK                         _______ _______ _______ _____ _____    ______ ____
ROOT
ATOM      1  O   UNL     1     112.124 128.141 137.324  0.00  0.00    +0.000 OA
ATOM      2  O   UNL     1     109.251 127.906 137.520  0.00  0.00    +0.000 OA
ATOM      3  O   UNL     1     109.862 128.768 136.538  0.00  0.00    +0.000 OA
ATOM      4  C   UNL     1     110.869 126.916 138.709  0.00  0.00    +0.000 A 
ATOM      5  C   UNL     1     111.560 127.258 138.331  0.00  0.00    +0.000 A 
ATOM      6  C   UNL     1     111.283 128.885 136.441  0.00  0.00    +0.000 A 
ATOM      7  C   UNL     1     111.457 127.814 137.684  0.00  0.00    +0.000 A 
ATOM      8  C   UNL     1     110.703 128.024 137.422  0.00  0.00    +0.000 A 
ATOM      9  C   UNL     1     110.616 128.559 136.800  0.00  0.00    +0.000 A 
ATOM     10  C   UNL     1     110.085 127.133 138.437  0.00  0.00    +0.000 A 
ATOM     11  C   UNL     1     112.037 128.676 136.702  0.00  0.00    +0.000 A 
ATOM     12  C   UNL     1     110.001 127.691 137.789  0.00  0.00    +0.000 A 
ENDROOT
BRANCH  11  13
ATOM     13  C   UNL     1     112.703 129.002 136.342  0.00  0.00    +0.000 A 
ATOM     14  C   UNL     1     113.139 129.585 136.732  0.00  0.00    +0.000 A 
ATOM     15  C   UNL     1     112.935 128.746 135.593  0.00  0.00    +0.000 A 
ATOM     16  C   UNL     1     113.805 129.910 136.371  0.00  0.00    +0.000 A 
ATOM     17  C   UNL     1     113.601 129.071 135.233  0.00  0.00    +0.000 A 
ATOM     18  C   UNL     1     114.037 129.654 135.622  0.00  0.00    +0.000 A 
BRANCH  18  19
ATOM     19  O   UNL     1     114.704 129.980 135.262  0.00  0.00    +0.000 OA
ATOM     20  C   UNL     1     114.957 130.737 135.471  0.00  0.00    +0.000 C 
ENDBRANCH  18  19
ENDBRANCH  11  13
BRANCH   4  21
ATOM     21  O   UNL     1     110.959 126.380 139.332  0.00  0.00    +0.000 OA
BRANCH  21  30
ATOM     22  O   UNL     1     110.414 127.137 140.414  0.00  0.00    +0.000 OA
ATOM     23  O   UNL     1     109.104 125.165 141.133  0.00  0.00    +0.000 OA
ATOM     24  O   UNL     1     108.996 126.578 141.976  0.00  0.00    +0.000 OA
ATOM     25  O   UNL     1     110.085 125.065 139.811  0.00  0.00    +0.000 OA
ATOM     26  C   UNL     1     109.540 125.822 140.894  0.00  0.00    +0.000 C 
ATOM     27  C   UNL     1     109.487 126.529 141.315  0.00  0.00    +0.000 C 
ATOM     28  C   UNL     1     110.032 125.772 140.232  0.00  0.00    +0.000 C 
ATOM     29  C   UNL     1     109.924 127.186 141.075  0.00  0.00    +0.000 C 
ATOM     30  C   UNL     1     110.469 126.430 139.992  0.00  0.00    +0.000 C 
BRANCH  29  32
ATOM     31  O   UNL     1     110.552 128.319 141.678  0.00  0.00    +0.000 OA
ATOM     32  C   UNL     1     109.870 127.893 141.496  0.00  0.00    +0.000 C 
ENDBRANCH  29  32
ENDBRANCH  21  30
ENDBRANCH   4  21
BRANCH   6  33
ATOM     33  O   UNL     1     111.196 129.420 135.819  0.00  0.00    +0.000 OA
BRANCH  33  42
ATOM     34  O   UNL     1     110.810 130.527 136.635  0.00  0.00    +0.000 OA
ATOM     35  O   UNL     1     109.327 131.343 134.829  0.00  0.00    +0.000 OA
ATOM     36  O   UNL     1     109.436 132.178 136.248  0.00  0.00    +0.000 OA
ATOM     37  O   UNL     1     110.207 129.963 134.615  0.00  0.00    +0.000 OA
ATOM     38  C   UNL     1     109.821 131.071 135.431  0.00  0.00    +0.000 C 
ATOM     39  C   UNL     1     109.876 131.489 136.140  0.00  0.00    +0.000 C 
ATOM     40  C   UNL     1     110.261 130.381 135.323  0.00  0.00    +0.000 C 
ATOM     41  C   UNL     1     110.371 131.217 136.742  0.00  0.00    +0.000 C 
ATOM     42  C   UNL     1     110.756 130.109 135.925  0.00  0.00    +0.000 C 
ATOM     43  C   UNL     1     110.425 131.634 137.452  0.00  0.00    +0.000 C 
ENDBRANCH  33  42
ENDBRANCH   6  33
BRANCH   5  44
ATOM     44  C   UNL     1     112.317 127.055 138.586  0.00  0.00    +0.000 C 
BRANCH  44  45
ATOM     45  C   UNL     1     112.708 126.410 138.250  0.00  0.00    +0.000 C 
ATOM     46  C   UNL     1     113.461 126.202 138.512  0.00  0.00    +0.000 C 
ATOM     47  C   UNL     1     113.852 125.557 138.176  0.00  0.00    +0.000 C 
ATOM     48  C   UNL     1     113.826 126.638 139.110  0.00  0.00    +0.000 C 
ENDBRANCH  44  45
ENDBRANCH   5  44
TORSDOF 9
ENDMDL
MODEL 7
REMARK VINA RESULT:      -9.3      1.631      5.882
REMARK  Name = 5471129
REMARK  9 active torsions:
REMARK  status: ('A' for Active; 'I' for Inactive)
REMARK    1  A    between atoms: O_3  and  C_22
REMARK    2  A    between atoms: O_3  and  C_28
REMARK    3  A    between atoms: O_4  and  C_25
REMARK    4  A    between atoms: O_4  and  C_30
REMARK    5  A    between atoms: O_15  and  C_45
REMARK    6  A    between atoms: C_19  and  C_26
REMARK    7  A    between atoms: C_29  and  C_37
REMARK    8  A    between atoms: C_35  and  C_38
REMARK    9  A    between atoms: C_37  and  C_39
REMARK                            x       y       z     vdW  Elec       q    Type
REMARK                         _______ _______ _______ _____ _____    ______ ____
ROOT
ATOM      1  O   UNL     1     111.351 128.762 138.933  0.00  0.00    +0.000 OA
ATOM      2  O   UNL     1     112.639 128.455 136.365  0.00  0.00    +0.000 OA
ATOM      3  O   UNL     1     111.731 129.547 136.616  0.00  0.00    +0.000 OA
ATOM      4  C   UNL     1     112.790 127.209 138.219  0.00  0.00    +0.000 A 
ATOM      5  C   UNL     1     112.257 127.645 138.733  0.00  0.00    +0.000 A 
ATOM      6  C   UNL     1     111.093 129.700 137.886  0.00  0.00    +0.000 A 
ATOM      7  C   UNL     1     111.862 128.348 138.435  0.00  0.00    +0.000 A 
ATOM      8  C   UNL     1     111.988 128.610 137.663  0.00  0.00    +0.000 A 
ATOM      9  C   UNL     1     111.604 129.286 137.388  0.00  0.00    +0.000 A 
ATOM     10  C   UNL     1     112.922 127.481 137.416  0.00  0.00    +0.000 A 
ATOM     11  C   UNL     1     110.966 129.438 138.658  0.00  0.00    +0.000 A 
ATOM     12  C   UNL     1     112.519 128.186 137.136  0.00  0.00    +0.000 A 
ENDROOT
BRANCH  11  13
ATOM     13  C   UNL     1     110.455 129.853 139.155  0.00  0.00    +0.000 A 
ATOM     14  C   UNL     1     109.704 129.553 139.318  0.00  0.00    +0.000 A 
ATOM     15  C   UNL     1     110.695 130.568 139.490  0.00  0.00    +0.000 A 
ATOM     16  C   UNL     1     109.194 129.968 139.815  0.00  0.00    +0.000 A 
ATOM     17  C   UNL     1     110.184 130.983 139.987  0.00  0.00    +0.000 A 
ATOM     18  C   UNL     1     109.433 130.683 140.149  0.00  0.00    +0.000 A 
BRANCH  18  19
ATOM     19  O   UNL     1     108.922 131.098 140.647  0.00  0.00    +0.000 OA
ATOM     20  C   UNL     1     108.555 130.711 141.277  0.00  0.00    +0.000 C 
ENDBRANCH  18  19
ENDBRANCH  11  13
BRANCH   4  21
ATOM     21  O   UNL     1     113.174 126.532 138.497  0.00  0.00    +0.000 OA
BRANCH  21  30
ATOM     22  O   UNL     1     112.547 125.546 137.675  0.00  0.00    +0.000 OA
ATOM     23  O   UNL     1     114.746 124.488 137.269  0.00  0.00    +0.000 OA
ATOM     24  O   UNL     1     113.388 123.854 136.583  0.00  0.00    +0.000 OA
ATOM     25  O   UNL     1     114.641 125.827 138.226  0.00  0.00    +0.000 OA
ATOM     26  C   UNL     1     114.014 124.840 137.404  0.00  0.00    +0.000 C 
ATOM     27  C   UNL     1     113.334 124.524 137.061  0.00  0.00    +0.000 C 
ATOM     28  C   UNL     1     113.960 125.510 137.883  0.00  0.00    +0.000 C 
ATOM     29  C   UNL     1     112.600 124.876 137.197  0.00  0.00    +0.000 C 
ATOM     30  C   UNL     1     113.227 125.863 138.019  0.00  0.00    +0.000 C 
BRANCH  29  32
ATOM     31  O   UNL     1     111.221 124.516 137.288  0.00  0.00    +0.000 OA
ATOM     32  C   UNL     1     111.921 124.560 136.854  0.00  0.00    +0.000 C 
ENDBRANCH  29  32
ENDBRANCH  21  30
ENDBRANCH   4  21
BRANCH   6  33
ATOM     33  O   UNL     1     110.709 130.376 137.611  0.00  0.00    +0.000 OA
BRANCH  33  42
ATOM     34  O   UNL     1     109.770 129.643 136.822  0.00  0.00    +0.000 OA
ATOM     35  O   UNL     1     109.577 131.561 135.269  0.00  0.00    +0.000 OA
ATOM     36  O   UNL     1     108.703 130.188 134.998  0.00  0.00    +0.000 OA
ATOM     37  O   UNL     1     110.580 131.655 136.576  0.00  0.00    +0.000 OA
ATOM     38  C   UNL     1     109.642 130.922 135.786  0.00  0.00    +0.000 C 
ATOM     39  C   UNL     1     109.204 130.235 135.651  0.00  0.00    +0.000 C 
ATOM     40  C   UNL     1     110.143 130.969 136.440  0.00  0.00    +0.000 C 
ATOM     41  C   UNL     1     109.269 129.596 136.169  0.00  0.00    +0.000 C 
ATOM     42  C   UNL     1     110.208 130.330 136.957  0.00  0.00    +0.000 C 
ATOM     43  C   UNL     1     108.832 128.910 136.033  0.00  0.00    +0.000 C 
ENDBRANCH  33  42
ENDBRANCH   6  33
BRANCH   5  44
ATOM     44  C   UNL     1     112.124 127.391 139.506  0.00  0.00    +0.000 C 
BRANCH  44  45
ATOM     45  C   UNL     1     112.644 127.611 140.108  0.00  0.00    +0.000 C 
ATOM     46  C   UNL     1     112.504 127.367 140.884  0.00  0.00    +0.000 C 
ATOM     47  C   UNL     1     113.023 127.587 141.486  0.00  0.00    +0.000 C 
ATOM     48  C   UNL     1     111.845 126.902 141.058  0.00  0.00    +0.000 C 
ENDBRANCH  44  45
ENDBRANCH   5  44
TORSDOF 9
ENDMDL
MODEL 8
REMARK VINA RESULT:      -9.2      2.522      4.358
REMARK  Name = 5471129
REMARK  9 active torsions:
REMARK  status: ('A' for Active; 'I' for Inactive)
REMARK    1  A    between atoms: O_3  and  C_22
REMARK    2  A    between atoms: O_3  and  C_28
REMARK    3  A    between atoms: O_4  and  C_25
REMARK    4  A    between atoms: O_4  and  C_30
REMARK    5  A    between atoms: O_15  and  C_45
REMARK    6  A    between atoms: C_19  and  C_26
REMARK    7  A    between atoms: C_29  and  C_37
REMARK    8  A    between atoms: C_35  and  C_38
REMARK    9  A    between atoms: C_37  and  C_39
REMARK                            x       y       z     vdW  Elec       q    Type
REMARK                         _______ _______ _______ _____ _____    ______ ____
ROOT
ATOM      1  O   UNL     1     112.857 126.555 138.716  0.00  0.00    +0.000 OA
ATOM      2  O   UNL     1     109.996 126.623 139.108  0.00  0.00    +0.000 OA
ATOM      3  O   UNL     1     110.574 125.968 137.960  0.00  0.00    +0.000 OA
ATOM      4  C   UNL     1     111.649 127.470 140.358  0.00  0.00    +0.000 A 
ATOM      5  C   UNL     1     112.327 127.228 139.888  0.00  0.00    +0.000 A 
ATOM      6  C   UNL     1     111.990 125.934 137.766  0.00  0.00    +0.000 A 
ATOM      7  C   UNL     1     112.203 126.785 139.163  0.00  0.00    +0.000 A 
ATOM      8  C   UNL     1     111.442 126.589 138.910  0.00  0.00    +0.000 A 
ATOM      9  C   UNL     1     111.335 126.163 138.212  0.00  0.00    +0.000 A 
ATOM     10  C   UNL     1     110.857 127.267 140.096  0.00  0.00    +0.000 A 
ATOM     11  C   UNL     1     112.750 126.130 138.017  0.00  0.00    +0.000 A 
ATOM     12  C   UNL     1     110.753 126.823 139.368  0.00  0.00    +0.000 A 
ENDROOT
BRANCH  11  13
ATOM     13  C   UNL     1     113.405 125.900 137.570  0.00  0.00    +0.000 A 
ATOM     14  C   UNL     1     113.674 125.120 137.603  0.00  0.00    +0.000 A 
ATOM     15  C   UNL     1     113.790 126.449 137.090  0.00  0.00    +0.000 A 
ATOM     16  C   UNL     1     114.328 124.891 137.156  0.00  0.00    +0.000 A 
ATOM     17  C   UNL     1     114.444 126.220 136.643  0.00  0.00    +0.000 A 
ATOM     18  C   UNL     1     114.713 125.441 136.676  0.00  0.00    +0.000 A 
BRANCH  18  19
ATOM     19  O   UNL     1     115.367 125.211 136.230  0.00  0.00    +0.000 OA
ATOM     20  C   UNL     1     115.370 125.327 135.413  0.00  0.00    +0.000 C 
ENDBRANCH  18  19
ENDBRANCH  11  13
BRANCH   4  21
ATOM     21  O   UNL     1     111.759 127.897 141.057  0.00  0.00    +0.000 OA
BRANCH  21  30
ATOM     22  O   UNL     1     111.225 129.179 140.719  0.00  0.00    +0.000 OA
ATOM     23  O   UNL     1     109.867 129.157 142.788  0.00  0.00    +0.000 OA
ATOM     24  O   UNL     1     109.786 130.445 141.762  0.00  0.00    +0.000 OA
ATOM     25  O   UNL     1     110.853 127.883 142.436  0.00  0.00    +0.000 OA
ATOM     26  C   UNL     1     110.319 129.164 142.099  0.00  0.00    +0.000 C 
ATOM     27  C   UNL     1     110.279 129.808 141.585  0.00  0.00    +0.000 C 
ATOM     28  C   UNL     1     110.813 128.527 141.922  0.00  0.00    +0.000 C 
ATOM     29  C   UNL     1     110.732 129.815 140.895  0.00  0.00    +0.000 C 
ATOM     30  C   UNL     1     111.266 128.534 141.233  0.00  0.00    +0.000 C 
BRANCH  29  32
ATOM     31  O   UNL     1     111.380 130.761 140.042  0.00  0.00    +0.000 OA
ATOM     32  C   UNL     1     110.691 130.459 140.382  0.00  0.00    +0.000 C 
ENDBRANCH  29  32
ENDBRANCH  21  30
ENDBRANCH   4  21
BRANCH   6  33
ATOM     33  O   UNL     1     111.883 125.508 137.067  0.00  0.00    +0.000 OA
BRANCH  33  42
ATOM     34  O   UNL     1     111.442 126.641 136.317  0.00  0.00    +0.000 OA
ATOM     35  O   UNL     1     110.070 125.159 134.885  0.00  0.00    +0.000 OA
ATOM     36  O   UNL     1     110.087 126.787 134.612  0.00  0.00    +0.000 OA
ATOM     37  O   UNL     1     110.969 124.520 136.113  0.00  0.00    +0.000 OA
ATOM     38  C   UNL     1     110.528 125.653 135.362  0.00  0.00    +0.000 C 
ATOM     39  C   UNL     1     110.536 126.467 135.226  0.00  0.00    +0.000 C 
ATOM     40  C   UNL     1     110.977 125.333 135.976  0.00  0.00    +0.000 C 
ATOM     41  C   UNL     1     110.993 126.960 135.703  0.00  0.00    +0.000 C 
ATOM     42  C   UNL     1     111.434 125.827 136.453  0.00  0.00    +0.000 C 
ATOM     43  C   UNL     1     111.002 127.774 135.567  0.00  0.00    +0.000 C 
ENDBRANCH  33  42
ENDBRANCH   6  33
BRANCH   5  44
ATOM     44  C   UNL     1     113.091 127.420 140.133  0.00  0.00    +0.000 C 
BRANCH  44  45
ATOM     45  C   UNL     1     113.482 126.942 140.680  0.00  0.00    +0.000 C 
ATOM     46  C   UNL     1     114.250 127.127 140.915  0.00  0.00    +0.000 C 
ATOM     47  C   UNL     1     114.641 126.649 141.462  0.00  0.00    +0.000 C 
ATOM     48  C   UNL     1     114.629 127.791 140.603  0.00  0.00    +0.000 C 
ENDBRANCH  44  45
ENDBRANCH   5  44
TORSDOF 9
ENDMDL
MODEL 9
REMARK VINA RESULT:      -9.2      2.107      4.835
REMARK  Name = 5471129
REMARK  9 active torsions:
REMARK  status: ('A' for Active; 'I' for Inactive)
REMARK    1  A    between atoms: O_3  and  C_22
REMARK    2  A    between atoms: O_3  and  C_28
REMARK    3  A    between atoms: O_4  and  C_25
REMARK    4  A    between atoms: O_4  and  C_30
REMARK    5  A    between atoms: O_15  and  C_45
REMARK    6  A    between atoms: C_19  and  C_26
REMARK    7  A    between atoms: C_29  and  C_37
REMARK    8  A    between atoms: C_35  and  C_38
REMARK    9  A    between atoms: C_37  and  C_39
REMARK                            x       y       z     vdW  Elec       q    Type
REMARK                         _______ _______ _______ _____ _____    ______ ____
ROOT
ATOM      1  O   UNL     1     111.459 127.997 138.219  0.00  0.00    +0.000 OA
ATOM      2  O   UNL     1     111.821 126.095 140.364  0.00  0.00    +0.000 OA
ATOM      3  O   UNL     1     112.721 126.126 139.237  0.00  0.00    +0.000 OA
ATOM      4  C   UNL     1     110.267 127.683 140.083  0.00  0.00    +0.000 A 
ATOM      5  C   UNL     1     110.524 128.009 139.330  0.00  0.00    +0.000 A 
ATOM      6  C   UNL     1     112.542 127.066 138.175  0.00  0.00    +0.000 A 
ATOM      7  C   UNL     1     111.216 127.680 138.941  0.00  0.00    +0.000 A 
ATOM      8  C   UNL     1     111.637 127.057 139.280  0.00  0.00    +0.000 A 
ATOM      9  C   UNL     1     112.301 126.749 138.897  0.00  0.00    +0.000 A 
ATOM     10  C   UNL     1     110.705 127.034 140.436  0.00  0.00    +0.000 A 
ATOM     11  C   UNL     1     112.122 127.689 137.836  0.00  0.00    +0.000 A 
ATOM     12  C   UNL     1     111.394 126.719 140.032  0.00  0.00    +0.000 A 
ENDROOT
BRANCH  11  13
ATOM     13  C   UNL     1     112.365 128.006 137.113  0.00  0.00    +0.000 A 
ATOM     14  C   UNL     1     111.942 127.836 136.426  0.00  0.00    +0.000 A 
ATOM     15  C   UNL     1     113.031 128.491 137.079  0.00  0.00    +0.000 A 
ATOM     16  C   UNL     1     112.185 128.153 135.704  0.00  0.00    +0.000 A 
ATOM     17  C   UNL     1     113.274 128.807 136.357  0.00  0.00    +0.000 A 
ATOM     18  C   UNL     1     112.851 128.638 135.669  0.00  0.00    +0.000 A 
BRANCH  18  19
ATOM     19  O   UNL     1     113.094 128.954 134.947  0.00  0.00    +0.000 OA
ATOM     20  C   UNL     1     113.827 129.328 134.886  0.00  0.00    +0.000 C 
ENDBRANCH  18  19
ENDBRANCH  11  13
BRANCH   4  21
ATOM     21  O   UNL     1     109.603 127.993 140.464  0.00  0.00    +0.000 OA
BRANCH  21  30
ATOM     22  O   UNL     1     108.779 126.826 140.492  0.00  0.00    +0.000 OA
ATOM     23  O   UNL     1     108.165 127.316 142.838  0.00  0.00    +0.000 OA
ATOM     24  O   UNL     1     107.546 125.986 142.085  0.00  0.00    +0.000 OA
ATOM     25  O   UNL     1     109.194 128.320 142.028  0.00  0.00    +0.000 OA
ATOM     26  C   UNL     1     108.370 127.153 142.057  0.00  0.00    +0.000 C 
ATOM     27  C   UNL     1     108.061 126.488 141.679  0.00  0.00    +0.000 C 
ATOM     28  C   UNL     1     108.884 127.655 141.651  0.00  0.00    +0.000 C 
ATOM     29  C   UNL     1     108.265 126.324 140.897  0.00  0.00    +0.000 C 
ATOM     30  C   UNL     1     109.089 127.491 140.869  0.00  0.00    +0.000 C 
BRANCH  29  32
ATOM     31  O   UNL     1     107.618 125.728 139.771  0.00  0.00    +0.000 OA
ATOM     32  C   UNL     1     107.956 125.659 140.520  0.00  0.00    +0.000 C 
ENDBRANCH  29  32
ENDBRANCH  21  30
ENDBRANCH   4  21
BRANCH   6  33
ATOM     33  O   UNL     1     113.206 126.759 137.792  0.00  0.00    +0.000 OA
BRANCH  33  42
ATOM     34  O   UNL     1     112.531 125.592 137.318  0.00  0.00    +0.000 OA
ATOM     35  O   UNL     1     114.657 124.328 137.402  0.00  0.00    +0.000 OA
ATOM     36  O   UNL     1     113.273 123.583 136.900  0.00  0.00    +0.000 OA
ATOM     37  O   UNL     1     114.623 125.916 137.849  0.00  0.00    +0.000 OA
ATOM     38  C   UNL     1     113.948 124.749 137.374  0.00  0.00    +0.000 C 
ATOM     39  C   UNL     1     113.256 124.377 137.123  0.00  0.00    +0.000 C 
ATOM     40  C   UNL     1     113.932 125.543 137.598  0.00  0.00    +0.000 C 
ATOM     41  C   UNL     1     112.548 124.798 137.095  0.00  0.00    +0.000 C 
ATOM     42  C   UNL     1     113.223 125.965 137.570  0.00  0.00    +0.000 C 
ATOM     43  C   UNL     1     111.856 124.426 136.844  0.00  0.00    +0.000 C 
ENDBRANCH  33  42
ENDBRANCH   6  33
BRANCH   5  44
ATOM     44  C   UNL     1     110.110 128.632 138.984  0.00  0.00    +0.000 C 
BRANCH  44  45
ATOM     45  C   UNL     1     110.277 129.410 139.200  0.00  0.00    +0.000 C 
ATOM     46  C   UNL     1     109.884 130.035 138.833  0.00  0.00    +0.000 C 
ATOM     47  C   UNL     1     110.051 130.813 139.049  0.00  0.00    +0.000 C 
ATOM     48  C   UNL     1     109.323 129.882 138.247  0.00  0.00    +0.000 C 
ENDBRANCH  44  45
ENDBRANCH   5  44
TORSDOF 9
ENDMDL
MODEL 10
REMARK VINA RESULT:      -9.1      1.650      2.563
REMARK  Name = 5471129
REMARK  9 active torsions:
REMARK  status: ('A' for Active; 'I' for Inactive)
REMARK    1  A    between atoms: O_3  and  C_22
REMARK    2  A    between atoms: O_3  and  C_28
REMARK    3  A    between atoms: O_4  and  C_25
REMARK    4  A    between atoms: O_4  and  C_30
REMARK    5  A    between atoms: O_15  and  C_45
REMARK    6  A    between atoms: C_19  and  C_26
REMARK    7  A    between atoms: C_29  and  C_37
REMARK    8  A    between atoms: C_35  and  C_38
REMARK    9  A    between atoms: C_37  and  C_39
REMARK                            x       y       z     vdW  Elec       q    Type
REMARK                         _______ _______ _______ _____ _____    ______ ____
ROOT
ATOM      1  O   UNL     1     111.337 127.602 137.492  0.00  0.00    +0.000 OA
ATOM      2  O   UNL     1     109.463 129.134 139.070  0.00  0.00    +0.000 OA
ATOM      3  O   UNL     1     110.476 128.321 139.699  0.00  0.00    +0.000 OA
ATOM      4  C   UNL     1     109.670 128.944 136.849  0.00  0.00    +0.000 A 
ATOM      5  C   UNL     1     110.337 128.404 136.809  0.00  0.00    +0.000 A 
ATOM      6  C   UNL     1     111.403 127.564 138.919  0.00  0.00    +0.000 A 
ATOM      7  C   UNL     1     110.697 128.121 137.536  0.00  0.00    +0.000 A 
ATOM      8  C   UNL     1     110.410 128.360 138.272  0.00  0.00    +0.000 A 
ATOM      9  C   UNL     1     110.763 128.082 138.964  0.00  0.00    +0.000 A 
ATOM     10  C   UNL     1     109.371 129.193 137.614  0.00  0.00    +0.000 A 
ATOM     11  C   UNL     1     111.690 127.324 138.184  0.00  0.00    +0.000 A 
ATOM     12  C   UNL     1     109.743 128.900 138.330  0.00  0.00    +0.000 A 
ENDROOT
BRANCH  11  13
ATOM     13  C   UNL     1     112.331 126.806 138.140  0.00  0.00    +0.000 A 
ATOM     14  C   UNL     1     113.076 127.088 137.926  0.00  0.00    +0.000 A 
ATOM     15  C   UNL     1     112.226 126.005 138.311  0.00  0.00    +0.000 A 
ATOM     16  C   UNL     1     113.715 126.569 137.882  0.00  0.00    +0.000 A 
ATOM     17  C   UNL     1     112.866 125.487 138.267  0.00  0.00    +0.000 A 
ATOM     18  C   UNL     1     113.611 125.769 138.053  0.00  0.00    +0.000 A 
BRANCH  18  19
ATOM     19  O   UNL     1     114.251 125.250 138.009  0.00  0.00    +0.000 OA
ATOM     20  C   UNL     1     114.620 125.111 137.285  0.00  0.00    +0.000 C 
ENDBRANCH  18  19
ENDBRANCH  11  13
BRANCH   4  21
ATOM     21  O   UNL     1     109.318 129.221 136.154  0.00  0.00    +0.000 OA
BRANCH  21  30
ATOM     22  O   UNL     1     109.664 130.605 136.238  0.00  0.00    +0.000 OA
ATOM     23  O   UNL     1     107.356 131.220 135.593  0.00  0.00    +0.000 OA
ATOM     24  O   UNL     1     108.470 132.398 135.891  0.00  0.00    +0.000 OA
ATOM     25  O   UNL     1     107.779 129.631 135.724  0.00  0.00    +0.000 OA
ATOM     26  C   UNL     1     108.124 131.015 135.808  0.00  0.00    +0.000 C 
ATOM     27  C   UNL     1     108.682 131.604 135.957  0.00  0.00    +0.000 C 
ATOM     28  C   UNL     1     108.337 130.220 135.874  0.00  0.00    +0.000 C 
ATOM     29  C   UNL     1     109.452 131.399 136.172  0.00  0.00    +0.000 C 
ATOM     30  C   UNL     1     109.106 130.015 136.089  0.00  0.00    +0.000 C 
BRANCH  29  32
ATOM     31  O   UNL     1     110.803 131.789 136.427  0.00  0.00    +0.000 OA
ATOM     32  C   UNL     1     110.009 131.988 136.321  0.00  0.00    +0.000 C 
ENDBRANCH  29  32
ENDBRANCH  21  30
ENDBRANCH   4  21
BRANCH   6  33
ATOM     33  O   UNL     1     111.756 127.285 139.611  0.00  0.00    +0.000 OA
BRANCH  33  42
ATOM     34  O   UNL     1     112.443 128.504 139.897  0.00  0.00    +0.000 OA
ATOM     35  O   UNL     1     112.262 128.039 142.321  0.00  0.00    +0.000 OA
ATOM     36  O   UNL     1     113.009 129.414 141.798  0.00  0.00    +0.000 OA
ATOM     37  O   UNL     1     111.635 126.974 141.227  0.00  0.00    +0.000 OA
ATOM     38  C   UNL     1     112.322 128.194 141.513  0.00  0.00    +0.000 C 
ATOM     39  C   UNL     1     112.696 128.882 141.251  0.00  0.00    +0.000 C 
ATOM     40  C   UNL     1     112.009 127.662 140.966  0.00  0.00    +0.000 C 
ATOM     41  C   UNL     1     112.756 129.037 140.443  0.00  0.00    +0.000 C 
ATOM     42  C   UNL     1     112.069 127.817 140.158  0.00  0.00    +0.000 C 
ATOM     43  C   UNL     1     113.130 129.724 140.182  0.00  0.00    +0.000 C 
ENDBRANCH  33  42
ENDBRANCH   6  33
BRANCH   5  44
ATOM     44  C   UNL     1     110.630 128.159 136.078  0.00  0.00    +0.000 C 
BRANCH  44  45
ATOM     45  C   UNL     1     110.317 127.491 135.709  0.00  0.00    +0.000 C 
ATOM     46  C   UNL     1     110.614 127.243 134.981  0.00  0.00    +0.000 C 
ATOM     47  C   UNL     1     110.300 126.575 134.612  0.00  0.00    +0.000 C 
ATOM     48  C   UNL     1     111.226 127.664 134.620  0.00  0.00    +0.000 C 
ENDBRANCH  44  45
ENDBRANCH   5  44
TORSDOF 9
ENDMDL
