MODEL 1
REMARK VINA RESULT:      -8.8      0.000      0.000
REMARK  Name = 44259570
REMARK  4 active torsions:
REMARK  status: ('A' for Active; 'I' for Inactive)
REMARK    1  A    between atoms: S_1  and  O_3
REMARK    2  A    between atoms: O_3  and  C_14
REMARK    3  A    between atoms: O_4  and  C_19
REMARK    4  A    between atoms: C_13  and  C_16
REMARK                            x       y       z     vdW  Elec       q    Type
REMARK                         _______ _______ _______ _____ _____    ______ ____
ROOT
ATOM      1  O   UNL     1     105.136 124.357 147.475  0.00  0.00    +0.000 OA
ATOM      2  O   UNL     1     107.609 125.527 146.548  0.00  0.00    +0.000 OA
ATOM      3  O   UNL     1     106.515 125.284 145.641  0.00  0.00    +0.000 OA
ATOM      4  C   UNL     1     106.359 124.935 147.018  0.00  0.00    +0.000 A 
ATOM      5  C   UNL     1     105.899 124.626 147.629  0.00  0.00    +0.000 A 
ATOM      6  C   UNL     1     104.830 124.396 146.709  0.00  0.00    +0.000 A 
ATOM      7  C   UNL     1     105.290 124.705 146.098  0.00  0.00    +0.000 A 
ATOM      8  C   UNL     1     106.055 124.975 146.252  0.00  0.00    +0.000 A 
ATOM      9  C   UNL     1     107.157 125.219 147.166  0.00  0.00    +0.000 A 
ATOM     10  C   UNL     1     106.205 124.580 148.431  0.00  0.00    +0.000 A 
ATOM     11  C   UNL     1     107.000 124.859 148.598  0.00  0.00    +0.000 A 
ATOM     12  C   UNL     1     107.479 125.181 147.961  0.00  0.00    +0.000 A 
ENDROOT
BRANCH   6  14
ATOM     13  O   UNL     1     101.773 123.317 146.091  0.00  0.00    +0.000 OA
ATOM     14  C   UNL     1     104.067 124.127 146.555  0.00  0.00    +0.000 A 
ATOM     15  C   UNL     1     103.416 124.601 146.737  0.00  0.00    +0.000 A 
ATOM     16  C   UNL     1     103.952 123.383 146.218  0.00  0.00    +0.000 A 
ATOM     17  C   UNL     1     102.653 124.331 146.583  0.00  0.00    +0.000 A 
ATOM     18  C   UNL     1     103.187 123.112 146.063  0.00  0.00    +0.000 A 
ATOM     19  C   UNL     1     102.538 123.587 146.246  0.00  0.00    +0.000 A 
ENDBRANCH   6  14
BRANCH  11  20
ATOM     20  O   UNL     1     107.303 124.819 149.365  0.00  0.00    +0.000 OA
ATOM     21  C   UNL     1     107.713 124.148 149.612  0.00  0.00    +0.000 C 
ENDBRANCH  11  20
BRANCH   7  22
ATOM     22  O   UNL     1     104.986 124.745 145.332  0.00  0.00    +0.000 OA
BRANCH  22  23
ATOM     23  S   UNL     1     105.377 125.186 144.755  0.00  0.00    +0.000 S 
ATOM     24  O   UNL     1     105.768 125.627 144.178  0.00  0.00    +0.000 OA
ATOM     25  O   UNL     1     105.748 124.501 144.483  0.00  0.00    +0.000 OA
ATOM     26  O   UNL     1     105.005 125.871 145.027  0.00  0.00    +0.000 OA
ENDBRANCH  22  23
ENDBRANCH   7  22
TORSDOF 4
ENDMDL
MODEL 2
REMARK VINA RESULT:      -8.5      6.994      8.025
REMARK  Name = 44259570
REMARK  4 active torsions:
REMARK  status: ('A' for Active; 'I' for Inactive)
REMARK    1  A    between atoms: S_1  and  O_3
REMARK    2  A    between atoms: O_3  and  C_14
REMARK    3  A    between atoms: O_4  and  C_19
REMARK    4  A    between atoms: C_13  and  C_16
REMARK                            x       y       z     vdW  Elec       q    Type
REMARK                         _______ _______ _______ _____ _____    ______ ____
ROOT
ATOM      1  O   UNL     1     103.370 130.263 142.333  0.00  0.00    +0.000 OA
ATOM      2  O   UNL     1     104.262 127.885 140.958  0.00  0.00    +0.000 OA
ATOM      3  O   UNL     1     103.251 128.739 140.386  0.00  0.00    +0.000 OA
ATOM      4  C   UNL     1     103.812 129.087 141.654  0.00  0.00    +0.000 A 
ATOM      5  C   UNL     1     103.852 129.595 142.303  0.00  0.00    +0.000 A 
ATOM      6  C   UNL     1     102.848 130.425 141.714  0.00  0.00    +0.000 A 
ATOM      7  C   UNL     1     102.808 129.917 141.065  0.00  0.00    +0.000 A 
ATOM      8  C   UNL     1     103.291 129.247 141.035  0.00  0.00    +0.000 A 
ATOM      9  C   UNL     1     104.309 128.387 141.611  0.00  0.00    +0.000 A 
ATOM     10  C   UNL     1     104.391 129.438 142.953  0.00  0.00    +0.000 A 
ATOM     11  C   UNL     1     104.895 128.743 142.928  0.00  0.00    +0.000 A 
ATOM     12  C   UNL     1     104.854 128.214 142.252  0.00  0.00    +0.000 A 
ENDROOT
BRANCH   6  14
ATOM     13  O   UNL     1     100.919 133.100 141.835  0.00  0.00    +0.000 OA
ATOM     14  C   UNL     1     102.366 131.093 141.744  0.00  0.00    +0.000 A 
ATOM     15  C   UNL     1     102.660 131.825 141.503  0.00  0.00    +0.000 A 
ATOM     16  C   UNL     1     101.590 131.030 142.015  0.00  0.00    +0.000 A 
ATOM     17  C   UNL     1     102.179 132.494 141.533  0.00  0.00    +0.000 A 
ATOM     18  C   UNL     1     101.107 131.699 142.046  0.00  0.00    +0.000 A 
ATOM     19  C   UNL     1     101.402 132.431 141.804  0.00  0.00    +0.000 A 
ENDBRANCH   6  14
BRANCH  11  20
ATOM     20  O   UNL     1     105.416 128.584 143.548  0.00  0.00    +0.000 OA
ATOM     21  C   UNL     1     105.166 128.136 144.193  0.00  0.00    +0.000 C 
ENDBRANCH  11  20
BRANCH   7  22
ATOM     22  O   UNL     1     102.287 130.077 140.446  0.00  0.00    +0.000 OA
BRANCH  22  23
ATOM     23  S   UNL     1     102.390 129.711 139.714  0.00  0.00    +0.000 S 
ATOM     24  O   UNL     1     102.493 129.344 138.982  0.00  0.00    +0.000 OA
ATOM     25  O   UNL     1     102.963 130.270 139.515  0.00  0.00    +0.000 OA
ATOM     26  O   UNL     1     101.817 129.152 139.914  0.00  0.00    +0.000 OA
ENDBRANCH  22  23
ENDBRANCH   7  22
TORSDOF 4
ENDMDL
MODEL 3
REMARK VINA RESULT:      -8.2      1.495      3.734
REMARK  Name = 44259570
REMARK  4 active torsions:
REMARK  status: ('A' for Active; 'I' for Inactive)
REMARK    1  A    between atoms: S_1  and  O_3
REMARK    2  A    between atoms: O_3  and  C_14
REMARK    3  A    between atoms: O_4  and  C_19
REMARK    4  A    between atoms: C_13  and  C_16
REMARK                            x       y       z     vdW  Elec       q    Type
REMARK                         _______ _______ _______ _____ _____    ______ ____
ROOT
ATOM      1  O   UNL     1     103.744 124.715 147.387  0.00  0.00    +0.000 OA
ATOM      2  O   UNL     1     104.503 123.177 145.062  0.00  0.00    +0.000 OA
ATOM      3  O   UNL     1     105.392 124.164 145.624  0.00  0.00    +0.000 OA
ATOM      4  C   UNL     1     104.118 123.954 146.237  0.00  0.00    +0.000 A 
ATOM      5  C   UNL     1     103.569 124.138 146.825  0.00  0.00    +0.000 A 
ATOM      6  C   UNL     1     104.468 125.109 147.362  0.00  0.00    +0.000 A 
ATOM      7  C   UNL     1     105.018 124.926 146.775  0.00  0.00    +0.000 A 
ATOM      8  C   UNL     1     104.842 124.348 146.212  0.00  0.00    +0.000 A 
ATOM      9  C   UNL     1     103.947 123.354 145.646  0.00  0.00    +0.000 A 
ATOM     10  C   UNL     1     102.810 123.734 146.861  0.00  0.00    +0.000 A 
ATOM     11  C   UNL     1     102.622 123.132 146.279  0.00  0.00    +0.000 A 
ATOM     12  C   UNL     1     103.194 122.941 145.667  0.00  0.00    +0.000 A 
ENDROOT
BRANCH   6  14
ATOM     13  O   UNL     1     105.170 127.420 149.612  0.00  0.00    +0.000 OA
ATOM     14  C   UNL     1     104.643 125.687 147.924  0.00  0.00    +0.000 A 
ATOM     15  C   UNL     1     104.407 126.468 147.802  0.00  0.00    +0.000 A 
ATOM     16  C   UNL     1     105.055 125.483 148.609  0.00  0.00    +0.000 A 
ATOM     17  C   UNL     1     104.582 127.045 148.363  0.00  0.00    +0.000 A 
ATOM     18  C   UNL     1     105.231 126.061 149.172  0.00  0.00    +0.000 A 
ATOM     19  C   UNL     1     104.994 126.842 149.049  0.00  0.00    +0.000 A 
ENDBRANCH   6  14
BRANCH  11  20
ATOM     20  O   UNL     1     101.897 122.740 146.306  0.00  0.00    +0.000 OA
ATOM     21  C   UNL     1     101.252 123.034 145.885  0.00  0.00    +0.000 C 
ENDBRANCH  11  20
BRANCH   7  22
ATOM     22  O   UNL     1     105.742 125.319 146.749  0.00  0.00    +0.000 OA
BRANCH  22  23
ATOM     23  S   UNL     1     106.223 125.256 146.082  0.00  0.00    +0.000 S 
ATOM     24  O   UNL     1     106.704 125.192 145.415  0.00  0.00    +0.000 OA
ATOM     25  O   UNL     1     106.666 124.669 146.457  0.00  0.00    +0.000 OA
ATOM     26  O   UNL     1     105.781 125.843 145.707  0.00  0.00    +0.000 OA
ENDBRANCH  22  23
ENDBRANCH   7  22
TORSDOF 4
ENDMDL
MODEL 4
REMARK VINA RESULT:      -8.2      1.139      3.921
REMARK  Name = 44259570
REMARK  4 active torsions:
REMARK  status: ('A' for Active; 'I' for Inactive)
REMARK    1  A    between atoms: S_1  and  O_3
REMARK    2  A    between atoms: O_3  and  C_14
REMARK    3  A    between atoms: O_4  and  C_19
REMARK    4  A    between atoms: C_13  and  C_16
REMARK                            x       y       z     vdW  Elec       q    Type
REMARK                         _______ _______ _______ _____ _____    ______ ____
ROOT
ATOM      1  O   UNL     1     103.704 124.313 147.597  0.00  0.00    +0.000 OA
ATOM      2  O   UNL     1     102.571 123.225 145.172  0.00  0.00    +0.000 OA
ATOM      3  O   UNL     1     103.916 123.746 145.197  0.00  0.00    +0.000 OA
ATOM      4  C   UNL     1     103.143 123.775 146.399  0.00  0.00    +0.000 A 
ATOM      5  C   UNL     1     103.072 123.964 147.199  0.00  0.00    +0.000 A 
ATOM      6  C   UNL     1     104.407 124.474 147.196  0.00  0.00    +0.000 A 
ATOM      7  C   UNL     1     104.478 124.285 146.396  0.00  0.00    +0.000 A 
ATOM      8  C   UNL     1     103.845 123.935 145.997  0.00  0.00    +0.000 A 
ATOM      9  C   UNL     1     102.491 123.411 145.972  0.00  0.00    +0.000 A 
ATOM     10  C   UNL     1     102.345 123.802 147.627  0.00  0.00    +0.000 A 
ATOM     11  C   UNL     1     101.683 123.438 147.217  0.00  0.00    +0.000 A 
ATOM     12  C   UNL     1     101.757 123.241 146.385  0.00  0.00    +0.000 A 
ENDROOT
BRANCH   6  14
ATOM     13  O   UNL     1     106.936 125.872 148.791  0.00  0.00    +0.000 OA
ATOM     14  C   UNL     1     105.039 124.823 147.595  0.00  0.00    +0.000 A 
ATOM     15  C   UNL     1     105.648 124.354 147.896  0.00  0.00    +0.000 A 
ATOM     16  C   UNL     1     105.063 125.642 147.693  0.00  0.00    +0.000 A 
ATOM     17  C   UNL     1     106.279 124.703 148.294  0.00  0.00    +0.000 A 
ATOM     18  C   UNL     1     105.695 125.991 148.092  0.00  0.00    +0.000 A 
ATOM     19  C   UNL     1     106.303 125.522 148.392  0.00  0.00    +0.000 A 
ENDBRANCH   6  14
BRANCH  11  20
ATOM     20  O   UNL     1     100.982 123.279 147.621  0.00  0.00    +0.000 OA
ATOM     21  C   UNL     1     100.978 122.743 148.248  0.00  0.00    +0.000 C 
ENDBRANCH  11  20
BRANCH   7  22
ATOM     22  O   UNL     1     105.180 124.445 145.995  0.00  0.00    +0.000 OA
BRANCH  22  23
ATOM     23  S   UNL     1     105.178 124.521 145.173  0.00  0.00    +0.000 S 
ATOM     24  O   UNL     1     105.176 124.597 144.352  0.00  0.00    +0.000 OA
ATOM     25  O   UNL     1     105.511 123.769 145.103  0.00  0.00    +0.000 OA
ATOM     26  O   UNL     1     104.846 125.273 145.244  0.00  0.00    +0.000 OA
ENDBRANCH  22  23
ENDBRANCH   7  22
TORSDOF 4
ENDMDL
MODEL 5
REMARK VINA RESULT:      -8.1     10.187     11.672
REMARK  Name = 44259570
REMARK  4 active torsions:
REMARK  status: ('A' for Active; 'I' for Inactive)
REMARK    1  A    between atoms: S_1  and  O_3
REMARK    2  A    between atoms: O_3  and  C_14
REMARK    3  A    between atoms: O_4  and  C_19
REMARK    4  A    between atoms: C_13  and  C_16
REMARK                            x       y       z     vdW  Elec       q    Type
REMARK                         _______ _______ _______ _____ _____    ______ ____
ROOT
ATOM      1  O   UNL     1     113.691 126.390 138.796  0.00  0.00    +0.000 OA
ATOM      2  O   UNL     1     111.089 126.260 140.043  0.00  0.00    +0.000 OA
ATOM      3  O   UNL     1     111.342 125.609 138.782  0.00  0.00    +0.000 OA
ATOM      4  C   UNL     1     112.404 126.326 139.413  0.00  0.00    +0.000 A 
ATOM      5  C   UNL     1     113.187 126.587 139.418  0.00  0.00    +0.000 A 
ATOM      6  C   UNL     1     113.412 125.933 138.168  0.00  0.00    +0.000 A 
ATOM      7  C   UNL     1     112.629 125.672 138.163  0.00  0.00    +0.000 A 
ATOM      8  C   UNL     1     112.125 125.869 138.786  0.00  0.00    +0.000 A 
ATOM      9  C   UNL     1     111.870 126.525 140.057  0.00  0.00    +0.000 A 
ATOM     10  C   UNL     1     113.490 127.064 140.066  0.00  0.00    +0.000 A 
ATOM     11  C   UNL     1     112.970 127.272 140.718  0.00  0.00    +0.000 A 
ATOM     12  C   UNL     1     112.155 127.000 140.713  0.00  0.00    +0.000 A 
ENDROOT
BRANCH   6  14
ATOM     13  O   UNL     1     115.427 125.145 135.676  0.00  0.00    +0.000 OA
ATOM     14  C   UNL     1     113.916 125.736 137.545  0.00  0.00    +0.000 A 
ATOM     15  C   UNL     1     114.006 126.253 136.908  0.00  0.00    +0.000 A 
ATOM     16  C   UNL     1     114.330 125.023 137.559  0.00  0.00    +0.000 A 
ATOM     17  C   UNL     1     114.509 126.056 136.285  0.00  0.00    +0.000 A 
ATOM     18  C   UNL     1     114.834 124.826 136.936  0.00  0.00    +0.000 A 
ATOM     19  C   UNL     1     114.923 125.342 136.299  0.00  0.00    +0.000 A 
ENDBRANCH   6  14
BRANCH  11  20
ATOM     20  O   UNL     1     113.251 127.729 141.344  0.00  0.00    +0.000 OA
ATOM     21  C   UNL     1     113.151 128.547 141.335  0.00  0.00    +0.000 C 
ENDBRANCH  11  20
BRANCH   7  22
ATOM     22  O   UNL     1     112.350 125.215 137.536  0.00  0.00    +0.000 OA
BRANCH  22  23
ATOM     23  S   UNL     1     111.540 125.175 137.383  0.00  0.00    +0.000 S 
ATOM     24  O   UNL     1     110.731 125.134 137.230  0.00  0.00    +0.000 OA
ATOM     25  O   UNL     1     111.567 125.925 137.040  0.00  0.00    +0.000 OA
ATOM     26  O   UNL     1     111.513 124.425 137.725  0.00  0.00    +0.000 OA
ENDBRANCH  22  23
ENDBRANCH   7  22
TORSDOF 4
ENDMDL
MODEL 6
REMARK VINA RESULT:      -8.0      1.825      4.383
REMARK  Name = 44259570
REMARK  4 active torsions:
REMARK  status: ('A' for Active; 'I' for Inactive)
REMARK    1  A    between atoms: S_1  and  O_3
REMARK    2  A    between atoms: O_3  and  C_14
REMARK    3  A    between atoms: O_4  and  C_19
REMARK    4  A    between atoms: C_13  and  C_16
REMARK                            x       y       z     vdW  Elec       q    Type
REMARK                         _______ _______ _______ _____ _____    ______ ____
ROOT
ATOM      1  O   UNL     1     105.031 124.416 147.375  0.00  0.00    +0.000 OA
ATOM      2  O   UNL     1     102.483 125.684 147.872  0.00  0.00    +0.000 OA
ATOM      3  O   UNL     1     103.701 126.215 148.433  0.00  0.00    +0.000 OA
ATOM      4  C   UNL     1     103.771 125.042 147.620  0.00  0.00    +0.000 A 
ATOM      5  C   UNL     1     104.214 124.442 147.267  0.00  0.00    +0.000 A 
ATOM      6  C   UNL     1     105.406 124.989 147.835  0.00  0.00    +0.000 A 
ATOM      7  C   UNL     1     104.963 125.589 148.188  0.00  0.00    +0.000 A 
ATOM      8  C   UNL     1     104.144 125.616 148.080  0.00  0.00    +0.000 A 
ATOM      9  C   UNL     1     102.918 125.080 147.515  0.00  0.00    +0.000 A 
ATOM     10  C   UNL     1     103.836 123.840 146.785  0.00  0.00    +0.000 A 
ATOM     11  C   UNL     1     102.985 123.862 146.669  0.00  0.00    +0.000 A 
ATOM     12  C   UNL     1     102.523 124.486 147.036  0.00  0.00    +0.000 A 
ENDROOT
BRANCH   6  14
ATOM     13  O   UNL     1     108.676 124.884 148.267  0.00  0.00    +0.000 OA
ATOM     14  C   UNL     1     106.223 124.963 147.943  0.00  0.00    +0.000 A 
ATOM     15  C   UNL     1     106.725 125.302 147.383  0.00  0.00    +0.000 A 
ATOM     16  C   UNL     1     106.539 124.597 148.612  0.00  0.00    +0.000 A 
ATOM     17  C   UNL     1     107.542 125.276 147.491  0.00  0.00    +0.000 A 
ATOM     18  C   UNL     1     107.357 124.571 148.720  0.00  0.00    +0.000 A 
ATOM     19  C   UNL     1     107.858 124.911 148.159  0.00  0.00    +0.000 A 
ENDBRANCH   6  14
BRANCH  11  20
ATOM     20  O   UNL     1     102.614 123.287 146.208  0.00  0.00    +0.000 OA
ATOM     21  C   UNL     1     102.107 122.740 146.560  0.00  0.00    +0.000 C 
ENDBRANCH  11  20
BRANCH   7  22
ATOM     22  O   UNL     1     105.336 126.162 148.649  0.00  0.00    +0.000 OA
BRANCH  22  23
ATOM     23  S   UNL     1     104.921 126.834 148.889  0.00  0.00    +0.000 S 
ATOM     24  O   UNL     1     104.506 127.506 149.128  0.00  0.00    +0.000 OA
ATOM     25  O   UNL     1     104.729 126.462 149.599  0.00  0.00    +0.000 OA
ATOM     26  O   UNL     1     105.113 127.206 148.178  0.00  0.00    +0.000 OA
ENDBRANCH  22  23
ENDBRANCH   7  22
TORSDOF 4
ENDMDL
MODEL 7
REMARK VINA RESULT:      -8.0      8.886     10.660
REMARK  Name = 44259570
REMARK  4 active torsions:
REMARK  status: ('A' for Active; 'I' for Inactive)
REMARK    1  A    between atoms: S_1  and  O_3
REMARK    2  A    between atoms: O_3  and  C_14
REMARK    3  A    between atoms: O_4  and  C_19
REMARK    4  A    between atoms: C_13  and  C_16
REMARK                            x       y       z     vdW  Elec       q    Type
REMARK                         _______ _______ _______ _____ _____    ______ ____
ROOT
ATOM      1  O   UNL     1     111.368 131.785 145.382  0.00  0.00    +0.000 OA
ATOM      2  O   UNL     1     112.203 132.333 142.672  0.00  0.00    +0.000 OA
ATOM      3  O   UNL     1     111.982 133.403 143.613  0.00  0.00    +0.000 OA
ATOM      4  C   UNL     1     111.781 132.055 144.042  0.00  0.00    +0.000 A 
ATOM      5  C   UNL     1     111.576 131.515 144.631  0.00  0.00    +0.000 A 
ATOM      6  C   UNL     1     111.364 132.594 145.545  0.00  0.00    +0.000 A 
ATOM      7  C   UNL     1     111.569 133.133 144.955  0.00  0.00    +0.000 A 
ATOM      8  C   UNL     1     111.777 132.864 144.203  0.00  0.00    +0.000 A 
ATOM      9  C   UNL     1     112.000 131.786 143.255  0.00  0.00    +0.000 A 
ATOM     10  C   UNL     1     111.576 130.670 144.475  0.00  0.00    +0.000 A 
ATOM     11  C   UNL     1     111.792 130.384 143.695  0.00  0.00    +0.000 A 
ATOM     12  C   UNL     1     112.005 130.945 143.081  0.00  0.00    +0.000 A 
ENDROOT
BRANCH   6  14
ATOM     13  O   UNL     1     110.530 133.673 148.550  0.00  0.00    +0.000 OA
ATOM     14  C   UNL     1     111.156 132.863 146.295  0.00  0.00    +0.000 A 
ATOM     15  C   UNL     1     111.734 132.953 146.877  0.00  0.00    +0.000 A 
ATOM     16  C   UNL     1     110.369 133.044 146.465  0.00  0.00    +0.000 A 
ATOM     17  C   UNL     1     111.526 133.222 147.628  0.00  0.00    +0.000 A 
ATOM     18  C   UNL     1     110.160 133.314 147.217  0.00  0.00    +0.000 A 
ATOM     19  C   UNL     1     110.739 133.403 147.798  0.00  0.00    +0.000 A 
ENDBRANCH   6  14
BRANCH  11  20
ATOM     20  O   UNL     1     111.794 129.574 143.535  0.00  0.00    +0.000 OA
ATOM     21  C   UNL     1     111.108 129.203 143.270  0.00  0.00    +0.000 C 
ENDBRANCH  11  20
BRANCH   7  22
ATOM     22  O   UNL     1     111.566 133.942 145.116  0.00  0.00    +0.000 OA
BRANCH  22  23
ATOM     23  S   UNL     1     111.659 134.486 144.503  0.00  0.00    +0.000 S 
ATOM     24  O   UNL     1     111.752 135.030 143.889  0.00  0.00    +0.000 OA
ATOM     25  O   UNL     1     112.471 134.511 144.648  0.00  0.00    +0.000 OA
ATOM     26  O   UNL     1     110.847 134.461 144.357  0.00  0.00    +0.000 OA
ENDBRANCH  22  23
ENDBRANCH   7  22
TORSDOF 4
ENDMDL
MODEL 8
REMARK VINA RESULT:      -8.0     12.720     13.319
REMARK  Name = 44259570
REMARK  4 active torsions:
REMARK  status: ('A' for Active; 'I' for Inactive)
REMARK    1  A    between atoms: S_1  and  O_3
REMARK    2  A    between atoms: O_3  and  C_14
REMARK    3  A    between atoms: O_4  and  C_19
REMARK    4  A    between atoms: C_13  and  C_16
REMARK                            x       y       z     vdW  Elec       q    Type
REMARK                         _______ _______ _______ _____ _____    ______ ____
ROOT
ATOM      1  O   UNL     1     110.269 130.699 136.018  0.00  0.00    +0.000 OA
ATOM      2  O   UNL     1     112.337 131.267 137.953  0.00  0.00    +0.000 OA
ATOM      3  O   UNL     1     111.184 132.124 137.822  0.00  0.00    +0.000 OA
ATOM      4  C   UNL     1     111.292 130.979 136.974  0.00  0.00    +0.000 A 
ATOM      5  C   UNL     1     110.986 130.504 136.373  0.00  0.00    +0.000 A 
ATOM      6  C   UNL     1     109.855 131.370 136.263  0.00  0.00    +0.000 A 
ATOM      7  C   UNL     1     110.160 131.845 136.865  0.00  0.00    +0.000 A 
ATOM      8  C   UNL     1     110.879 131.649 137.221  0.00  0.00    +0.000 A 
ATOM      9  C   UNL     1     112.039 130.786 137.352  0.00  0.00    +0.000 A 
ATOM     10  C   UNL     1     111.408 129.803 136.108  0.00  0.00    +0.000 A 
ATOM     11  C   UNL     1     112.156 129.595 136.474  0.00  0.00    +0.000 A 
ATOM     12  C   UNL     1     112.474 130.089 137.100  0.00  0.00    +0.000 A 
ENDROOT
BRANCH   6  14
ATOM     13  O   UNL     1     106.981 132.151 134.842  0.00  0.00    +0.000 OA
ATOM     14  C   UNL     1     109.137 131.565 135.908  0.00  0.00    +0.000 A 
ATOM     15  C   UNL     1     109.122 132.071 135.256  0.00  0.00    +0.000 A 
ATOM     16  C   UNL     1     108.432 131.255 136.205  0.00  0.00    +0.000 A 
ATOM     17  C   UNL     1     108.405 132.266 134.901  0.00  0.00    +0.000 A 
ATOM     18  C   UNL     1     107.713 131.451 135.849  0.00  0.00    +0.000 A 
ATOM     19  C   UNL     1     107.700 131.956 135.198  0.00  0.00    +0.000 A 
ENDBRANCH   6  14
BRANCH  11  20
ATOM     20  O   UNL     1     112.567 128.924 136.226  0.00  0.00    +0.000 OA
ATOM     21  C   UNL     1     113.128 128.982 135.624  0.00  0.00    +0.000 C 
ENDBRANCH  11  20
BRANCH   7  22
ATOM     22  O   UNL     1     109.748 132.515 137.111  0.00  0.00    +0.000 OA
BRANCH  22  23
ATOM     23  S   UNL     1     109.986 132.921 137.788  0.00  0.00    +0.000 S 
ATOM     24  O   UNL     1     110.225 133.327 138.466  0.00  0.00    +0.000 OA
ATOM     25  O   UNL     1     110.442 133.428 137.324  0.00  0.00    +0.000 OA
ATOM     26  O   UNL     1     109.530 132.415 138.253  0.00  0.00    +0.000 OA
ENDBRANCH  22  23
ENDBRANCH   7  22
TORSDOF 4
ENDMDL
MODEL 9
REMARK VINA RESULT:      -8.0     12.109     12.738
REMARK  Name = 44259570
REMARK  4 active torsions:
REMARK  status: ('A' for Active; 'I' for Inactive)
REMARK    1  A    between atoms: S_1  and  O_3
REMARK    2  A    between atoms: O_3  and  C_14
REMARK    3  A    between atoms: O_4  and  C_19
REMARK    4  A    between atoms: C_13  and  C_16
REMARK                            x       y       z     vdW  Elec       q    Type
REMARK                         _______ _______ _______ _____ _____    ______ ____
ROOT
ATOM      1  O   UNL     1     112.586 126.576 136.612  0.00  0.00    +0.000 OA
ATOM      2  O   UNL     1     111.664 123.867 136.215  0.00  0.00    +0.000 OA
ATOM      3  O   UNL     1     110.853 124.994 135.823  0.00  0.00    +0.000 OA
ATOM      4  C   UNL     1     112.131 125.236 136.416  0.00  0.00    +0.000 A 
ATOM      5  C   UNL     1     112.709 125.763 136.679  0.00  0.00    +0.000 A 
ATOM      6  C   UNL     1     111.886 126.863 136.282  0.00  0.00    +0.000 A 
ATOM      7  C   UNL     1     111.309 126.335 136.019  0.00  0.00    +0.000 A 
ATOM      8  C   UNL     1     111.431 125.522 136.086  0.00  0.00    +0.000 A 
ATOM      9  C   UNL     1     112.247 124.387 136.480  0.00  0.00    +0.000 A 
ATOM     10  C   UNL     1     113.442 125.478 137.025  0.00  0.00    +0.000 A 
ATOM     11  C   UNL     1     113.575 124.632 137.097  0.00  0.00    +0.000 A 
ATOM     12  C   UNL     1     112.974 124.083 136.823  0.00  0.00    +0.000 A 
ENDROOT
BRANCH   6  14
ATOM     13  O   UNL     1     111.396 130.115 136.013  0.00  0.00    +0.000 OA
ATOM     14  C   UNL     1     111.764 127.675 136.215  0.00  0.00    +0.000 A 
ATOM     15  C   UNL     1     111.356 128.082 136.806  0.00  0.00    +0.000 A 
ATOM     16  C   UNL     1     112.049 128.082 135.557  0.00  0.00    +0.000 A 
ATOM     17  C   UNL     1     111.234 128.894 136.739  0.00  0.00    +0.000 A 
ATOM     18  C   UNL     1     111.926 128.896 135.489  0.00  0.00    +0.000 A 
ATOM     19  C   UNL     1     111.519 129.301 136.081  0.00  0.00    +0.000 A 
ENDBRANCH   6  14
BRANCH  11  20
ATOM     20  O   UNL     1     114.276 124.349 137.427  0.00  0.00    +0.000 OA
ATOM     21  C   UNL     1     115.001 124.665 137.193  0.00  0.00    +0.000 C 
ENDBRANCH  11  20
BRANCH   7  22
ATOM     22  O   UNL     1     110.609 126.621 135.689  0.00  0.00    +0.000 OA
BRANCH  22  23
ATOM     23  S   UNL     1     110.108 126.111 135.276  0.00  0.00    +0.000 S 
ATOM     24  O   UNL     1     109.608 125.600 134.864  0.00  0.00    +0.000 OA
ATOM     25  O   UNL     1     110.594 126.172 134.612  0.00  0.00    +0.000 OA
ATOM     26  O   UNL     1     109.623 126.049 135.941  0.00  0.00    +0.000 OA
ENDBRANCH  22  23
ENDBRANCH   7  22
TORSDOF 4
ENDMDL
MODEL 10
REMARK VINA RESULT:      -7.9     11.470     12.899
REMARK  Name = 44259570
REMARK  4 active torsions:
REMARK  status: ('A' for Active; 'I' for Inactive)
REMARK    1  A    between atoms: S_1  and  O_3
REMARK    2  A    between atoms: O_3  and  C_14
REMARK    3  A    between atoms: O_4  and  C_19
REMARK    4  A    between atoms: C_13  and  C_16
REMARK                            x       y       z     vdW  Elec       q    Type
REMARK                         _______ _______ _______ _____ _____    ______ ____
ROOT
ATOM      1  O   UNL     1     112.610 126.488 136.415  0.00  0.00    +0.000 OA
ATOM      2  O   UNL     1     111.267 128.642 135.036  0.00  0.00    +0.000 OA
ATOM      3  O   UNL     1     110.631 127.360 135.212  0.00  0.00    +0.000 OA
ATOM      4  C   UNL     1     111.947 127.554 135.734  0.00  0.00    +0.000 A 
ATOM      5  C   UNL     1     112.607 127.264 136.135  0.00  0.00    +0.000 A 
ATOM      6  C   UNL     1     111.954 126.002 136.295  0.00  0.00    +0.000 A 
ATOM      7  C   UNL     1     111.295 126.293 135.894  0.00  0.00    +0.000 A 
ATOM      8  C   UNL     1     111.291 127.069 135.613  0.00  0.00    +0.000 A 
ATOM      9  C   UNL     1     111.932 128.361 135.436  0.00  0.00    +0.000 A 
ATOM     10  C   UNL     1     113.297 127.760 136.267  0.00  0.00    +0.000 A 
ATOM     11  C   UNL     1     113.299 128.568 135.977  0.00  0.00    +0.000 A 
ATOM     12  C   UNL     1     112.612 128.871 135.559  0.00  0.00    +0.000 A 
ENDROOT
BRANCH   6  14
ATOM     13  O   UNL     1     111.968 122.899 137.418  0.00  0.00    +0.000 OA
ATOM     14  C   UNL     1     111.958 125.227 136.576  0.00  0.00    +0.000 A 
ATOM     15  C   UNL     1     112.327 124.632 136.139  0.00  0.00    +0.000 A 
ATOM     16  C   UNL     1     111.593 125.047 137.293  0.00  0.00    +0.000 A 
ATOM     17  C   UNL     1     112.330 123.856 136.420  0.00  0.00    +0.000 A 
ATOM     18  C   UNL     1     111.596 124.270 137.574  0.00  0.00    +0.000 A 
ATOM     19  C   UNL     1     111.965 123.676 137.137  0.00  0.00    +0.000 A 
ENDBRANCH   6  14
BRANCH  11  20
ATOM     20  O   UNL     1     113.956 129.051 136.098  0.00  0.00    +0.000 OA
ATOM     21  C   UNL     1     114.409 129.302 135.457  0.00  0.00    +0.000 C 
ENDBRANCH  11  20
BRANCH   7  22
ATOM     22  O   UNL     1     110.638 125.808 135.773  0.00  0.00    +0.000 OA
BRANCH  22  23
ATOM     23  S   UNL     1     110.067 126.017 135.216  0.00  0.00    +0.000 S 
ATOM     24  O   UNL     1     109.496 126.226 134.658  0.00  0.00    +0.000 OA
ATOM     25  O   UNL     1     109.583 126.303 135.819  0.00  0.00    +0.000 OA
ATOM     26  O   UNL     1     110.552 125.731 134.612  0.00  0.00    +0.000 OA
ENDBRANCH  22  23
ENDBRANCH   7  22
TORSDOF 4
ENDMDL
