MODEL 1
REMARK VINA RESULT:      -9.0      0.000      0.000
REMARK  Name = 12314653
REMARK  4 active torsions:
REMARK  status: ('A' for Active; 'I' for Inactive)
REMARK    1  A    between atoms: O_2  and  C_15
REMARK    2  A    between atoms: O_2  and  C_17
REMARK    3  A    between atoms: C_14  and  C_16
REMARK    4  A    between atoms: C_18  and  C_26
REMARK                            x       y       z     vdW  Elec       q    Type
REMARK                         _______ _______ _______ _____ _____    ______ ____
ROOT
ATOM      1  O   UNL     1     112.097 127.941 137.047  0.00  0.00    +0.000 OA
ATOM      2  O   UNL     1     114.049 130.639 135.963  0.00  0.00    +0.000 OA
ATOM      3  O   UNL     1     114.500 128.992 135.589  0.00  0.00    +0.000 OA
ATOM      4  C   UNL     1     111.751 130.604 137.409  0.00  0.00    +0.000 A 
ATOM      5  C   UNL     1     112.734 127.306 136.610  0.00  0.00    +0.000 C 
ATOM      6  C   UNL     1     113.535 127.656 136.125  0.00  0.00    +0.000 C 
ATOM      7  C   UNL     1     112.260 128.927 136.997  0.00  0.00    +0.000 A 
ATOM      8  C   UNL     1     113.062 129.277 136.511  0.00  0.00    +0.000 A 
ATOM      9  C   UNL     1     111.588 129.576 137.456  0.00  0.00    +0.000 A 
ATOM     10  C   UNL     1     113.699 128.641 136.075  0.00  0.00    +0.000 C 
ATOM     11  C   UNL     1     112.586 130.968 136.903  0.00  0.00    +0.000 A 
ATOM     12  C   UNL     1     113.245 130.301 136.451  0.00  0.00    +0.000 A 
ENDROOT
BRANCH   5  14
ATOM     13  O   UNL     1     112.082 123.364 136.808  0.00  0.00    +0.000 OA
ATOM     14  C   UNL     1     112.571 126.320 136.660  0.00  0.00    +0.000 A 
ATOM     15  C   UNL     1     111.777 125.921 136.201  0.00  0.00    +0.000 A 
ATOM     16  C   UNL     1     113.203 125.734 137.168  0.00  0.00    +0.000 A 
ATOM     17  C   UNL     1     111.615 124.936 136.251  0.00  0.00    +0.000 A 
ATOM     18  C   UNL     1     113.039 124.749 137.217  0.00  0.00    +0.000 A 
ATOM     19  C   UNL     1     112.245 124.350 136.759  0.00  0.00    +0.000 A 
ENDBRANCH   5  14
BRANCH   4  20
ATOM     20  O   UNL     1     111.112 131.236 137.847  0.00  0.00    +0.000 OA
BRANCH  20  29
ATOM     21  O   UNL     1     110.026 131.188 136.498  0.00  0.00    +0.000 OA
ATOM     22  O   UNL     1     107.779 132.080 138.274  0.00  0.00    +0.000 OA
ATOM     23  O   UNL     1     107.443 131.735 136.333  0.00  0.00    +0.000 OA
ATOM     24  O   UNL     1     109.614 131.831 139.031  0.00  0.00    +0.000 OA
ATOM     25  C   UNL     1     108.528 131.783 137.682  0.00  0.00    +0.000 C 
ATOM     26  C   UNL     1     108.360 131.610 136.712  0.00  0.00    +0.000 C 
ATOM     27  C   UNL     1     109.445 131.658 138.061  0.00  0.00    +0.000 C 
ATOM     28  C   UNL     1     109.109 131.313 136.120  0.00  0.00    +0.000 C 
ATOM     29  C   UNL     1     110.194 131.361 137.469  0.00  0.00    +0.000 C 
BRANCH  28  31
ATOM     30  O   UNL     1     109.588 130.593 134.619  0.00  0.00    +0.000 OA
ATOM     31  C   UNL     1     108.941 131.140 135.149  0.00  0.00    +0.000 C 
ENDBRANCH  28  31
ENDBRANCH  20  29
ENDBRANCH   4  20
TORSDOF 4
ENDMDL
MODEL 2
REMARK VINA RESULT:      -8.9      8.657     11.419
REMARK  Name = 12314653
REMARK  4 active torsions:
REMARK  status: ('A' for Active; 'I' for Inactive)
REMARK    1  A    between atoms: O_2  and  C_15
REMARK    2  A    between atoms: O_2  and  C_17
REMARK    3  A    between atoms: C_14  and  C_16
REMARK    4  A    between atoms: C_18  and  C_26
REMARK                            x       y       z     vdW  Elec       q    Type
REMARK                         _______ _______ _______ _____ _____    ______ ____
ROOT
ATOM      1  O   UNL     1     104.349 129.189 143.259  0.00  0.00    +0.000 OA
ATOM      2  O   UNL     1     105.524 126.669 141.130  0.00  0.00    +0.000 OA
ATOM      3  O   UNL     1     104.316 127.814 140.594  0.00  0.00    +0.000 OA
ATOM      4  C   UNL     1     106.186 127.247 143.700  0.00  0.00    +0.000 A 
ATOM      5  C   UNL     1     103.746 129.520 142.534  0.00  0.00    +0.000 C 
ATOM      6  C   UNL     1     103.735 129.061 141.645  0.00  0.00    +0.000 C 
ATOM      7  C   UNL     1     104.942 128.401 143.096  0.00  0.00    +0.000 A 
ATOM      8  C   UNL     1     104.931 127.942 142.207  0.00  0.00    +0.000 A 
ATOM      9  C   UNL     1     105.566 128.068 143.861  0.00  0.00    +0.000 A 
ATOM     10  C   UNL     1     104.327 128.273 141.482  0.00  0.00    +0.000 C 
ATOM     11  C   UNL     1     106.174 126.770 142.773  0.00  0.00    +0.000 A 
ATOM     12  C   UNL     1     105.543 127.120 142.023  0.00  0.00    +0.000 A 
ENDROOT
BRANCH   5  14
ATOM     13  O   UNL     1     101.374 132.675 143.186  0.00  0.00    +0.000 OA
ATOM     14  C   UNL     1     103.153 130.309 142.697  0.00  0.00    +0.000 A 
ATOM     15  C   UNL     1     102.520 130.614 141.985  0.00  0.00    +0.000 A 
ATOM     16  C   UNL     1     103.193 130.791 143.572  0.00  0.00    +0.000 A 
ATOM     17  C   UNL     1     101.927 131.403 142.149  0.00  0.00    +0.000 A 
ATOM     18  C   UNL     1     102.600 131.580 143.735  0.00  0.00    +0.000 A 
ATOM     19  C   UNL     1     101.967 131.886 143.023  0.00  0.00    +0.000 A 
ENDBRANCH   5  14
BRANCH   4  20
ATOM     20  O   UNL     1     106.789 126.920 144.427  0.00  0.00    +0.000 OA
BRANCH  20  29
ATOM     21  O   UNL     1     105.816 125.540 144.813  0.00  0.00    +0.000 OA
ATOM     22  O   UNL     1     106.705 125.711 147.673  0.00  0.00    +0.000 OA
ATOM     23  O   UNL     1     105.436 124.274 147.105  0.00  0.00    +0.000 OA
ATOM     24  O   UNL     1     107.381 127.034 146.334  0.00  0.00    +0.000 OA
ATOM     25  C   UNL     1     106.409 125.654 146.719  0.00  0.00    +0.000 C 
ATOM     26  C   UNL     1     105.774 124.936 146.435  0.00  0.00    +0.000 C 
ATOM     27  C   UNL     1     106.747 126.316 146.050  0.00  0.00    +0.000 C 
ATOM     28  C   UNL     1     105.478 124.878 145.482  0.00  0.00    +0.000 C 
ATOM     29  C   UNL     1     106.451 126.259 145.097  0.00  0.00    +0.000 C 
BRANCH  28  31
ATOM     30  O   UNL     1     104.727 123.950 144.227  0.00  0.00    +0.000 OA
ATOM     31  C   UNL     1     104.843 124.160 145.198  0.00  0.00    +0.000 C 
ENDBRANCH  28  31
ENDBRANCH  20  29
ENDBRANCH   4  20
TORSDOF 4
ENDMDL
MODEL 3
REMARK VINA RESULT:      -8.7      8.490      9.784
REMARK  Name = 12314653
REMARK  4 active torsions:
REMARK  status: ('A' for Active; 'I' for Inactive)
REMARK    1  A    between atoms: O_2  and  C_15
REMARK    2  A    between atoms: O_2  and  C_17
REMARK    3  A    between atoms: C_14  and  C_16
REMARK    4  A    between atoms: C_18  and  C_26
REMARK                            x       y       z     vdW  Elec       q    Type
REMARK                         _______ _______ _______ _____ _____    ______ ____
ROOT
ATOM      1  O   UNL     1     104.311 129.399 143.034  0.00  0.00    +0.000 OA
ATOM      2  O   UNL     1     102.981 128.687 139.874  0.00  0.00    +0.000 OA
ATOM      3  O   UNL     1     104.235 127.687 140.572  0.00  0.00    +0.000 OA
ATOM      4  C   UNL     1     102.389 130.680 141.620  0.00  0.00    +0.000 A 
ATOM      5  C   UNL     1     104.919 128.609 142.956  0.00  0.00    +0.000 C 
ATOM      6  C   UNL     1     104.893 128.038 142.135  0.00  0.00    +0.000 C 
ATOM      7  C   UNL     1     103.678 129.619 142.292  0.00  0.00    +0.000 A 
ATOM      8  C   UNL     1     103.653 129.048 141.472  0.00  0.00    +0.000 A 
ATOM      9  C   UNL     1     103.051 130.445 142.389  0.00  0.00    +0.000 A 
ATOM     10  C   UNL     1     104.260 128.258 141.393  0.00  0.00    +0.000 C 
ATOM     11  C   UNL     1     102.362 130.086 140.765  0.00  0.00    +0.000 A 
ATOM     12  C   UNL     1     102.998 129.264 140.690  0.00  0.00    +0.000 A 
ENDROOT
BRANCH   5  14
ATOM     13  O   UNL     1     107.453 127.729 145.924  0.00  0.00    +0.000 OA
ATOM     14  C   UNL     1     105.553 128.389 143.698  0.00  0.00    +0.000 A 
ATOM     15  C   UNL     1     106.476 128.774 143.698  0.00  0.00    +0.000 A 
ATOM     16  C   UNL     1     105.263 127.783 144.439  0.00  0.00    +0.000 A 
ATOM     17  C   UNL     1     107.108 128.554 144.441  0.00  0.00    +0.000 A 
ATOM     18  C   UNL     1     105.896 127.563 145.181  0.00  0.00    +0.000 A 
ATOM     19  C   UNL     1     106.819 127.948 145.182  0.00  0.00    +0.000 A 
ENDBRANCH   5  14
BRANCH   4  20
ATOM     20  O   UNL     1     101.782 131.471 141.703  0.00  0.00    +0.000 OA
BRANCH  20  29
ATOM     21  O   UNL     1     102.945 132.491 140.923  0.00  0.00    +0.000 OA
ATOM     22  O   UNL     1     101.480 134.916 141.909  0.00  0.00    +0.000 OA
ATOM     23  O   UNL     1     103.131 135.127 140.801  0.00  0.00    +0.000 OA
ATOM     24  O   UNL     1     100.806 133.088 142.360  0.00  0.00    +0.000 OA
ATOM     25  C   UNL     1     101.968 134.108 141.581  0.00  0.00    +0.000 C 
ATOM     26  C   UNL     1     102.794 134.213 141.026  0.00  0.00    +0.000 C 
ATOM     27  C   UNL     1     101.631 133.194 141.806  0.00  0.00    +0.000 C 
ATOM     28  C   UNL     1     103.282 133.405 140.698  0.00  0.00    +0.000 C 
ATOM     29  C   UNL     1     102.120 132.385 141.477  0.00  0.00    +0.000 C 
BRANCH  28  31
ATOM     30  O   UNL     1     104.786 132.777 140.112  0.00  0.00    +0.000 OA
ATOM     31  C   UNL     1     104.108 133.511 140.143  0.00  0.00    +0.000 C 
ENDBRANCH  28  31
ENDBRANCH  20  29
ENDBRANCH   4  20
TORSDOF 4
ENDMDL
MODEL 4
REMARK VINA RESULT:      -8.7      6.548      9.053
REMARK  Name = 12314653
REMARK  4 active torsions:
REMARK  status: ('A' for Active; 'I' for Inactive)
REMARK    1  A    between atoms: O_2  and  C_15
REMARK    2  A    between atoms: O_2  and  C_17
REMARK    3  A    between atoms: C_14  and  C_16
REMARK    4  A    between atoms: C_18  and  C_26
REMARK                            x       y       z     vdW  Elec       q    Type
REMARK                         _______ _______ _______ _____ _____    ______ ____
ROOT
ATOM      1  O   UNL     1     111.696 131.004 145.097  0.00  0.00    +0.000 OA
ATOM      2  O   UNL     1     111.223 131.878 141.739  0.00  0.00    +0.000 OA
ATOM      3  O   UNL     1     111.650 133.081 142.933  0.00  0.00    +0.000 OA
ATOM      4  C   UNL     1     111.039 129.463 142.968  0.00  0.00    +0.000 A 
ATOM      5  C   UNL     1     111.900 131.958 145.315  0.00  0.00    +0.000 C 
ATOM      6  C   UNL     1     111.885 132.650 144.594  0.00  0.00    +0.000 C 
ATOM      7  C   UNL     1     111.477 130.741 144.157  0.00  0.00    +0.000 A 
ATOM      8  C   UNL     1     111.462 131.435 143.436  0.00  0.00    +0.000 A 
ATOM      9  C   UNL     1     111.268 129.744 143.944  0.00  0.00    +0.000 A 
ATOM     10  C   UNL     1     111.666 132.389 143.654  0.00  0.00    +0.000 C 
ATOM     11  C   UNL     1     111.023 130.185 142.216  0.00  0.00    +0.000 A 
ATOM     12  C   UNL     1     111.236 131.177 142.452  0.00  0.00    +0.000 A 
ENDROOT
BRANCH   5  14
ATOM     13  O   UNL     1     112.775 133.007 149.075  0.00  0.00    +0.000 OA
ATOM     14  C   UNL     1     112.119 132.220 146.256  0.00  0.00    +0.000 A 
ATOM     15  C   UNL     1     112.962 131.894 146.682  0.00  0.00    +0.000 A 
ATOM     16  C   UNL     1     111.494 132.809 146.768  0.00  0.00    +0.000 A 
ATOM     17  C   UNL     1     113.180 132.156 147.622  0.00  0.00    +0.000 A 
ATOM     18  C   UNL     1     111.713 133.071 147.708  0.00  0.00    +0.000 A 
ATOM     19  C   UNL     1     112.556 132.745 148.135  0.00  0.00    +0.000 A 
ENDBRANCH   5  14
BRANCH   4  20
ATOM     20  O   UNL     1     110.836 128.508 142.753  0.00  0.00    +0.000 OA
BRANCH  20  29
ATOM     21  O   UNL     1     112.320 128.329 141.878  0.00  0.00    +0.000 OA
ATOM     22  O   UNL     1     111.206 125.920 140.479  0.00  0.00    +0.000 OA
ATOM     23  O   UNL     1     113.062 126.544 140.071  0.00  0.00    +0.000 OA
ATOM     24  O   UNL     1     110.093 126.902 141.820  0.00  0.00    +0.000 OA
ATOM     25  C   UNL     1     111.577 126.723 140.946  0.00  0.00    +0.000 C 
ATOM     26  C   UNL     1     112.505 127.035 140.742  0.00  0.00    +0.000 C 
ATOM     27  C   UNL     1     111.021 127.214 141.616  0.00  0.00    +0.000 C 
ATOM     28  C   UNL     1     112.876 127.838 141.208  0.00  0.00    +0.000 C 
ATOM     29  C   UNL     1     111.392 128.017 142.082  0.00  0.00    +0.000 C 
BRANCH  28  31
ATOM     30  O   UNL     1     114.056 129.106 141.158  0.00  0.00    +0.000 OA
ATOM     31  C   UNL     1     113.804 128.150 141.004  0.00  0.00    +0.000 C 
ENDBRANCH  28  31
ENDBRANCH  20  29
ENDBRANCH   4  20
TORSDOF 4
ENDMDL
MODEL 5
REMARK VINA RESULT:      -8.6      1.981      2.963
REMARK  Name = 12314653
REMARK  4 active torsions:
REMARK  status: ('A' for Active; 'I' for Inactive)
REMARK    1  A    between atoms: O_2  and  C_15
REMARK    2  A    between atoms: O_2  and  C_17
REMARK    3  A    between atoms: C_14  and  C_16
REMARK    4  A    between atoms: C_18  and  C_26
REMARK                            x       y       z     vdW  Elec       q    Type
REMARK                         _______ _______ _______ _____ _____    ______ ____
ROOT
ATOM      1  O   UNL     1     112.695 127.456 138.111  0.00  0.00    +0.000 OA
ATOM      2  O   UNL     1     114.090 129.027 140.913  0.00  0.00    +0.000 OA
ATOM      3  O   UNL     1     114.120 127.287 140.745  0.00  0.00    +0.000 OA
ATOM      4  C   UNL     1     112.852 130.087 138.740  0.00  0.00    +0.000 A 
ATOM      5  C   UNL     1     112.955 126.565 138.482  0.00  0.00    +0.000 C 
ATOM      6  C   UNL     1     113.430 126.509 139.360  0.00  0.00    +0.000 C 
ATOM      7  C   UNL     1     112.910 128.291 138.618  0.00  0.00    +0.000 A 
ATOM      8  C   UNL     1     113.385 128.234 139.496  0.00  0.00    +0.000 A 
ATOM      9  C   UNL     1     112.632 129.212 138.219  0.00  0.00    +0.000 A 
ATOM     10  C   UNL     1     113.645 127.343 139.867  0.00  0.00    +0.000 C 
ATOM     11  C   UNL     1     113.347 130.027 139.655  0.00  0.00    +0.000 A 
ATOM     12  C   UNL     1     113.615 129.096 140.036  0.00  0.00    +0.000 A 
ENDROOT
BRANCH   5  14
ATOM     13  O   UNL     1     112.096 123.225 136.455  0.00  0.00    +0.000 OA
ATOM     14  C   UNL     1     112.740 125.730 137.975  0.00  0.00    +0.000 A 
ATOM     15  C   UNL     1     113.455 125.263 137.455  0.00  0.00    +0.000 A 
ATOM     16  C   UNL     1     111.810 125.362 137.989  0.00  0.00    +0.000 A 
ATOM     17  C   UNL     1     113.240 124.428 136.949  0.00  0.00    +0.000 A 
ATOM     18  C   UNL     1     111.596 124.527 137.483  0.00  0.00    +0.000 A 
ATOM     19  C   UNL     1     112.310 124.060 136.962  0.00  0.00    +0.000 A 
ENDBRANCH   5  14
BRANCH   4  20
ATOM     20  O   UNL     1     112.590 130.976 138.366  0.00  0.00    +0.000 OA
BRANCH  20  29
ATOM     21  O   UNL     1     111.076 131.071 139.202  0.00  0.00    +0.000 OA
ATOM     22  O   UNL     1     109.887 132.551 136.880  0.00  0.00    +0.000 OA
ATOM     23  O   UNL     1     108.769 132.152 138.490  0.00  0.00    +0.000 OA
ATOM     24  O   UNL     1     111.797 131.963 136.818  0.00  0.00    +0.000 OA
ATOM     25  C   UNL     1     110.283 132.058 137.654  0.00  0.00    +0.000 C 
ATOM     26  C   UNL     1     109.725 131.858 138.459  0.00  0.00    +0.000 C 
ATOM     27  C   UNL     1     111.239 131.764 137.623  0.00  0.00    +0.000 C 
ATOM     28  C   UNL     1     110.121 131.365 139.233  0.00  0.00    +0.000 C 
ATOM     29  C   UNL     1     111.635 131.270 138.397  0.00  0.00    +0.000 C 
BRANCH  28  31
ATOM     30  O   UNL     1     109.937 131.308 140.954  0.00  0.00    +0.000 OA
ATOM     31  C   UNL     1     109.562 131.165 140.038  0.00  0.00    +0.000 C 
ENDBRANCH  28  31
ENDBRANCH  20  29
ENDBRANCH   4  20
TORSDOF 4
ENDMDL
MODEL 6
REMARK VINA RESULT:      -8.6      9.715     12.034
REMARK  Name = 12314653
REMARK  4 active torsions:
REMARK  status: ('A' for Active; 'I' for Inactive)
REMARK    1  A    between atoms: O_2  and  C_15
REMARK    2  A    between atoms: O_2  and  C_17
REMARK    3  A    between atoms: C_14  and  C_16
REMARK    4  A    between atoms: C_18  and  C_26
REMARK                            x       y       z     vdW  Elec       q    Type
REMARK                         _______ _______ _______ _____ _____    ______ ____
ROOT
ATOM      1  O   UNL     1     105.270 128.080 143.897  0.00  0.00    +0.000 OA
ATOM      2  O   UNL     1     106.305 129.551 146.902  0.00  0.00    +0.000 OA
ATOM      3  O   UNL     1     105.357 130.447 145.738  0.00  0.00    +0.000 OA
ATOM      4  C   UNL     1     106.729 127.049 145.934  0.00  0.00    +0.000 A 
ATOM      5  C   UNL     1     104.815 128.932 143.638  0.00  0.00    +0.000 C 
ATOM      6  C   UNL     1     104.844 129.721 144.252  0.00  0.00    +0.000 C 
ATOM      7  C   UNL     1     105.754 128.017 144.770  0.00  0.00    +0.000 A 
ATOM      8  C   UNL     1     105.783 128.806 145.384  0.00  0.00    +0.000 A 
ATOM      9  C   UNL     1     106.223 127.123 145.026  0.00  0.00    +0.000 A 
ATOM     10  C   UNL     1     105.328 129.658 145.124  0.00  0.00    +0.000 C 
ATOM     11  C   UNL     1     106.759 127.872 146.573  0.00  0.00    +0.000 A 
ATOM     12  C   UNL     1     106.283 128.755 146.296  0.00  0.00    +0.000 A 
ENDROOT
BRANCH   5  14
ATOM     13  O   UNL     1     102.880 129.185 140.146  0.00  0.00    +0.000 OA
ATOM     14  C   UNL     1     104.331 128.995 142.765  0.00  0.00    +0.000 A 
ATOM     15  C   UNL     1     103.647 129.711 142.623  0.00  0.00    +0.000 A 
ATOM     16  C   UNL     1     104.532 128.343 142.034  0.00  0.00    +0.000 A 
ATOM     17  C   UNL     1     103.164 129.773 141.750  0.00  0.00    +0.000 A 
ATOM     18  C   UNL     1     104.048 128.406 141.161  0.00  0.00    +0.000 A 
ATOM     19  C   UNL     1     103.364 129.121 141.019  0.00  0.00    +0.000 A 
ENDBRANCH   5  14
BRANCH   4  20
ATOM     20  O   UNL     1     107.183 126.196 146.189  0.00  0.00    +0.000 OA
BRANCH  20  29
ATOM     21  O   UNL     1     105.903 125.576 147.177  0.00  0.00    +0.000 OA
ATOM     22  O   UNL     1     107.923 124.405 149.061  0.00  0.00    +0.000 OA
ATOM     23  O   UNL     1     105.969 124.176 149.421  0.00  0.00    +0.000 OA
ATOM     24  O   UNL     1     108.530 125.415 147.445  0.00  0.00    +0.000 OA
ATOM     25  C   UNL     1     107.250 124.795 148.433  0.00  0.00    +0.000 C 
ATOM     26  C   UNL     1     106.273 124.681 148.613  0.00  0.00    +0.000 C 
ATOM     27  C   UNL     1     107.553 125.300 147.625  0.00  0.00    +0.000 C 
ATOM     28  C   UNL     1     105.599 125.071 147.985  0.00  0.00    +0.000 C 
ATOM     29  C   UNL     1     106.880 125.691 146.997  0.00  0.00    +0.000 C 
BRANCH  28  31
ATOM     30  O   UNL     1     103.949 125.341 147.534  0.00  0.00    +0.000 OA
ATOM     31  C   UNL     1     104.623 124.956 148.166  0.00  0.00    +0.000 C 
ENDBRANCH  28  31
ENDBRANCH  20  29
ENDBRANCH   4  20
TORSDOF 4
ENDMDL
MODEL 7
REMARK VINA RESULT:      -8.5      6.726      8.816
REMARK  Name = 12314653
REMARK  4 active torsions:
REMARK  status: ('A' for Active; 'I' for Inactive)
REMARK    1  A    between atoms: O_2  and  C_15
REMARK    2  A    between atoms: O_2  and  C_17
REMARK    3  A    between atoms: C_14  and  C_16
REMARK    4  A    between atoms: C_18  and  C_26
REMARK                            x       y       z     vdW  Elec       q    Type
REMARK                         _______ _______ _______ _____ _____    ______ ____
ROOT
ATOM      1  O   UNL     1     111.307 131.051 145.196  0.00  0.00    +0.000 OA
ATOM      2  O   UNL     1     111.914 131.218 141.751  0.00  0.00    +0.000 OA
ATOM      3  O   UNL     1     112.650 132.359 142.854  0.00  0.00    +0.000 OA
ATOM      4  C   UNL     1     110.376 129.497 143.182  0.00  0.00    +0.000 A 
ATOM      5  C   UNL     1     111.903 131.841 145.339  0.00  0.00    +0.000 C 
ATOM      6  C   UNL     1     112.350 132.277 144.558  0.00  0.00    +0.000 C 
ATOM      7  C   UNL     1     111.159 130.696 144.273  0.00  0.00    +0.000 A 
ATOM      8  C   UNL     1     111.607 131.133 143.492  0.00  0.00    +0.000 A 
ATOM      9  C   UNL     1     110.536 129.873 144.140  0.00  0.00    +0.000 A 
ATOM     10  C   UNL     1     112.202 131.923 143.635  0.00  0.00    +0.000 C 
ATOM     11  C   UNL     1     110.843 129.952 142.369  0.00  0.00    +0.000 A 
ATOM     12  C   UNL     1     111.461 130.774 142.525  0.00  0.00    +0.000 A 
ENDROOT
BRANCH   5  14
ATOM     13  O   UNL     1     112.498 133.259 149.032  0.00  0.00    +0.000 OA
ATOM     14  C   UNL     1     112.052 132.196 146.262  0.00  0.00    +0.000 A 
ATOM     15  C   UNL     1     111.383 132.815 146.674  0.00  0.00    +0.000 A 
ATOM     16  C   UNL     1     112.869 131.931 146.773  0.00  0.00    +0.000 A 
ATOM     17  C   UNL     1     111.532 133.169 147.597  0.00  0.00    +0.000 A 
ATOM     18  C   UNL     1     113.018 132.285 147.697  0.00  0.00    +0.000 A 
ATOM     19  C   UNL     1     112.349 132.905 148.108  0.00  0.00    +0.000 A 
ENDBRANCH   5  14
BRANCH   4  20
ATOM     20  O   UNL     1     109.780 128.707 143.043  0.00  0.00    +0.000 OA
BRANCH  20  29
ATOM     21  O   UNL     1     108.440 129.728 142.639  0.00  0.00    +0.000 OA
ATOM     22  O   UNL     1     107.038 127.392 141.383  0.00  0.00    +0.000 OA
ATOM     23  O   UNL     1     106.166 129.191 141.397  0.00  0.00    +0.000 OA
ATOM     24  O   UNL     1     108.845 127.149 142.206  0.00  0.00    +0.000 OA
ATOM     25  C   UNL     1     107.506 128.170 141.802  0.00  0.00    +0.000 C 
ATOM     26  C   UNL     1     107.070 129.070 141.809  0.00  0.00    +0.000 C 
ATOM     27  C   UNL     1     108.409 128.049 142.213  0.00  0.00    +0.000 C 
ATOM     28  C   UNL     1     107.537 129.849 142.227  0.00  0.00    +0.000 C 
ATOM     29  C   UNL     1     108.876 128.828 142.632  0.00  0.00    +0.000 C 
BRANCH  28  31
ATOM     30  O   UNL     1     107.636 131.562 142.463  0.00  0.00    +0.000 OA
ATOM     31  C   UNL     1     107.101 130.749 142.234  0.00  0.00    +0.000 C 
ENDBRANCH  28  31
ENDBRANCH  20  29
ENDBRANCH   4  20
TORSDOF 4
ENDMDL
MODEL 8
REMARK VINA RESULT:      -8.4      2.050      2.970
REMARK  Name = 12314653
REMARK  4 active torsions:
REMARK  status: ('A' for Active; 'I' for Inactive)
REMARK    1  A    between atoms: O_2  and  C_15
REMARK    2  A    between atoms: O_2  and  C_17
REMARK    3  A    between atoms: C_14  and  C_16
REMARK    4  A    between atoms: C_18  and  C_26
REMARK                            x       y       z     vdW  Elec       q    Type
REMARK                         _______ _______ _______ _____ _____    ______ ____
ROOT
ATOM      1  O   UNL     1     111.758 127.749 137.772  0.00  0.00    +0.000 OA
ATOM      2  O   UNL     1     110.806 129.364 140.730  0.00  0.00    +0.000 OA
ATOM      3  O   UNL     1     112.242 128.368 140.667  0.00  0.00    +0.000 OA
ATOM      4  C   UNL     1     109.637 129.356 138.279  0.00  0.00    +0.000 A 
ATOM      5  C   UNL     1     112.552 127.362 138.240  0.00  0.00    +0.000 C 
ATOM      6  C   UNL     1     112.714 127.569 139.205  0.00  0.00    +0.000 C 
ATOM      7  C   UNL     1     111.124 128.342 138.269  0.00  0.00    +0.000 A 
ATOM      8  C   UNL     1     111.286 128.548 139.234  0.00  0.00    +0.000 A 
ATOM      9  C   UNL     1     110.301 128.738 137.768  0.00  0.00    +0.000 A 
ATOM     10  C   UNL     1     112.081 128.162 139.702  0.00  0.00    +0.000 C 
ATOM     11  C   UNL     1     109.806 129.571 139.284  0.00  0.00    +0.000 A 
ATOM     12  C   UNL     1     110.635 129.165 139.765  0.00  0.00    +0.000 A 
ENDROOT
BRANCH   5  14
ATOM     13  O   UNL     1     115.086 124.989 136.253  0.00  0.00    +0.000 OA
ATOM     14  C   UNL     1     113.186 126.769 137.743  0.00  0.00    +0.000 A 
ATOM     15  C   UNL     1     113.497 127.024 136.828  0.00  0.00    +0.000 A 
ATOM     16  C   UNL     1     113.508 125.920 138.162  0.00  0.00    +0.000 A 
ATOM     17  C   UNL     1     114.131 126.431 136.331  0.00  0.00    +0.000 A 
ATOM     18  C   UNL     1     114.142 125.326 137.665  0.00  0.00    +0.000 A 
ATOM     19  C   UNL     1     114.453 125.582 136.750  0.00  0.00    +0.000 A 
ENDBRANCH   5  14
BRANCH   4  20
ATOM     20  O   UNL     1     108.843 129.741 137.808  0.00  0.00    +0.000 OA
BRANCH  20  29
ATOM     21  O   UNL     1     109.571 131.272 137.449  0.00  0.00    +0.000 OA
ATOM     22  O   UNL     1     108.066 131.380 134.856  0.00  0.00    +0.000 OA
ATOM     23  O   UNL     1     109.295 132.874 135.362  0.00  0.00    +0.000 OA
ATOM     24  O   UNL     1     107.840 129.813 136.079  0.00  0.00    +0.000 OA
ATOM     25  C   UNL     1     108.568 131.344 135.720  0.00  0.00    +0.000 C 
ATOM     26  C   UNL     1     109.182 132.091 135.973  0.00  0.00    +0.000 C 
ATOM     27  C   UNL     1     108.455 130.561 136.332  0.00  0.00    +0.000 C 
ATOM     28  C   UNL     1     109.684 132.055 136.838  0.00  0.00    +0.000 C 
ATOM     29  C   UNL     1     108.956 130.525 137.196  0.00  0.00    +0.000 C 
BRANCH  28  31
ATOM     30  O   UNL     1     110.434 133.033 138.054  0.00  0.00    +0.000 OA
ATOM     31  C   UNL     1     110.298 132.802 137.091  0.00  0.00    +0.000 C 
ENDBRANCH  28  31
ENDBRANCH  20  29
ENDBRANCH   4  20
TORSDOF 4
ENDMDL
MODEL 9
REMARK VINA RESULT:      -8.4      1.208      2.185
REMARK  Name = 12314653
REMARK  4 active torsions:
REMARK  status: ('A' for Active; 'I' for Inactive)
REMARK    1  A    between atoms: O_2  and  C_15
REMARK    2  A    between atoms: O_2  and  C_17
REMARK    3  A    between atoms: C_14  and  C_16
REMARK    4  A    between atoms: C_18  and  C_26
REMARK                            x       y       z     vdW  Elec       q    Type
REMARK                         _______ _______ _______ _____ _____    ______ ____
ROOT
ATOM      1  O   UNL     1     111.768 127.401 136.788  0.00  0.00    +0.000 OA
ATOM      2  O   UNL     1     113.623 130.246 135.934  0.00  0.00    +0.000 OA
ATOM      3  O   UNL     1     114.317 128.645 135.811  0.00  0.00    +0.000 OA
ATOM      4  C   UNL     1     111.072 130.018 136.836  0.00  0.00    +0.000 A 
ATOM      5  C   UNL     1     112.551 126.822 136.559  0.00  0.00    +0.000 C 
ATOM      6  C   UNL     1     113.401 127.238 136.234  0.00  0.00    +0.000 C 
ATOM      7  C   UNL     1     111.834 128.394 136.692  0.00  0.00    +0.000 A 
ATOM      8  C   UNL     1     112.684 128.808 136.366  0.00  0.00    +0.000 A 
ATOM      9  C   UNL     1     111.011 128.983 136.934  0.00  0.00    +0.000 A 
ATOM     10  C   UNL     1     113.468 128.230 136.137  0.00  0.00    +0.000 C 
ATOM     11  C   UNL     1     111.957 130.450 136.497  0.00  0.00    +0.000 A 
ATOM     12  C   UNL     1     112.768 129.842 136.260  0.00  0.00    +0.000 A 
ENDROOT
BRANCH   5  14
ATOM     13  O   UNL     1     112.288 122.849 136.946  0.00  0.00    +0.000 OA
ATOM     14  C   UNL     1     112.485 125.829 136.656  0.00  0.00    +0.000 A 
ATOM     15  C   UNL     1     111.666 125.349 136.342  0.00  0.00    +0.000 A 
ATOM     16  C   UNL     1     113.240 125.316 137.066  0.00  0.00    +0.000 A 
ATOM     17  C   UNL     1     111.601 124.356 136.439  0.00  0.00    +0.000 A 
ATOM     18  C   UNL     1     113.173 124.323 137.163  0.00  0.00    +0.000 A 
ATOM     19  C   UNL     1     112.354 123.843 136.849  0.00  0.00    +0.000 A 
ENDBRANCH   5  14
BRANCH   4  20
ATOM     20  O   UNL     1     110.287 130.593 137.066  0.00  0.00    +0.000 OA
BRANCH  20  29
ATOM     21  O   UNL     1     110.738 130.674 138.736  0.00  0.00    +0.000 OA
ATOM     22  O   UNL     1     107.905 131.331 139.471  0.00  0.00    +0.000 OA
ATOM     23  O   UNL     1     109.301 131.193 140.896  0.00  0.00    +0.000 OA
ATOM     24  O   UNL     1     108.397 131.031 137.556  0.00  0.00    +0.000 OA
ATOM     25  C   UNL     1     108.849 131.112 139.226  0.00  0.00    +0.000 C 
ATOM     26  C   UNL     1     109.547 131.043 139.939  0.00  0.00    +0.000 C 
ATOM     27  C   UNL     1     109.096 130.962 138.269  0.00  0.00    +0.000 C 
ATOM     28  C   UNL     1     110.492 130.824 139.694  0.00  0.00    +0.000 C 
ATOM     29  C   UNL     1     110.040 130.743 138.024  0.00  0.00    +0.000 C 
BRANCH  28  31
ATOM     30  O   UNL     1     112.159 130.781 140.161  0.00  0.00    +0.000 OA
ATOM     31  C   UNL     1     111.190 130.755 140.407  0.00  0.00    +0.000 C 
ENDBRANCH  28  31
ENDBRANCH  20  29
ENDBRANCH   4  20
TORSDOF 4
ENDMDL
MODEL 10
REMARK VINA RESULT:      -8.4      2.151      2.975
REMARK  Name = 12314653
REMARK  4 active torsions:
REMARK  status: ('A' for Active; 'I' for Inactive)
REMARK    1  A    between atoms: O_2  and  C_15
REMARK    2  A    between atoms: O_2  and  C_17
REMARK    3  A    between atoms: C_14  and  C_16
REMARK    4  A    between atoms: C_18  and  C_26
REMARK                            x       y       z     vdW  Elec       q    Type
REMARK                         _______ _______ _______ _____ _____    ______ ____
ROOT
ATOM      1  O   UNL     1     112.877 127.556 137.828  0.00  0.00    +0.000 OA
ATOM      2  O   UNL     1     114.077 130.610 136.606  0.00  0.00    +0.000 OA
ATOM      3  O   UNL     1     113.897 129.225 135.554  0.00  0.00    +0.000 OA
ATOM      4  C   UNL     1     113.297 129.906 139.109  0.00  0.00    +0.000 A 
ATOM      5  C   UNL     1     112.964 127.157 136.915  0.00  0.00    +0.000 C 
ATOM      6  C   UNL     1     113.304 127.714 136.157  0.00  0.00    +0.000 C 
ATOM      7  C   UNL     1     113.130 128.511 137.983  0.00  0.00    +0.000 A 
ATOM      8  C   UNL     1     113.471 129.067 137.225  0.00  0.00    +0.000 A 
ATOM      9  C   UNL     1     113.035 128.912 138.939  0.00  0.00    +0.000 A 
ATOM     10  C   UNL     1     113.557 128.669 136.312  0.00  0.00    +0.000 C 
ATOM     11  C   UNL     1     113.651 130.485 138.319  0.00  0.00    +0.000 A 
ATOM     12  C   UNL     1     113.738 130.063 137.371  0.00  0.00    +0.000 A 
ENDROOT
BRANCH   5  14
ATOM     13  O   UNL     1     111.951 123.338 136.293  0.00  0.00    +0.000 OA
ATOM     14  C   UNL     1     112.710 126.202 136.759  0.00  0.00    +0.000 A 
ATOM     15  C   UNL     1     111.805 125.977 136.398  0.00  0.00    +0.000 A 
ATOM     16  C   UNL     1     113.363 125.473 136.965  0.00  0.00    +0.000 A 
ATOM     17  C   UNL     1     111.553 125.022 136.243  0.00  0.00    +0.000 A 
ATOM     18  C   UNL     1     113.109 124.518 136.810  0.00  0.00    +0.000 A 
ATOM     19  C   UNL     1     112.204 124.293 136.449  0.00  0.00    +0.000 A 
ENDBRANCH   5  14
BRANCH   4  20
ATOM     20  O   UNL     1     113.209 130.300 140.024  0.00  0.00    +0.000 OA
BRANCH  20  29
ATOM     21  O   UNL     1     111.603 130.909 139.801  0.00  0.00    +0.000 OA
ATOM     22  O   UNL     1     110.989 130.347 142.683  0.00  0.00    +0.000 OA
ATOM     23  O   UNL     1     109.587 131.143 141.499  0.00  0.00    +0.000 OA
ATOM     24  O   UNL     1     112.800 129.926 141.945  0.00  0.00    +0.000 OA
ATOM     25  C   UNL     1     111.193 130.534 141.722  0.00  0.00    +0.000 C 
ATOM     26  C   UNL     1     110.493 130.932 141.130  0.00  0.00    +0.000 C 
ATOM     27  C   UNL     1     112.099 130.324 141.353  0.00  0.00    +0.000 C 
ATOM     28  C   UNL     1     110.697 131.120 140.169  0.00  0.00    +0.000 C 
ATOM     29  C   UNL     1     112.303 130.511 140.393  0.00  0.00    +0.000 C 
BRANCH  28  31
ATOM     30  O   UNL     1     110.261 132.118 138.823  0.00  0.00    +0.000 OA
ATOM     31  C   UNL     1     109.996 131.518 139.577  0.00  0.00    +0.000 C 
ENDBRANCH  28  31
ENDBRANCH  20  29
ENDBRANCH   4  20
TORSDOF 4
ENDMDL
