MODEL 1
REMARK VINA RESULT:      -9.4      0.000      0.000
REMARK  Name = 131835070
REMARK  5 active torsions:
REMARK  status: ('A' for Active; 'I' for Inactive)
REMARK    1  A    between atoms: O_2  and  C_18
REMARK    2  A    between atoms: O_2  and  C_21
REMARK    3  A    between atoms: O_13  and  C_33
REMARK    4  A    between atoms: C_19  and  C_20
REMARK    5  A    between atoms: C_22  and  C_26
REMARK                            x       y       z     vdW  Elec       q    Type
REMARK                         _______ _______ _______ _____ _____    ______ ____
ROOT
ATOM      1  O   UNL     1     113.457 127.039 136.468  0.00  0.00    +0.000 OA
ATOM      2  O   UNL     1     110.623 126.761 135.524  0.00  0.00    +0.000 OA
ATOM      3  O   UNL     1     110.633 125.051 135.888  0.00  0.00    +0.000 OA
ATOM      4  O   UNL     1     111.631 123.405 136.588  0.00  0.00    +0.000 OA
ATOM      5  O   UNL     1     113.566 123.594 137.233  0.00  0.00    +0.000 OA
ATOM      6  C   UNL     1     112.019 127.746 135.810  0.00  0.00    +0.000 A 
ATOM      7  C   UNL     1     112.963 127.839 136.125  0.00  0.00    +0.000 A 
ATOM      8  C   UNL     1     111.567 126.854 135.839  0.00  0.00    +0.000 A 
ATOM      9  C   UNL     1     112.061 126.055 136.182  0.00  0.00    +0.000 A 
ATOM     10  C   UNL     1     113.005 126.147 136.496  0.00  0.00    +0.000 A 
ATOM     11  C   UNL     1     111.578 125.132 136.206  0.00  0.00    +0.000 A 
ATOM     12  C   UNL     1     113.533 125.324 136.857  0.00  0.00    +0.000 A 
ATOM     13  C   UNL     1     112.085 124.295 136.562  0.00  0.00    +0.000 A 
ATOM     14  C   UNL     1     113.069 124.391 136.889  0.00  0.00    +0.000 A 
ENDROOT
BRANCH   7  16
ATOM     15  O   UNL     1     114.768 131.406 136.011  0.00  0.00    +0.000 OA
ATOM     16  C   UNL     1     113.414 128.731 136.096  0.00  0.00    +0.000 A 
ATOM     17  C   UNL     1     113.487 129.281 136.928  0.00  0.00    +0.000 A 
ATOM     18  C   UNL     1     113.793 129.072 135.236  0.00  0.00    +0.000 A 
ATOM     19  C   UNL     1     113.938 130.173 136.900  0.00  0.00    +0.000 A 
ATOM     20  C   UNL     1     114.244 129.964 135.208  0.00  0.00    +0.000 A 
ATOM     21  C   UNL     1     114.317 130.514 136.039  0.00  0.00    +0.000 A 
BRANCH  19  22
ATOM     22  O   UNL     1     114.011 130.723 137.731  0.00  0.00    +0.000 OA
ATOM     23  C   UNL     1     113.702 130.350 138.606  0.00  0.00    +0.000 C 
ENDBRANCH  19  22
ENDBRANCH   7  16
BRANCH   6  24
ATOM     24  O   UNL     1     111.525 128.545 135.467  0.00  0.00    +0.000 OA
BRANCH  24  32
ATOM     25  O   UNL     1     110.684 128.708 136.973  0.00  0.00    +0.000 OA
ATOM     26  O   UNL     1     108.756 130.614 135.690  0.00  0.00    +0.000 OA
ATOM     27  O   UNL     1     110.239 129.816 134.612  0.00  0.00    +0.000 OA
ATOM     28  O   UNL     1     108.558 130.141 137.623  0.00  0.00    +0.000 OA
ATOM     29  C   UNL     1     109.398 129.979 136.118  0.00  0.00    +0.000 C 
ATOM     30  C   UNL     1     110.140 129.580 135.579  0.00  0.00    +0.000 C 
ATOM     31  C   UNL     1     109.300 129.742 137.084  0.00  0.00    +0.000 C 
ATOM     32  C   UNL     1     110.783 128.944 136.006  0.00  0.00    +0.000 C 
ATOM     33  C   UNL     1     109.943 129.107 137.512  0.00  0.00    +0.000 C 
BRANCH  33  36
ATOM     34  O   UNL     1     110.256 129.452 139.180  0.00  0.00    +0.000 OA
ATOM     35  O   UNL     1     109.333 128.052 138.743  0.00  0.00    +0.000 OA
ATOM     36  C   UNL     1     109.844 128.870 138.478  0.00  0.00    +0.000 C 
ENDBRANCH  33  36
ENDBRANCH  24  32
ENDBRANCH   6  24
TORSDOF 5
ENDMDL
MODEL 2
REMARK VINA RESULT:      -9.4      2.240      5.404
REMARK  Name = 131835070
REMARK  5 active torsions:
REMARK  status: ('A' for Active; 'I' for Inactive)
REMARK    1  A    between atoms: O_2  and  C_18
REMARK    2  A    between atoms: O_2  and  C_21
REMARK    3  A    between atoms: O_13  and  C_33
REMARK    4  A    between atoms: C_19  and  C_20
REMARK    5  A    between atoms: C_22  and  C_26
REMARK                            x       y       z     vdW  Elec       q    Type
REMARK                         _______ _______ _______ _____ _____    ______ ____
ROOT
ATOM      1  O   UNL     1     113.756 127.904 136.199  0.00  0.00    +0.000 OA
ATOM      2  O   UNL     1     112.160 129.387 138.262  0.00  0.00    +0.000 OA
ATOM      3  O   UNL     1     112.836 130.912 137.738  0.00  0.00    +0.000 OA
ATOM      4  O   UNL     1     114.080 131.950 136.485  0.00  0.00    +0.000 OA
ATOM      5  O   UNL     1     115.170 130.938 135.076  0.00  0.00    +0.000 OA
ATOM      6  C   UNL     1     112.614 127.898 137.502  0.00  0.00    +0.000 A 
ATOM      7  C   UNL     1     113.146 127.404 136.814  0.00  0.00    +0.000 A 
ATOM      8  C   UNL     1     112.692 128.892 137.574  0.00  0.00    +0.000 A 
ATOM      9  C   UNL     1     113.302 129.392 136.959  0.00  0.00    +0.000 A 
ATOM     10  C   UNL     1     113.833 128.898 136.272  0.00  0.00    +0.000 A 
ATOM     11  C   UNL     1     113.372 130.428 137.047  0.00  0.00    +0.000 A 
ATOM     12  C   UNL     1     114.473 129.406 135.624  0.00  0.00    +0.000 A 
ATOM     13  C   UNL     1     114.005 130.956 136.410  0.00  0.00    +0.000 A 
ATOM     14  C   UNL     1     114.559 130.441 135.693  0.00  0.00    +0.000 A 
ENDROOT
BRANCH   7  16
ATOM     15  O   UNL     1     112.835 123.427 136.524  0.00  0.00    +0.000 OA
ATOM     16  C   UNL     1     113.068 126.410 136.742  0.00  0.00    +0.000 A 
ATOM     17  C   UNL     1     112.238 125.999 136.364  0.00  0.00    +0.000 A 
ATOM     18  C   UNL     1     113.820 125.826 137.047  0.00  0.00    +0.000 A 
ATOM     19  C   UNL     1     112.161 125.005 136.291  0.00  0.00    +0.000 A 
ATOM     20  C   UNL     1     113.743 124.831 136.975  0.00  0.00    +0.000 A 
ATOM     21  C   UNL     1     112.913 124.421 136.597  0.00  0.00    +0.000 A 
BRANCH  19  22
ATOM     22  O   UNL     1     111.331 124.595 135.913  0.00  0.00    +0.000 OA
ATOM     23  C   UNL     1     110.608 125.178 135.544  0.00  0.00    +0.000 C 
ENDBRANCH  19  22
ENDBRANCH   7  16
BRANCH   6  24
ATOM     24  O   UNL     1     112.005 127.398 138.117  0.00  0.00    +0.000 OA
BRANCH  24  32
ATOM     25  O   UNL     1     113.168 127.540 139.392  0.00  0.00    +0.000 OA
ATOM     26  O   UNL     1     111.224 126.288 141.304  0.00  0.00    +0.000 OA
ATOM     27  O   UNL     1     110.709 126.563 139.391  0.00  0.00    +0.000 OA
ATOM     28  O   UNL     1     113.035 126.847 141.942  0.00  0.00    +0.000 OA
ATOM     29  C   UNL     1     111.872 126.705 140.667  0.00  0.00    +0.000 C 
ATOM     30  C   UNL     1     111.614 126.843 139.711  0.00  0.00    +0.000 C 
ATOM     31  C   UNL     1     112.778 126.985 140.986  0.00  0.00    +0.000 C 
ATOM     32  C   UNL     1     112.262 127.260 139.073  0.00  0.00    +0.000 C 
ATOM     33  C   UNL     1     113.425 127.402 140.349  0.00  0.00    +0.000 C 
BRANCH  33  36
ATOM     34  O   UNL     1     114.529 128.649 140.824  0.00  0.00    +0.000 OA
ATOM     35  O   UNL     1     115.038 126.994 140.831  0.00  0.00    +0.000 OA
ATOM     36  C   UNL     1     114.331 127.682 140.668  0.00  0.00    +0.000 C 
ENDBRANCH  33  36
ENDBRANCH  24  32
ENDBRANCH   6  24
TORSDOF 5
ENDMDL
MODEL 3
REMARK VINA RESULT:      -9.0      1.431      4.952
REMARK  Name = 131835070
REMARK  5 active torsions:
REMARK  status: ('A' for Active; 'I' for Inactive)
REMARK    1  A    between atoms: O_2  and  C_18
REMARK    2  A    between atoms: O_2  and  C_21
REMARK    3  A    between atoms: O_13  and  C_33
REMARK    4  A    between atoms: C_19  and  C_20
REMARK    5  A    between atoms: C_22  and  C_26
REMARK                            x       y       z     vdW  Elec       q    Type
REMARK                         _______ _______ _______ _____ _____    ______ ____
ROOT
ATOM      1  O   UNL     1     113.576 127.643 136.086  0.00  0.00    +0.000 OA
ATOM      2  O   UNL     1     113.204 129.069 138.699  0.00  0.00    +0.000 OA
ATOM      3  O   UNL     1     113.802 130.561 138.010  0.00  0.00    +0.000 OA
ATOM      4  O   UNL     1     114.542 131.584 136.397  0.00  0.00    +0.000 OA
ATOM      5  O   UNL     1     114.796 130.611 134.612  0.00  0.00    +0.000 OA
ATOM      6  C   UNL     1     113.092 127.625 137.749  0.00  0.00    +0.000 A 
ATOM      7  C   UNL     1     113.216 127.150 136.878  0.00  0.00    +0.000 A 
ATOM      8  C   UNL     1     113.328 128.594 137.828  0.00  0.00    +0.000 A 
ATOM      9  C   UNL     1     113.689 129.087 137.036  0.00  0.00    +0.000 A 
ATOM     10  C   UNL     1     113.813 128.612 136.165  0.00  0.00    +0.000 A 
ATOM     11  C   UNL     1     113.930 130.095 137.134  0.00  0.00    +0.000 A 
ATOM     12  C   UNL     1     114.187 129.112 135.331  0.00  0.00    +0.000 A 
ATOM     13  C   UNL     1     114.307 130.616 136.313  0.00  0.00    +0.000 A 
ATOM     14  C   UNL     1     114.436 130.121 135.406  0.00  0.00    +0.000 A 
ENDROOT
BRANCH   7  16
ATOM     15  O   UNL     1     112.270 123.277 136.561  0.00  0.00    +0.000 OA
ATOM     16  C   UNL     1     112.979 126.182 136.799  0.00  0.00    +0.000 A 
ATOM     17  C   UNL     1     112.130 125.910 136.347  0.00  0.00    +0.000 A 
ATOM     18  C   UNL     1     113.593 125.485 137.171  0.00  0.00    +0.000 A 
ATOM     19  C   UNL     1     111.893 124.941 136.268  0.00  0.00    +0.000 A 
ATOM     20  C   UNL     1     113.356 124.517 137.092  0.00  0.00    +0.000 A 
ATOM     21  C   UNL     1     112.506 124.245 136.640  0.00  0.00    +0.000 A 
BRANCH  19  22
ATOM     22  O   UNL     1     111.044 124.670 135.816  0.00  0.00    +0.000 OA
ATOM     23  C   UNL     1     110.432 125.366 135.440  0.00  0.00    +0.000 C 
ENDBRANCH  19  22
ENDBRANCH   7  16
BRANCH   6  24
ATOM     24  O   UNL     1     112.731 127.132 138.541  0.00  0.00    +0.000 OA
BRANCH  24  32
ATOM     25  O   UNL     1     111.185 127.880 138.317  0.00  0.00    +0.000 OA
ATOM     26  O   UNL     1     110.260 126.751 140.938  0.00  0.00    +0.000 OA
ATOM     27  O   UNL     1     112.115 126.380 140.288  0.00  0.00    +0.000 OA
ATOM     28  O   UNL     1     109.022 127.875 139.840  0.00  0.00    +0.000 OA
ATOM     29  C   UNL     1     110.568 127.127 140.064  0.00  0.00    +0.000 C 
ATOM     30  C   UNL     1     111.496 126.942 139.739  0.00  0.00    +0.000 C 
ATOM     31  C   UNL     1     109.949 127.689 139.515  0.00  0.00    +0.000 C 
ATOM     32  C   UNL     1     111.804 127.318 138.866  0.00  0.00    +0.000 C 
ATOM     33  C   UNL     1     110.258 128.065 138.642  0.00  0.00    +0.000 C 
BRANCH  33  36
ATOM     34  O   UNL     1     109.132 128.218 137.334  0.00  0.00    +0.000 OA
ATOM     35  O   UNL     1     109.526 129.598 138.303  0.00  0.00    +0.000 OA
ATOM     36  C   UNL     1     109.639 128.627 138.093  0.00  0.00    +0.000 C 
ENDBRANCH  33  36
ENDBRANCH  24  32
ENDBRANCH   6  24
TORSDOF 5
ENDMDL
MODEL 4
REMARK VINA RESULT:      -9.0      1.123      3.486
REMARK  Name = 131835070
REMARK  5 active torsions:
REMARK  status: ('A' for Active; 'I' for Inactive)
REMARK    1  A    between atoms: O_2  and  C_18
REMARK    2  A    between atoms: O_2  and  C_21
REMARK    3  A    between atoms: O_13  and  C_33
REMARK    4  A    between atoms: C_19  and  C_20
REMARK    5  A    between atoms: C_22  and  C_26
REMARK                            x       y       z     vdW  Elec       q    Type
REMARK                         _______ _______ _______ _____ _____    ______ ____
ROOT
ATOM      1  O   UNL     1     110.986 126.439 136.350  0.00  0.00    +0.000 OA
ATOM      2  O   UNL     1     113.888 127.200 136.361  0.00  0.00    +0.000 OA
ATOM      3  O   UNL     1     114.352 125.561 136.759  0.00  0.00    +0.000 OA
ATOM      4  O   UNL     1     113.813 123.627 137.161  0.00  0.00    +0.000 OA
ATOM      5  O   UNL     1     111.831 123.107 137.154  0.00  0.00    +0.000 OA
ATOM      6  C   UNL     1     112.224 127.635 136.158  0.00  0.00    +0.000 A 
ATOM      7  C   UNL     1     111.257 127.382 136.155  0.00  0.00    +0.000 A 
ATOM      8  C   UNL     1     112.921 126.946 136.357  0.00  0.00    +0.000 A 
ATOM      9  C   UNL     1     112.650 126.004 136.553  0.00  0.00    +0.000 A 
ATOM     10  C   UNL     1     111.683 125.750 136.549  0.00  0.00    +0.000 A 
ATOM     11  C   UNL     1     113.387 125.297 136.758  0.00  0.00    +0.000 A 
ATOM     12  C   UNL     1     111.386 124.772 136.751  0.00  0.00    +0.000 A 
ATOM     13  C   UNL     1     113.113 124.313 136.962  0.00  0.00    +0.000 A 
ATOM     14  C   UNL     1     112.106 124.048 136.959  0.00  0.00    +0.000 A 
ENDROOT
BRANCH   7  16
ATOM     15  O   UNL     1     108.470 130.139 135.359  0.00  0.00    +0.000 OA
ATOM     16  C   UNL     1     110.560 128.071 135.956  0.00  0.00    +0.000 A 
ATOM     17  C   UNL     1     110.046 128.492 136.703  0.00  0.00    +0.000 A 
ATOM     18  C   UNL     1     110.378 128.339 135.010  0.00  0.00    +0.000 A 
ATOM     19  C   UNL     1     109.349 129.181 136.504  0.00  0.00    +0.000 A 
ATOM     20  C   UNL     1     109.681 129.029 134.811  0.00  0.00    +0.000 A 
ATOM     21  C   UNL     1     109.167 129.450 135.558  0.00  0.00    +0.000 A 
BRANCH  19  22
ATOM     22  O   UNL     1     108.835 129.602 137.251  0.00  0.00    +0.000 OA
ATOM     23  C   UNL     1     109.294 129.826 138.111  0.00  0.00    +0.000 C 
ENDBRANCH  19  22
ENDBRANCH   7  16
BRANCH   6  24
ATOM     24  O   UNL     1     112.495 128.578 135.963  0.00  0.00    +0.000 OA
BRANCH  24  32
ATOM     25  O   UNL     1     112.754 128.879 137.649  0.00  0.00    +0.000 OA
ATOM     26  O   UNL     1     114.170 131.437 136.974  0.00  0.00    +0.000 OA
ATOM     27  O   UNL     1     113.438 130.283 135.513  0.00  0.00    +0.000 OA
ATOM     28  O   UNL     1     113.957 130.886 138.885  0.00  0.00    +0.000 OA
ATOM     29  C   UNL     1     113.698 130.584 137.199  0.00  0.00    +0.000 C 
ATOM     30  C   UNL     1     113.332 130.008 136.468  0.00  0.00    +0.000 C 
ATOM     31  C   UNL     1     113.591 130.309 138.154  0.00  0.00    +0.000 C 
ATOM     32  C   UNL     1     112.860 129.155 136.693  0.00  0.00    +0.000 C 
ATOM     33  C   UNL     1     113.120 129.456 138.379  0.00  0.00    +0.000 C 
BRANCH  33  36
ATOM     34  O   UNL     1     112.260 129.548 139.880  0.00  0.00    +0.000 OA
ATOM     35  O   UNL     1     113.660 128.538 139.744  0.00  0.00    +0.000 OA
ATOM     36  C   UNL     1     113.013 129.181 139.334  0.00  0.00    +0.000 C 
ENDBRANCH  33  36
ENDBRANCH  24  32
ENDBRANCH   6  24
TORSDOF 5
ENDMDL
MODEL 5
REMARK VINA RESULT:      -8.9      1.952      5.051
REMARK  Name = 131835070
REMARK  5 active torsions:
REMARK  status: ('A' for Active; 'I' for Inactive)
REMARK    1  A    between atoms: O_2  and  C_18
REMARK    2  A    between atoms: O_2  and  C_21
REMARK    3  A    between atoms: O_13  and  C_33
REMARK    4  A    between atoms: C_19  and  C_20
REMARK    5  A    between atoms: C_22  and  C_26
REMARK                            x       y       z     vdW  Elec       q    Type
REMARK                         _______ _______ _______ _____ _____    ______ ____
ROOT
ATOM      1  O   UNL     1     111.358 127.984 135.985  0.00  0.00    +0.000 OA
ATOM      2  O   UNL     1     110.105 128.306 138.691  0.00  0.00    +0.000 OA
ATOM      3  O   UNL     1     108.936 129.440 138.054  0.00  0.00    +0.000 OA
ATOM      4  O   UNL     1     108.181 130.483 136.461  0.00  0.00    +0.000 OA
ATOM      5  O   UNL     1     109.037 130.264 134.612  0.00  0.00    +0.000 OA
ATOM      6  C   UNL     1     111.303 127.585 137.669  0.00  0.00    +0.000 A 
ATOM      7  C   UNL     1     111.721 127.478 136.767  0.00  0.00    +0.000 A 
ATOM      8  C   UNL     1     110.523 128.199 137.789  0.00  0.00    +0.000 A 
ATOM      9  C   UNL     1     110.159 128.705 137.007  0.00  0.00    +0.000 A 
ATOM     10  C   UNL     1     110.577 128.598 136.105  0.00  0.00    +0.000 A 
ATOM     11  C   UNL     1     109.346 129.340 137.147  0.00  0.00    +0.000 A 
ATOM     12  C   UNL     1     110.210 129.119 135.280  0.00  0.00    +0.000 A 
ATOM     13  C   UNL     1     108.962 129.871 136.337  0.00  0.00    +0.000 A 
ATOM     14  C   UNL     1     109.397 129.759 135.397  0.00  0.00    +0.000 A 
ENDROOT
BRANCH   7  16
ATOM     15  O   UNL     1     114.843 125.025 136.287  0.00  0.00    +0.000 OA
ATOM     16  C   UNL     1     112.501 126.865 136.647  0.00  0.00    +0.000 A 
ATOM     17  C   UNL     1     112.363 125.875 136.640  0.00  0.00    +0.000 A 
ATOM     18  C   UNL     1     113.421 127.242 136.533  0.00  0.00    +0.000 A 
ATOM     19  C   UNL     1     113.143 125.261 136.520  0.00  0.00    +0.000 A 
ATOM     20  C   UNL     1     114.201 126.628 136.413  0.00  0.00    +0.000 A 
ATOM     21  C   UNL     1     114.062 125.638 136.407  0.00  0.00    +0.000 A 
BRANCH  19  22
ATOM     22  O   UNL     1     113.005 124.271 136.514  0.00  0.00    +0.000 OA
ATOM     23  C   UNL     1     112.150 123.883 136.861  0.00  0.00    +0.000 C 
ENDBRANCH  19  22
ENDBRANCH   7  16
BRANCH   6  24
ATOM     24  O   UNL     1     111.666 127.079 138.451  0.00  0.00    +0.000 OA
BRANCH  24  32
ATOM     25  O   UNL     1     112.468 128.505 139.020  0.00  0.00    +0.000 OA
ATOM     26  O   UNL     1     113.118 127.112 141.596  0.00  0.00    +0.000 OA
ATOM     27  O   UNL     1     112.100 126.150 140.169  0.00  0.00    +0.000 OA
ATOM     28  O   UNL     1     113.703 129.002 141.307  0.00  0.00    +0.000 OA
ATOM     29  C   UNL     1     112.901 127.576 140.738  0.00  0.00    +0.000 C 
ATOM     30  C   UNL     1     112.392 127.096 140.024  0.00  0.00    +0.000 C 
ATOM     31  C   UNL     1     113.194 128.521 140.593  0.00  0.00    +0.000 C 
ATOM     32  C   UNL     1     112.175 127.560 139.165  0.00  0.00    +0.000 C 
ATOM     33  C   UNL     1     112.977 128.986 139.734  0.00  0.00    +0.000 C 
BRANCH  33  36
ATOM     34  O   UNL     1     114.178 130.122 139.217  0.00  0.00    +0.000 OA
ATOM     35  O   UNL     1     112.654 130.686 139.817  0.00  0.00    +0.000 OA
ATOM     36  C   UNL     1     113.270 129.931 139.590  0.00  0.00    +0.000 C 
ENDBRANCH  33  36
ENDBRANCH  24  32
ENDBRANCH   6  24
TORSDOF 5
ENDMDL
MODEL 6
REMARK VINA RESULT:      -8.9      2.327      3.215
REMARK  Name = 131835070
REMARK  5 active torsions:
REMARK  status: ('A' for Active; 'I' for Inactive)
REMARK    1  A    between atoms: O_2  and  C_18
REMARK    2  A    between atoms: O_2  and  C_21
REMARK    3  A    between atoms: O_13  and  C_33
REMARK    4  A    between atoms: C_19  and  C_20
REMARK    5  A    between atoms: C_22  and  C_26
REMARK                            x       y       z     vdW  Elec       q    Type
REMARK                         _______ _______ _______ _____ _____    ______ ____
ROOT
ATOM      1  O   UNL     1     112.718 128.004 139.159  0.00  0.00    +0.000 OA
ATOM      2  O   UNL     1     111.299 129.114 136.761  0.00  0.00    +0.000 OA
ATOM      3  O   UNL     1     110.714 127.523 136.328  0.00  0.00    +0.000 OA
ATOM      4  O   UNL     1     110.612 125.516 136.723  0.00  0.00    +0.000 OA
ATOM      5  O   UNL     1     111.582 124.758 138.361  0.00  0.00    +0.000 OA
ATOM      6  C   UNL     1     112.291 129.353 138.161  0.00  0.00    +0.000 A 
ATOM      7  C   UNL     1     112.764 128.983 138.960  0.00  0.00    +0.000 A 
ATOM      8  C   UNL     1     111.772 128.744 137.560  0.00  0.00    +0.000 A 
ATOM      9  C   UNL     1     111.727 127.765 137.760  0.00  0.00    +0.000 A 
ATOM     10  C   UNL     1     112.200 127.395 138.559  0.00  0.00    +0.000 A 
ATOM     11  C   UNL     1     111.183 127.143 137.125  0.00  0.00    +0.000 A 
ATOM     12  C   UNL     1     112.162 126.377 138.780  0.00  0.00    +0.000 A 
ATOM     13  C   UNL     1     111.132 126.122 137.326  0.00  0.00    +0.000 A 
ATOM     14  C   UNL     1     111.624 125.736 138.159  0.00  0.00    +0.000 A 
ENDROOT
BRANCH   7  16
ATOM     15  O   UNL     1     114.837 131.419 141.362  0.00  0.00    +0.000 OA
ATOM     16  C   UNL     1     113.282 129.592 139.561  0.00  0.00    +0.000 A 
ATOM     17  C   UNL     1     112.926 129.823 140.466  0.00  0.00    +0.000 A 
ATOM     18  C   UNL     1     114.156 129.970 139.256  0.00  0.00    +0.000 A 
ATOM     19  C   UNL     1     113.444 130.432 141.067  0.00  0.00    +0.000 A 
ATOM     20  C   UNL     1     114.674 130.579 139.856  0.00  0.00    +0.000 A 
ATOM     21  C   UNL     1     114.318 130.810 140.761  0.00  0.00    +0.000 A 
BRANCH  19  22
ATOM     22  O   UNL     1     113.089 130.663 141.972  0.00  0.00    +0.000 OA
ATOM     23  C   UNL     1     112.130 130.485 142.193  0.00  0.00    +0.000 C 
ENDBRANCH  19  22
ENDBRANCH   7  16
BRANCH   6  24
ATOM     24  O   UNL     1     112.336 130.332 137.962  0.00  0.00    +0.000 OA
BRANCH  24  32
ATOM     25  O   UNL     1     110.795 130.633 138.692  0.00  0.00    +0.000 OA
ATOM     26  O   UNL     1     110.510 133.134 137.060  0.00  0.00    +0.000 OA
ATOM     27  O   UNL     1     112.146 131.999 136.873  0.00  0.00    +0.000 OA
ATOM     28  O   UNL     1     109.064 132.602 138.335  0.00  0.00    +0.000 OA
ATOM     29  C   UNL     1     110.605 132.300 137.604  0.00  0.00    +0.000 C 
ATOM     30  C   UNL     1     111.423 131.733 137.511  0.00  0.00    +0.000 C 
ATOM     31  C   UNL     1     109.882 132.034 138.242  0.00  0.00    +0.000 C 
ATOM     32  C   UNL     1     111.518 130.899 138.055  0.00  0.00    +0.000 C 
ATOM     33  C   UNL     1     109.977 131.200 138.786  0.00  0.00    +0.000 C 
BRANCH  33  36
ATOM     34  O   UNL     1     108.585 130.239 139.159  0.00  0.00    +0.000 OA
ATOM     35  O   UNL     1     109.199 131.363 140.325  0.00  0.00    +0.000 OA
ATOM     36  C   UNL     1     109.253 130.934 139.423  0.00  0.00    +0.000 C 
ENDBRANCH  33  36
ENDBRANCH  24  32
ENDBRANCH   6  24
TORSDOF 5
ENDMDL
MODEL 7
REMARK VINA RESULT:      -8.9      1.908      4.763
REMARK  Name = 131835070
REMARK  5 active torsions:
REMARK  status: ('A' for Active; 'I' for Inactive)
REMARK    1  A    between atoms: O_2  and  C_18
REMARK    2  A    between atoms: O_2  and  C_21
REMARK    3  A    between atoms: O_13  and  C_33
REMARK    4  A    between atoms: C_19  and  C_20
REMARK    5  A    between atoms: C_22  and  C_26
REMARK                            x       y       z     vdW  Elec       q    Type
REMARK                         _______ _______ _______ _____ _____    ______ ____
ROOT
ATOM      1  O   UNL     1     111.470 126.250 139.601  0.00  0.00    +0.000 OA
ATOM      2  O   UNL     1     110.320 128.567 138.082  0.00  0.00    +0.000 OA
ATOM      3  O   UNL     1     109.111 128.823 139.320  0.00  0.00    +0.000 OA
ATOM      4  O   UNL     1     108.280 128.276 141.110  0.00  0.00    +0.000 OA
ATOM      5  O   UNL     1     109.065 126.694 142.148  0.00  0.00    +0.000 OA
ATOM      6  C   UNL     1     111.487 127.295 138.220  0.00  0.00    +0.000 A 
ATOM      7  C   UNL     1     111.871 126.522 138.727  0.00  0.00    +0.000 A 
ATOM      8  C   UNL     1     110.703 127.794 138.589  0.00  0.00    +0.000 A 
ATOM      9  C   UNL     1     110.303 127.522 139.463  0.00  0.00    +0.000 A 
ATOM     10  C   UNL     1     110.686 126.750 139.970  0.00  0.00    +0.000 A 
ATOM     11  C   UNL     1     109.487 128.052 139.834  0.00  0.00    +0.000 A 
ATOM     12  C   UNL     1     110.280 126.454 140.883  0.00  0.00    +0.000 A 
ATOM     13  C   UNL     1     109.064 127.774 140.745  0.00  0.00    +0.000 A 
ATOM     14  C   UNL     1     109.463 126.970 141.273  0.00  0.00    +0.000 A 
ENDROOT
BRANCH   7  16
ATOM     15  O   UNL     1     115.006 124.523 137.253  0.00  0.00    +0.000 OA
ATOM     16  C   UNL     1     112.655 126.023 138.358  0.00  0.00    +0.000 A 
ATOM     17  C   UNL     1     112.518 125.327 137.652  0.00  0.00    +0.000 A 
ATOM     18  C   UNL     1     113.575 126.218 138.695  0.00  0.00    +0.000 A 
ATOM     19  C   UNL     1     113.301 124.828 137.284  0.00  0.00    +0.000 A 
ATOM     20  C   UNL     1     114.359 125.718 138.327  0.00  0.00    +0.000 A 
ATOM     21  C   UNL     1     114.222 125.023 137.621  0.00  0.00    +0.000 A 
BRANCH  19  22
ATOM     22  O   UNL     1     113.164 124.133 136.578  0.00  0.00    +0.000 OA
ATOM     23  C   UNL     1     112.249 123.769 136.406  0.00  0.00    +0.000 C 
ENDBRANCH  19  22
ENDBRANCH   7  16
BRANCH   6  24
ATOM     24  O   UNL     1     111.888 127.567 137.345  0.00  0.00    +0.000 OA
BRANCH  24  32
ATOM     25  O   UNL     1     112.642 128.928 138.106  0.00  0.00    +0.000 OA
ATOM     26  O   UNL     1     113.528 129.936 135.423  0.00  0.00    +0.000 OA
ATOM     27  O   UNL     1     112.478 128.239 135.557  0.00  0.00    +0.000 OA
ATOM     28  O   UNL     1     113.987 130.961 137.078  0.00  0.00    +0.000 OA
ATOM     29  C   UNL     1     113.233 129.600 136.317  0.00  0.00    +0.000 C 
ATOM     30  C   UNL     1     112.708 128.752 136.384  0.00  0.00    +0.000 C 
ATOM     31  C   UNL     1     113.462 130.113 137.144  0.00  0.00    +0.000 C 
ATOM     32  C   UNL     1     112.413 128.416 137.278  0.00  0.00    +0.000 C 
ATOM     33  C   UNL     1     113.167 129.777 138.039  0.00  0.00    +0.000 C 
BRANCH  33  36
ATOM     34  O   UNL     1     114.307 130.202 139.272  0.00  0.00    +0.000 OA
ATOM     35  O   UNL     1     112.716 130.888 139.288  0.00  0.00    +0.000 OA
ATOM     36  C   UNL     1     113.397 130.289 138.866  0.00  0.00    +0.000 C 
ENDBRANCH  33  36
ENDBRANCH  24  32
ENDBRANCH   6  24
TORSDOF 5
ENDMDL
MODEL 8
REMARK VINA RESULT:      -8.7      2.050      3.262
REMARK  Name = 131835070
REMARK  5 active torsions:
REMARK  status: ('A' for Active; 'I' for Inactive)
REMARK    1  A    between atoms: O_2  and  C_18
REMARK    2  A    between atoms: O_2  and  C_21
REMARK    3  A    between atoms: O_13  and  C_33
REMARK    4  A    between atoms: C_19  and  C_20
REMARK    5  A    between atoms: C_22  and  C_26
REMARK                            x       y       z     vdW  Elec       q    Type
REMARK                         _______ _______ _______ _____ _____    ______ ____
ROOT
ATOM      1  O   UNL     1     113.586 127.117 139.023  0.00  0.00    +0.000 OA
ATOM      2  O   UNL     1     110.852 126.509 137.947  0.00  0.00    +0.000 OA
ATOM      3  O   UNL     1     111.465 125.118 137.082  0.00  0.00    +0.000 OA
ATOM      4  O   UNL     1     113.041 123.913 136.575  0.00  0.00    +0.000 OA
ATOM      5  O   UNL     1     114.908 124.327 137.309  0.00  0.00    +0.000 OA
ATOM      6  C   UNL     1     111.900 127.498 138.908  0.00  0.00    +0.000 A 
ATOM      7  C   UNL     1     112.811 127.701 139.267  0.00  0.00    +0.000 A 
ATOM      8  C   UNL     1     111.763 126.711 138.306  0.00  0.00    +0.000 A 
ATOM      9  C   UNL     1     112.538 126.127 138.063  0.00  0.00    +0.000 A 
ATOM     10  C   UNL     1     113.449 126.330 138.421  0.00  0.00    +0.000 A 
ATOM     11  C   UNL     1     112.380 125.311 137.435  0.00  0.00    +0.000 A 
ATOM     12  C   UNL     1     114.266 125.731 138.177  0.00  0.00    +0.000 A 
ATOM     13  C   UNL     1     113.182 124.698 137.177  0.00  0.00    +0.000 A 
ATOM     14  C   UNL     1     114.131 124.909 137.550  0.00  0.00    +0.000 A 
ENDROOT
BRANCH   7  16
ATOM     15  O   UNL     1     113.358 130.848 141.674  0.00  0.00    +0.000 OA
ATOM     16  C   UNL     1     112.948 128.488 139.868  0.00  0.00    +0.000 A 
ATOM     17  C   UNL     1     112.610 128.462 140.809  0.00  0.00    +0.000 A 
ATOM     18  C   UNL     1     113.424 129.300 139.530  0.00  0.00    +0.000 A 
ATOM     19  C   UNL     1     112.746 129.249 141.411  0.00  0.00    +0.000 A 
ATOM     20  C   UNL     1     113.560 130.086 140.132  0.00  0.00    +0.000 A 
ATOM     21  C   UNL     1     113.222 130.061 141.072  0.00  0.00    +0.000 A 
BRANCH  19  22
ATOM     22  O   UNL     1     112.408 129.224 142.351  0.00  0.00    +0.000 OA
ATOM     23  C   UNL     1     111.761 128.514 142.631  0.00  0.00    +0.000 C 
ENDBRANCH  19  22
ENDBRANCH   7  16
BRANCH   6  24
ATOM     24  O   UNL     1     111.126 128.082 139.151  0.00  0.00    +0.000 OA
BRANCH  24  32
ATOM     25  O   UNL     1     111.239 128.904 137.631  0.00  0.00    +0.000 OA
ATOM     26  O   UNL     1     108.569 130.181 138.122  0.00  0.00    +0.000 OA
ATOM     27  O   UNL     1     109.346 128.934 139.479  0.00  0.00    +0.000 OA
ATOM     28  O   UNL     1     109.572 130.576 136.438  0.00  0.00    +0.000 OA
ATOM     29  C   UNL     1     109.459 129.755 137.958  0.00  0.00    +0.000 C 
ATOM     30  C   UNL     1     109.847 129.131 138.637  0.00  0.00    +0.000 C 
ATOM     31  C   UNL     1     109.960 129.953 137.116  0.00  0.00    +0.000 C 
ATOM     32  C   UNL     1     110.737 128.706 138.473  0.00  0.00    +0.000 C 
ATOM     33  C   UNL     1     110.850 129.527 136.952  0.00  0.00    +0.000 C 
BRANCH  33  36
ATOM     34  O   UNL     1     111.115 129.249 135.263  0.00  0.00    +0.000 OA
ATOM     35  O   UNL     1     112.090 130.399 136.114  0.00  0.00    +0.000 OA
ATOM     36  C   UNL     1     111.352 129.725 136.110  0.00  0.00    +0.000 C 
ENDBRANCH  33  36
ENDBRANCH  24  32
ENDBRANCH   6  24
TORSDOF 5
ENDMDL
MODEL 9
REMARK VINA RESULT:      -8.7      2.451      5.253
REMARK  Name = 131835070
REMARK  5 active torsions:
REMARK  status: ('A' for Active; 'I' for Inactive)
REMARK    1  A    between atoms: O_2  and  C_18
REMARK    2  A    between atoms: O_2  and  C_21
REMARK    3  A    between atoms: O_13  and  C_33
REMARK    4  A    between atoms: C_19  and  C_20
REMARK    5  A    between atoms: C_22  and  C_26
REMARK                            x       y       z     vdW  Elec       q    Type
REMARK                         _______ _______ _______ _____ _____    ______ ____
ROOT
ATOM      1  O   UNL     1     110.968 130.224 136.315  0.00  0.00    +0.000 OA
ATOM      2  O   UNL     1     111.307 131.589 138.965  0.00  0.00    +0.000 OA
ATOM      3  O   UNL     1     109.635 132.101 138.954  0.00  0.00    +0.000 OA
ATOM      4  O   UNL     1     107.813 132.147 138.019  0.00  0.00    +0.000 OA
ATOM      5  O   UNL     1     107.581 131.215 136.209  0.00  0.00    +0.000 OA
ATOM      6  C   UNL     1     111.967 130.661 137.660  0.00  0.00    +0.000 A 
ATOM      7  C   UNL     1     111.855 130.206 136.777  0.00  0.00    +0.000 A 
ATOM      8  C   UNL     1     111.194 131.134 138.081  0.00  0.00    +0.000 A 
ATOM      9  C   UNL     1     110.307 131.152 137.619  0.00  0.00    +0.000 A 
ATOM     10  C   UNL     1     110.194 130.697 136.736  0.00  0.00    +0.000 A 
ATOM     11  C   UNL     1     109.510 131.649 138.070  0.00  0.00    +0.000 A 
ATOM     12  C   UNL     1     109.276 130.708 136.242  0.00  0.00    +0.000 A 
ATOM     13  C   UNL     1     108.584 131.672 137.595  0.00  0.00    +0.000 A 
ATOM     14  C   UNL     1     108.466 131.199 136.675  0.00  0.00    +0.000 A 
ENDROOT
BRANCH   7  16
ATOM     15  O   UNL     1     114.949 128.312 135.092  0.00  0.00    +0.000 OA
ATOM     16  C   UNL     1     112.628 129.732 136.356  0.00  0.00    +0.000 A 
ATOM     17  C   UNL     1     113.387 130.258 135.972  0.00  0.00    +0.000 A 
ATOM     18  C   UNL     1     112.643 128.733 136.318  0.00  0.00    +0.000 A 
ATOM     19  C   UNL     1     114.161 129.785 135.551  0.00  0.00    +0.000 A 
ATOM     20  C   UNL     1     113.416 128.260 135.897  0.00  0.00    +0.000 A 
ATOM     21  C   UNL     1     114.176 128.786 135.513  0.00  0.00    +0.000 A 
BRANCH  19  22
ATOM     22  O   UNL     1     114.920 130.311 135.168  0.00  0.00    +0.000 OA
ATOM     23  C   UNL     1     115.041 131.271 135.419  0.00  0.00    +0.000 C 
ENDBRANCH  19  22
ENDBRANCH   7  16
BRANCH   6  24
ATOM     24  O   UNL     1     112.854 130.642 138.122  0.00  0.00    +0.000 OA
BRANCH  24  32
ATOM     25  O   UNL     1     112.316 129.367 139.163  0.00  0.00    +0.000 OA
ATOM     26  O   UNL     1     114.690 129.815 140.941  0.00  0.00    +0.000 OA
ATOM     27  O   UNL     1     114.437 130.941 139.307  0.00  0.00    +0.000 OA
ATOM     28  O   UNL     1     113.361 128.391 141.389  0.00  0.00    +0.000 OA
ATOM     29  C   UNL     1     113.899 129.666 140.348  0.00  0.00    +0.000 C 
ATOM     30  C   UNL     1     113.772 130.229 139.532  0.00  0.00    +0.000 C 
ATOM     31  C   UNL     1     113.234 128.953 140.573  0.00  0.00    +0.000 C 
ATOM     32  C   UNL     1     112.981 130.079 138.939  0.00  0.00    +0.000 C 
ATOM     33  C   UNL     1     112.442 128.804 139.980  0.00  0.00    +0.000 C 
BRANCH  33  36
ATOM     34  O   UNL     1     111.916 127.157 139.876  0.00  0.00    +0.000 OA
ATOM     35  O   UNL     1     110.974 128.313 140.757  0.00  0.00    +0.000 OA
ATOM     36  C   UNL     1     111.777 128.092 140.204  0.00  0.00    +0.000 C 
ENDBRANCH  33  36
ENDBRANCH  24  32
ENDBRANCH   6  24
TORSDOF 5
ENDMDL
MODEL 10
REMARK VINA RESULT:      -8.7      2.255      4.909
REMARK  Name = 131835070
REMARK  5 active torsions:
REMARK  status: ('A' for Active; 'I' for Inactive)
REMARK    1  A    between atoms: O_2  and  C_18
REMARK    2  A    between atoms: O_2  and  C_21
REMARK    3  A    between atoms: O_13  and  C_33
REMARK    4  A    between atoms: C_19  and  C_20
REMARK    5  A    between atoms: C_22  and  C_26
REMARK                            x       y       z     vdW  Elec       q    Type
REMARK                         _______ _______ _______ _____ _____    ______ ____
ROOT
ATOM      1  O   UNL     1     112.006 126.893 140.028  0.00  0.00    +0.000 OA
ATOM      2  O   UNL     1     112.921 129.518 138.900  0.00  0.00    +0.000 OA
ATOM      3  O   UNL     1     112.738 130.290 140.459  0.00  0.00    +0.000 OA
ATOM      4  O   UNL     1     112.233 130.163 142.439  0.00  0.00    +0.000 OA
ATOM      5  O   UNL     1     111.609 128.370 143.210  0.00  0.00    +0.000 OA
ATOM      6  C   UNL     1     112.559 127.838 138.686  0.00  0.00    +0.000 A 
ATOM      7  C   UNL     1     112.254 126.963 139.062  0.00  0.00    +0.000 A 
ATOM      8  C   UNL     1     112.616 128.643 139.276  0.00  0.00    +0.000 A 
ATOM      9  C   UNL     1     112.368 128.573 140.243  0.00  0.00    +0.000 A 
ATOM     10  C   UNL     1     112.063 127.698 140.619  0.00  0.00    +0.000 A 
ATOM     11  C   UNL     1     112.432 129.420 140.845  0.00  0.00    +0.000 A 
ATOM     12  C   UNL     1     111.801 127.610 141.623  0.00  0.00    +0.000 A 
ATOM     13  C   UNL     1     112.175 129.355 141.853  0.00  0.00    +0.000 A 
ATOM     14  C   UNL     1     111.858 128.444 142.245  0.00  0.00    +0.000 A 
ENDROOT
BRANCH   7  16
ATOM     15  O   UNL     1     112.027 123.742 136.701  0.00  0.00    +0.000 OA
ATOM     16  C   UNL     1     112.198 126.157 138.472  0.00  0.00    +0.000 A 
ATOM     17  C   UNL     1     113.034 125.710 138.154  0.00  0.00    +0.000 A 
ATOM     18  C   UNL     1     111.305 125.799 138.199  0.00  0.00    +0.000 A 
ATOM     19  C   UNL     1     112.977 124.905 137.564  0.00  0.00    +0.000 A 
ATOM     20  C   UNL     1     111.248 124.994 137.609  0.00  0.00    +0.000 A 
ATOM     21  C   UNL     1     112.084 124.547 137.291  0.00  0.00    +0.000 A 
BRANCH  19  22
ATOM     22  O   UNL     1     113.813 124.458 137.246  0.00  0.00    +0.000 OA
ATOM     23  C   UNL     1     114.689 124.938 137.302  0.00  0.00    +0.000 C 
ENDBRANCH  19  22
ENDBRANCH   7  16
BRANCH   6  24
ATOM     24  O   UNL     1     112.807 127.907 137.720  0.00  0.00    +0.000 OA
BRANCH  24  32
ATOM     25  O   UNL     1     111.270 128.617 137.357  0.00  0.00    +0.000 OA
ATOM     26  O   UNL     1     112.247 129.331 134.612  0.00  0.00    +0.000 OA
ATOM     27  O   UNL     1     113.459 128.384 135.890  0.00  0.00    +0.000 OA
ATOM     28  O   UNL     1     110.383 129.803 135.164  0.00  0.00    +0.000 OA
ATOM     29  C   UNL     1     111.921 129.093 135.527  0.00  0.00    +0.000 C 
ATOM     30  C   UNL     1     112.527 128.619 136.166  0.00  0.00    +0.000 C 
ATOM     31  C   UNL     1     110.989 129.329 135.803  0.00  0.00    +0.000 C 
ATOM     32  C   UNL     1     112.201 128.381 137.081  0.00  0.00    +0.000 C 
ATOM     33  C   UNL     1     110.664 129.091 136.718  0.00  0.00    +0.000 C 
BRANCH  33  36
ATOM     34  O   UNL     1     109.548 130.205 137.434  0.00  0.00    +0.000 OA
ATOM     35  O   UNL     1     108.984 128.683 136.831  0.00  0.00    +0.000 OA
ATOM     36  C   UNL     1     109.732 129.326 136.994  0.00  0.00    +0.000 C 
ENDBRANCH  33  36
ENDBRANCH  24  32
ENDBRANCH   6  24
TORSDOF 5
ENDMDL
