MODEL 1
REMARK VINA RESULT:      -9.0      0.000      0.000
REMARK  Name = 44259789
REMARK  6 active torsions:
REMARK  status: ('A' for Active; 'I' for Inactive)
REMARK    1  A    between atoms: O_2  and  C_18
REMARK    2  A    between atoms: O_2  and  C_20
REMARK    3  A    between atoms: O_10  and  C_28
REMARK    4  A    between atoms: O_11  and  C_29
REMARK    5  A    between atoms: C_17  and  C_19
REMARK    6  A    between atoms: C_21  and  C_25
REMARK                            x       y       z     vdW  Elec       q    Type
REMARK                         _______ _______ _______ _____ _____    ______ ____
ROOT
ATOM      1  O   UNL     1     113.553 127.257 136.600  0.00  0.00    +0.000 OA
ATOM      2  O   UNL     1     112.128 128.219 138.381  0.00  0.00    +0.000 OA
ATOM      3  O   UNL     1     112.378 129.556 137.899  0.00  0.00    +0.000 OA
ATOM      4  C   UNL     1     112.709 127.082 137.740  0.00  0.00    +0.000 A 
ATOM      5  C   UNL     1     113.184 126.761 137.146  0.00  0.00    +0.000 A 
ATOM      6  C   UNL     1     112.604 127.898 137.787  0.00  0.00    +0.000 A 
ATOM      7  C   UNL     1     112.973 128.395 137.241  0.00  0.00    +0.000 A 
ATOM      8  C   UNL     1     113.447 128.074 136.648  0.00  0.00    +0.000 A 
ATOM      9  C   UNL     1     112.854 129.244 137.301  0.00  0.00    +0.000 A 
ATOM     10  C   UNL     1     113.837 128.580 136.073  0.00  0.00    +0.000 A 
ATOM     11  C   UNL     1     113.236 129.765 136.735  0.00  0.00    +0.000 A 
ATOM     12  C   UNL     1     113.731 129.432 136.117  0.00  0.00    +0.000 A 
ENDROOT
BRANCH   5  15
ATOM     13  O   UNL     1     114.831 124.454 137.511  0.00  0.00    +0.000 OA
ATOM     14  O   UNL     1     113.609 123.494 136.959  0.00  0.00    +0.000 OA
ATOM     15  C   UNL     1     113.290 125.944 137.099  0.00  0.00    +0.000 A 
ATOM     16  C   UNL     1     114.008 125.608 137.329  0.00  0.00    +0.000 A 
ATOM     17  C   UNL     1     112.678 125.464 136.823  0.00  0.00    +0.000 A 
ATOM     18  C   UNL     1     114.113 124.791 137.282  0.00  0.00    +0.000 A 
ATOM     19  C   UNL     1     112.785 124.647 136.776  0.00  0.00    +0.000 A 
ATOM     20  C   UNL     1     113.502 124.311 137.005  0.00  0.00    +0.000 A 
ENDBRANCH   5  15
BRANCH  11  21
ATOM     21  O   UNL     1     113.129 130.582 136.785  0.00  0.00    +0.000 OA
ATOM     22  C   UNL     1     113.576 131.026 137.317  0.00  0.00    +0.000 C 
ENDBRANCH  11  21
BRANCH  12  23
ATOM     23  O   UNL     1     114.101 129.926 135.569  0.00  0.00    +0.000 OA
ATOM     24  C   UNL     1     114.447 129.605 134.892  0.00  0.00    +0.000 C 
ENDBRANCH  12  23
BRANCH   4  25
ATOM     25  O   UNL     1     112.340 126.585 138.286  0.00  0.00    +0.000 OA
BRANCH  25  34
ATOM     26  O   UNL     1     113.235 126.921 139.349  0.00  0.00    +0.000 OA
ATOM     27  O   UNL     1     111.449 126.457 140.999  0.00  0.00    +0.000 OA
ATOM     28  O   UNL     1     112.938 126.947 141.511  0.00  0.00    +0.000 OA
ATOM     29  O   UNL     1     111.150 126.276 139.386  0.00  0.00    +0.000 OA
ATOM     30  C   UNL     1     112.044 126.612 140.449  0.00  0.00    +0.000 C 
ATOM     31  C   UNL     1     112.789 126.857 140.705  0.00  0.00    +0.000 C 
ATOM     32  C   UNL     1     111.894 126.521 139.642  0.00  0.00    +0.000 C 
ATOM     33  C   UNL     1     113.384 127.011 140.155  0.00  0.00    +0.000 C 
ATOM     34  C   UNL     1     112.490 126.676 139.092  0.00  0.00    +0.000 C 
BRANCH  33  36
ATOM     35  O   UNL     1     114.783 126.763 140.312  0.00  0.00    +0.000 OA
ATOM     36  C   UNL     1     114.128 127.256 140.411  0.00  0.00    +0.000 C 
ENDBRANCH  33  36
ENDBRANCH  25  34
ENDBRANCH   4  25
TORSDOF 6
ENDMDL
MODEL 2
REMARK VINA RESULT:      -8.9      2.135      4.743
REMARK  Name = 44259789
REMARK  6 active torsions:
REMARK  status: ('A' for Active; 'I' for Inactive)
REMARK    1  A    between atoms: O_2  and  C_18
REMARK    2  A    between atoms: O_2  and  C_20
REMARK    3  A    between atoms: O_10  and  C_28
REMARK    4  A    between atoms: O_11  and  C_29
REMARK    5  A    between atoms: C_17  and  C_19
REMARK    6  A    between atoms: C_21  and  C_25
REMARK                            x       y       z     vdW  Elec       q    Type
REMARK                         _______ _______ _______ _____ _____    ______ ____
ROOT
ATOM      1  O   UNL     1     113.557 127.336 136.613  0.00  0.00    +0.000 OA
ATOM      2  O   UNL     1     111.321 126.875 135.656  0.00  0.00    +0.000 OA
ATOM      3  O   UNL     1     111.462 125.465 135.931  0.00  0.00    +0.000 OA
ATOM      4  C   UNL     1     112.356 127.801 135.993  0.00  0.00    +0.000 A 
ATOM      5  C   UNL     1     113.102 127.954 136.312  0.00  0.00    +0.000 A 
ATOM      6  C   UNL     1     112.067 127.028 135.976  0.00  0.00    +0.000 A 
ATOM      7  C   UNL     1     112.522 126.410 136.277  0.00  0.00    +0.000 A 
ATOM      8  C   UNL     1     113.267 126.564 136.595  0.00  0.00    +0.000 A 
ATOM      9  C   UNL     1     112.209 125.610 136.252  0.00  0.00    +0.000 A 
ATOM     10  C   UNL     1     113.751 125.929 136.912  0.00  0.00    +0.000 A 
ATOM     11  C   UNL     1     112.679 124.962 136.565  0.00  0.00    +0.000 A 
ATOM     12  C   UNL     1     113.455 125.122 136.897  0.00  0.00    +0.000 A 
ENDROOT
BRANCH   5  15
ATOM     13  O   UNL     1     113.716 130.334 137.772  0.00  0.00    +0.000 OA
ATOM     14  O   UNL     1     114.258 131.044 136.385  0.00  0.00    +0.000 OA
ATOM     15  C   UNL     1     113.391 128.727 136.330  0.00  0.00    +0.000 A 
ATOM     16  C   UNL     1     113.409 129.144 137.042  0.00  0.00    +0.000 A 
ATOM     17  C   UNL     1     113.662 129.082 135.636  0.00  0.00    +0.000 A 
ATOM     18  C   UNL     1     113.698 129.916 137.059  0.00  0.00    +0.000 A 
ATOM     19  C   UNL     1     113.951 129.855 135.655  0.00  0.00    +0.000 A 
ATOM     20  C   UNL     1     113.969 130.272 136.366  0.00  0.00    +0.000 A 
ENDBRANCH   5  15
BRANCH  11  21
ATOM     21  O   UNL     1     112.386 124.191 136.546  0.00  0.00    +0.000 OA
ATOM     22  C   UNL     1     111.852 123.937 137.121  0.00  0.00    +0.000 C 
ENDBRANCH  11  21
BRANCH  12  23
ATOM     23  O   UNL     1     113.912 124.505 137.199  0.00  0.00    +0.000 OA
ATOM     24  C   UNL     1     114.705 124.634 137.388  0.00  0.00    +0.000 C 
ENDBRANCH  12  23
BRANCH   4  25
ATOM     25  O   UNL     1     111.900 128.419 135.692  0.00  0.00    +0.000 OA
BRANCH  25  34
ATOM     26  O   UNL     1     110.994 128.447 136.796  0.00  0.00    +0.000 OA
ATOM     27  O   UNL     1     109.183 129.207 135.289  0.00  0.00    +0.000 OA
ATOM     28  O   UNL     1     108.880 128.982 136.895  0.00  0.00    +0.000 OA
ATOM     29  O   UNL     1     110.693 128.926 134.687  0.00  0.00    +0.000 OA
ATOM     30  C   UNL     1     109.787 128.954 135.791  0.00  0.00    +0.000 C 
ATOM     31  C   UNL     1     109.636 128.841 136.594  0.00  0.00    +0.000 C 
ATOM     32  C   UNL     1     110.542 128.813 135.490  0.00  0.00    +0.000 C 
ATOM     33  C   UNL     1     110.239 128.588 137.097  0.00  0.00    +0.000 C 
ATOM     34  C   UNL     1     111.146 128.560 135.993  0.00  0.00    +0.000 C 
BRANCH  33  36
ATOM     35  O   UNL     1     110.499 128.916 138.463  0.00  0.00    +0.000 OA
ATOM     36  C   UNL     1     110.087 128.476 137.899  0.00  0.00    +0.000 C 
ENDBRANCH  33  36
ENDBRANCH  25  34
ENDBRANCH   4  25
TORSDOF 6
ENDMDL
MODEL 3
REMARK VINA RESULT:      -8.9      2.023      4.348
REMARK  Name = 44259789
REMARK  6 active torsions:
REMARK  status: ('A' for Active; 'I' for Inactive)
REMARK    1  A    between atoms: O_2  and  C_18
REMARK    2  A    between atoms: O_2  and  C_20
REMARK    3  A    between atoms: O_10  and  C_28
REMARK    4  A    between atoms: O_11  and  C_29
REMARK    5  A    between atoms: C_17  and  C_19
REMARK    6  A    between atoms: C_21  and  C_25
REMARK                            x       y       z     vdW  Elec       q    Type
REMARK                         _______ _______ _______ _____ _____    ______ ____
ROOT
ATOM      1  O   UNL     1     112.883 126.068 138.606  0.00  0.00    +0.000 OA
ATOM      2  O   UNL     1     110.576 125.706 137.785  0.00  0.00    +0.000 OA
ATOM      3  O   UNL     1     110.027 126.180 139.032  0.00  0.00    +0.000 OA
ATOM      4  C   UNL     1     111.988 125.650 137.573  0.00  0.00    +0.000 A 
ATOM      5  C   UNL     1     112.757 125.770 137.847  0.00  0.00    +0.000 A 
ATOM      6  C   UNL     1     111.345 125.826 138.059  0.00  0.00    +0.000 A 
ATOM      7  C   UNL     1     111.471 126.124 138.818  0.00  0.00    +0.000 A 
ATOM      8  C   UNL     1     112.239 126.244 139.092  0.00  0.00    +0.000 A 
ATOM      9  C   UNL     1     110.792 126.304 139.314  0.00  0.00    +0.000 A 
ATOM     10  C   UNL     1     112.384 126.553 139.880  0.00  0.00    +0.000 A 
ATOM     11  C   UNL     1     110.917 126.613 140.106  0.00  0.00    +0.000 A 
ATOM     12  C   UNL     1     111.718 126.739 140.391  0.00  0.00    +0.000 A 
ENDROOT
BRANCH   5  15
ATOM     13  O   UNL     1     114.852 126.632 136.105  0.00  0.00    +0.000 OA
ATOM     14  O   UNL     1     115.328 125.066 135.902  0.00  0.00    +0.000 OA
ATOM     15  C   UNL     1     113.400 125.594 137.361  0.00  0.00    +0.000 A 
ATOM     16  C   UNL     1     113.805 126.201 136.976  0.00  0.00    +0.000 A 
ATOM     17  C   UNL     1     113.638 124.810 137.260  0.00  0.00    +0.000 A 
ATOM     18  C   UNL     1     114.447 126.025 136.490  0.00  0.00    +0.000 A 
ATOM     19  C   UNL     1     114.281 124.635 136.774  0.00  0.00    +0.000 A 
ATOM     20  C   UNL     1     114.685 125.241 136.389  0.00  0.00    +0.000 A 
ENDBRANCH   5  15
BRANCH  11  21
ATOM     21  O   UNL     1     110.272 126.789 140.589  0.00  0.00    +0.000 OA
ATOM     22  C   UNL     1     109.884 126.186 140.996  0.00  0.00    +0.000 C 
ENDBRANCH  11  21
BRANCH  12  23
ATOM     23  O   UNL     1     111.847 127.036 141.150  0.00  0.00    +0.000 OA
ATOM     24  C   UNL     1     112.602 127.279 141.375  0.00  0.00    +0.000 C 
ENDBRANCH  12  23
BRANCH   4  25
ATOM     25  O   UNL     1     111.862 125.352 136.814  0.00  0.00    +0.000 OA
BRANCH  25  34
ATOM     26  O   UNL     1     111.453 126.608 136.268  0.00  0.00    +0.000 OA
ATOM     27  O   UNL     1     109.999 125.430 134.648  0.00  0.00    +0.000 OA
ATOM     28  O   UNL     1     110.075 127.077 134.642  0.00  0.00    +0.000 OA
ATOM     29  O   UNL     1     110.893 124.567 135.734  0.00  0.00    +0.000 OA
ATOM     30  C   UNL     1     110.484 125.822 135.188  0.00  0.00    +0.000 C 
ATOM     31  C   UNL     1     110.522 126.646 135.185  0.00  0.00    +0.000 C 
ATOM     32  C   UNL     1     110.931 125.391 135.731  0.00  0.00    +0.000 C 
ATOM     33  C   UNL     1     111.007 127.039 135.725  0.00  0.00    +0.000 C 
ATOM     34  C   UNL     1     111.416 125.783 136.271  0.00  0.00    +0.000 C 
BRANCH  33  36
ATOM     35  O   UNL     1     111.758 128.243 135.556  0.00  0.00    +0.000 OA
ATOM     36  C   UNL     1     111.044 127.862 135.722  0.00  0.00    +0.000 C 
ENDBRANCH  33  36
ENDBRANCH  25  34
ENDBRANCH   4  25
TORSDOF 6
ENDMDL
MODEL 4
REMARK VINA RESULT:      -8.8      1.966      4.608
REMARK  Name = 44259789
REMARK  6 active torsions:
REMARK  status: ('A' for Active; 'I' for Inactive)
REMARK    1  A    between atoms: O_2  and  C_18
REMARK    2  A    between atoms: O_2  and  C_20
REMARK    3  A    between atoms: O_10  and  C_28
REMARK    4  A    between atoms: O_11  and  C_29
REMARK    5  A    between atoms: C_17  and  C_19
REMARK    6  A    between atoms: C_21  and  C_25
REMARK                            x       y       z     vdW  Elec       q    Type
REMARK                         _______ _______ _______ _____ _____    ______ ____
ROOT
ATOM      1  O   UNL     1     111.363 126.372 136.234  0.00  0.00    +0.000 OA
ATOM      2  O   UNL     1     113.499 127.622 136.165  0.00  0.00    +0.000 OA
ATOM      3  O   UNL     1     114.244 126.421 136.455  0.00  0.00    +0.000 OA
ATOM      4  C   UNL     1     112.074 127.599 136.055  0.00  0.00    +0.000 A 
ATOM      5  C   UNL     1     111.362 127.182 136.078  0.00  0.00    +0.000 A 
ATOM      6  C   UNL     1     112.787 127.205 136.188  0.00  0.00    +0.000 A 
ATOM      7  C   UNL     1     112.787 126.395 136.344  0.00  0.00    +0.000 A 
ATOM      8  C   UNL     1     112.076 125.979 136.367  0.00  0.00    +0.000 A 
ATOM      9  C   UNL     1     113.537 125.996 136.480  0.00  0.00    +0.000 A 
ATOM     10  C   UNL     1     112.063 125.135 136.528  0.00  0.00    +0.000 A 
ATOM     11  C   UNL     1     113.543 125.153 136.643  0.00  0.00    +0.000 A 
ATOM     12  C   UNL     1     112.802 124.719 136.667  0.00  0.00    +0.000 A 
ENDROOT
BRANCH   5  15
ATOM     13  O   UNL     1     108.925 128.293 137.077  0.00  0.00    +0.000 OA
ATOM     14  O   UNL     1     108.512 128.760 135.549  0.00  0.00    +0.000 OA
ATOM     15  C   UNL     1     110.650 127.577 135.945  0.00  0.00    +0.000 A 
ATOM     16  C   UNL     1     110.144 127.738 136.577  0.00  0.00    +0.000 A 
ATOM     17  C   UNL     1     110.443 127.810 135.181  0.00  0.00    +0.000 A 
ATOM     18  C   UNL     1     109.431 128.132 136.445  0.00  0.00    +0.000 A 
ATOM     19  C   UNL     1     109.730 128.205 135.050  0.00  0.00    +0.000 A 
ATOM     20  C   UNL     1     109.225 128.365 135.681  0.00  0.00    +0.000 A 
ENDBRANCH   5  15
BRANCH  11  21
ATOM     21  O   UNL     1     114.258 124.761 136.775  0.00  0.00    +0.000 OA
ATOM     22  C   UNL     1     114.643 124.839 137.501  0.00  0.00    +0.000 C 
ENDBRANCH  11  21
BRANCH  12  23
ATOM     23  O   UNL     1     112.800 123.909 136.823  0.00  0.00    +0.000 OA
ATOM     24  C   UNL     1     112.088 123.492 136.831  0.00  0.00    +0.000 C 
ENDBRANCH  12  23
BRANCH   4  25
ATOM     25  O   UNL     1     112.074 128.409 135.899  0.00  0.00    +0.000 OA
BRANCH  25  34
ATOM     26  O   UNL     1     112.340 128.792 137.250  0.00  0.00    +0.000 OA
ATOM     27  O   UNL     1     113.555 130.792 136.445  0.00  0.00    +0.000 OA
ATOM     28  O   UNL     1     113.416 130.507 138.063  0.00  0.00    +0.000 OA
ATOM     29  O   UNL     1     112.884 129.743 135.362  0.00  0.00    +0.000 OA
ATOM     30  C   UNL     1     113.150 130.125 136.713  0.00  0.00    +0.000 C 
ATOM     31  C   UNL     1     113.080 129.982 137.522  0.00  0.00    +0.000 C 
ATOM     32  C   UNL     1     112.814 129.600 136.171  0.00  0.00    +0.000 C 
ATOM     33  C   UNL     1     112.675 129.316 137.791  0.00  0.00    +0.000 C 
ATOM     34  C   UNL     1     112.409 128.933 136.440  0.00  0.00    +0.000 C 
BRANCH  33  36
ATOM     35  O   UNL     1     111.860 129.144 138.952  0.00  0.00    +0.000 OA
ATOM     36  C   UNL     1     112.605 129.174 138.600  0.00  0.00    +0.000 C 
ENDBRANCH  33  36
ENDBRANCH  25  34
ENDBRANCH   4  25
TORSDOF 6
ENDMDL
MODEL 5
REMARK VINA RESULT:      -8.7      1.182      1.959
REMARK  Name = 44259789
REMARK  6 active torsions:
REMARK  status: ('A' for Active; 'I' for Inactive)
REMARK    1  A    between atoms: O_2  and  C_18
REMARK    2  A    between atoms: O_2  and  C_20
REMARK    3  A    between atoms: O_10  and  C_28
REMARK    4  A    between atoms: O_11  and  C_29
REMARK    5  A    between atoms: C_17  and  C_19
REMARK    6  A    between atoms: C_21  and  C_25
REMARK                            x       y       z     vdW  Elec       q    Type
REMARK                         _______ _______ _______ _____ _____    ______ ____
ROOT
ATOM      1  O   UNL     1     113.040 127.178 136.315  0.00  0.00    +0.000 OA
ATOM      2  O   UNL     1     112.850 128.070 138.616  0.00  0.00    +0.000 OA
ATOM      3  O   UNL     1     113.335 129.359 138.188  0.00  0.00    +0.000 OA
ATOM      4  C   UNL     1     112.703 126.991 137.691  0.00  0.00    +0.000 A 
ATOM      5  C   UNL     1     112.767 126.693 136.924  0.00  0.00    +0.000 A 
ATOM      6  C   UNL     1     112.913 127.773 137.849  0.00  0.00    +0.000 A 
ATOM      7  C   UNL     1     113.186 128.258 137.240  0.00  0.00    +0.000 A 
ATOM      8  C   UNL     1     113.249 127.960 136.473  0.00  0.00    +0.000 A 
ATOM      9  C   UNL     1     113.402 129.070 137.417  0.00  0.00    +0.000 A 
ATOM     10  C   UNL     1     113.532 128.455 135.830  0.00  0.00    +0.000 A 
ATOM     11  C   UNL     1     113.687 129.580 136.787  0.00  0.00    +0.000 A 
ATOM     12  C   UNL     1     113.753 129.271 135.988  0.00  0.00    +0.000 A 
ENDROOT
BRANCH   5  15
ATOM     13  O   UNL     1     110.943 124.799 135.805  0.00  0.00    +0.000 OA
ATOM     14  O   UNL     1     111.924 123.565 136.293  0.00  0.00    +0.000 OA
ATOM     15  C   UNL     1     112.557 125.911 136.766  0.00  0.00    +0.000 A 
ATOM     16  C   UNL     1     111.855 125.746 136.364  0.00  0.00    +0.000 A 
ATOM     17  C   UNL     1     113.047 125.295 137.011  0.00  0.00    +0.000 A 
ATOM     18  C   UNL     1     111.645 124.964 136.207  0.00  0.00    +0.000 A 
ATOM     19  C   UNL     1     112.836 124.513 136.853  0.00  0.00    +0.000 A 
ATOM     20  C   UNL     1     112.136 124.347 136.451  0.00  0.00    +0.000 A 
ENDBRANCH   5  15
BRANCH  11  21
ATOM     21  O   UNL     1     113.896 130.362 136.948  0.00  0.00    +0.000 OA
ATOM     22  C   UNL     1     113.313 130.943 137.003  0.00  0.00    +0.000 C 
ENDBRANCH  11  21
BRANCH  12  23
ATOM     23  O   UNL     1     114.025 129.753 135.377  0.00  0.00    +0.000 OA
ATOM     24  C   UNL     1     114.279 129.417 134.667  0.00  0.00    +0.000 C 
ENDBRANCH  12  23
BRANCH   4  25
ATOM     25  O   UNL     1     112.430 126.506 138.300  0.00  0.00    +0.000 OA
BRANCH  25  34
ATOM     26  O   UNL     1     111.142 127.121 138.367  0.00  0.00    +0.000 OA
ATOM     27  O   UNL     1     111.017 126.597 140.783  0.00  0.00    +0.000 OA
ATOM     28  O   UNL     1     109.771 127.386 140.044  0.00  0.00    +0.000 OA
ATOM     29  O   UNL     1     112.347 126.156 139.911  0.00  0.00    +0.000 OA
ATOM     30  C   UNL     1     111.059 126.771 139.977  0.00  0.00    +0.000 C 
ATOM     31  C   UNL     1     110.436 127.166 139.608  0.00  0.00    +0.000 C 
ATOM     32  C   UNL     1     111.724 126.551 139.541  0.00  0.00    +0.000 C 
ATOM     33  C   UNL     1     110.478 127.341 138.802  0.00  0.00    +0.000 C 
ATOM     34  C   UNL     1     111.766 126.726 138.736  0.00  0.00    +0.000 C 
BRANCH  33  36
ATOM     35  O   UNL     1     109.421 127.360 137.841  0.00  0.00    +0.000 OA
ATOM     36  C   UNL     1     109.855 127.736 138.434  0.00  0.00    +0.000 C 
ENDBRANCH  33  36
ENDBRANCH  25  34
ENDBRANCH   4  25
TORSDOF 6
ENDMDL
MODEL 6
REMARK VINA RESULT:      -8.6      1.236      4.031
REMARK  Name = 44259789
REMARK  6 active torsions:
REMARK  status: ('A' for Active; 'I' for Inactive)
REMARK    1  A    between atoms: O_2  and  C_18
REMARK    2  A    between atoms: O_2  and  C_20
REMARK    3  A    between atoms: O_10  and  C_28
REMARK    4  A    between atoms: O_11  and  C_29
REMARK    5  A    between atoms: C_17  and  C_19
REMARK    6  A    between atoms: C_21  and  C_25
REMARK                            x       y       z     vdW  Elec       q    Type
REMARK                         _______ _______ _______ _____ _____    ______ ____
ROOT
ATOM      1  O   UNL     1     112.822 128.276 138.285  0.00  0.00    +0.000 OA
ATOM      2  O   UNL     1     111.720 126.069 138.495  0.00  0.00    +0.000 OA
ATOM      3  O   UNL     1     111.768 126.150 139.934  0.00  0.00    +0.000 OA
ATOM      4  C   UNL     1     112.241 127.120 137.678  0.00  0.00    +0.000 A 
ATOM      5  C   UNL     1     112.609 127.856 137.608  0.00  0.00    +0.000 A 
ATOM      6  C   UNL     1     112.088 126.805 138.425  0.00  0.00    +0.000 A 
ATOM      7  C   UNL     1     112.302 127.226 139.102  0.00  0.00    +0.000 A 
ATOM      8  C   UNL     1     112.668 127.961 139.032  0.00  0.00    +0.000 A 
ATOM      9  C   UNL     1     112.136 126.887 139.874  0.00  0.00    +0.000 A 
ATOM     10  C   UNL     1     112.896 128.409 139.728  0.00  0.00    +0.000 A 
ATOM     11  C   UNL     1     112.356 127.320 140.582  0.00  0.00    +0.000 A 
ATOM     12  C   UNL     1     112.739 128.086 140.510  0.00  0.00    +0.000 A 
ENDROOT
BRANCH   5  15
ATOM     13  O   UNL     1     114.458 128.498 135.526  0.00  0.00    +0.000 OA
ATOM     14  O   UNL     1     113.225 129.113 134.620  0.00  0.00    +0.000 OA
ATOM     15  C   UNL     1     112.762 128.170 136.861  0.00  0.00    +0.000 A 
ATOM     16  C   UNL     1     113.534 128.177 136.567  0.00  0.00    +0.000 A 
ATOM     17  C   UNL     1     112.145 128.478 136.408  0.00  0.00    +0.000 A 
ATOM     18  C   UNL     1     113.687 128.491 135.820  0.00  0.00    +0.000 A 
ATOM     19  C   UNL     1     112.300 128.793 135.661  0.00  0.00    +0.000 A 
ATOM     20  C   UNL     1     113.070 128.799 135.367  0.00  0.00    +0.000 A 
ENDBRANCH   5  15
BRANCH  11  21
ATOM     21  O   UNL     1     112.201 127.003 141.328  0.00  0.00    +0.000 OA
ATOM     22  C   UNL     1     111.460 127.104 141.674  0.00  0.00    +0.000 C 
ENDBRANCH  11  21
BRANCH  12  23
ATOM     23  O   UNL     1     112.953 128.509 141.185  0.00  0.00    +0.000 OA
ATOM     24  C   UNL     1     113.414 129.190 141.116  0.00  0.00    +0.000 C 
ENDBRANCH  12  23
BRANCH   4  25
ATOM     25  O   UNL     1     112.028 126.699 137.001  0.00  0.00    +0.000 OA
BRANCH  25  34
ATOM     26  O   UNL     1     113.085 125.743 137.104  0.00  0.00    +0.000 OA
ATOM     27  O   UNL     1     111.626 124.021 136.089  0.00  0.00    +0.000 OA
ATOM     28  O   UNL     1     113.169 123.640 136.531  0.00  0.00    +0.000 OA
ATOM     29  O   UNL     1     111.055 125.551 136.324  0.00  0.00    +0.000 OA
ATOM     30  C   UNL     1     112.113 124.595 136.427  0.00  0.00    +0.000 C 
ATOM     31  C   UNL     1     112.884 124.405 136.648  0.00  0.00    +0.000 C 
ATOM     32  C   UNL     1     111.827 125.361 136.545  0.00  0.00    +0.000 C 
ATOM     33  C   UNL     1     113.370 124.979 136.987  0.00  0.00    +0.000 C 
ATOM     34  C   UNL     1     112.313 125.935 136.883  0.00  0.00    +0.000 C 
BRANCH  33  36
ATOM     35  O   UNL     1     114.780 125.173 136.853  0.00  0.00    +0.000 OA
ATOM     36  C   UNL     1     114.141 124.788 137.208  0.00  0.00    +0.000 C 
ENDBRANCH  33  36
ENDBRANCH  25  34
ENDBRANCH   4  25
TORSDOF 6
ENDMDL
MODEL 7
REMARK VINA RESULT:      -8.4      1.374      3.628
REMARK  Name = 44259789
REMARK  6 active torsions:
REMARK  status: ('A' for Active; 'I' for Inactive)
REMARK    1  A    between atoms: O_2  and  C_18
REMARK    2  A    between atoms: O_2  and  C_20
REMARK    3  A    between atoms: O_10  and  C_28
REMARK    4  A    between atoms: O_11  and  C_29
REMARK    5  A    between atoms: C_17  and  C_19
REMARK    6  A    between atoms: C_21  and  C_25
REMARK                            x       y       z     vdW  Elec       q    Type
REMARK                         _______ _______ _______ _____ _____    ______ ____
ROOT
ATOM      1  O   UNL     1     113.252 126.333 138.760  0.00  0.00    +0.000 OA
ATOM      2  O   UNL     1     112.241 128.494 138.099  0.00  0.00    +0.000 OA
ATOM      3  O   UNL     1     112.819 129.149 139.247  0.00  0.00    +0.000 OA
ATOM      4  C   UNL     1     112.454 127.102 137.857  0.00  0.00    +0.000 A 
ATOM      5  C   UNL     1     112.792 126.381 138.078  0.00  0.00    +0.000 A 
ATOM      6  C   UNL     1     112.578 127.773 138.319  0.00  0.00    +0.000 A 
ATOM      7  C   UNL     1     113.039 127.725 139.002  0.00  0.00    +0.000 A 
ATOM      8  C   UNL     1     113.375 127.006 139.222  0.00  0.00    +0.000 A 
ATOM      9  C   UNL     1     113.160 128.433 139.475  0.00  0.00    +0.000 A 
ATOM     10  C   UNL     1     113.857 126.942 139.931  0.00  0.00    +0.000 A 
ATOM     11  C   UNL     1     113.638 128.388 140.187  0.00  0.00    +0.000 A 
ATOM     12  C   UNL     1     113.990 127.639 140.417  0.00  0.00    +0.000 A 
ENDROOT
BRANCH   5  15
ATOM     13  O   UNL     1     113.764 124.452 136.207  0.00  0.00    +0.000 OA
ATOM     14  O   UNL     1     112.299 123.695 136.226  0.00  0.00    +0.000 OA
ATOM     15  C   UNL     1     112.668 125.710 137.615  0.00  0.00    +0.000 A 
ATOM     16  C   UNL     1     113.278 125.417 137.142  0.00  0.00    +0.000 A 
ATOM     17  C   UNL     1     111.935 125.331 137.624  0.00  0.00    +0.000 A 
ATOM     18  C   UNL     1     113.154 124.745 136.679  0.00  0.00    +0.000 A 
ATOM     19  C   UNL     1     111.812 124.659 137.161  0.00  0.00    +0.000 A 
ATOM     20  C   UNL     1     112.421 124.366 136.689  0.00  0.00    +0.000 A 
ENDBRANCH   5  15
BRANCH  11  21
ATOM     21  O   UNL     1     113.760 129.062 140.648  0.00  0.00    +0.000 OA
ATOM     22  C   UNL     1     114.341 129.608 140.436  0.00  0.00    +0.000 C 
ENDBRANCH  11  21
BRANCH  12  23
ATOM     23  O   UNL     1     114.451 127.588 141.099  0.00  0.00    +0.000 OA
ATOM     24  C   UNL     1     114.691 126.850 141.381  0.00  0.00    +0.000 C 
ENDBRANCH  12  23
BRANCH   4  25
ATOM     25  O   UNL     1     111.994 127.150 137.174  0.00  0.00    +0.000 OA
BRANCH  25  34
ATOM     26  O   UNL     1     112.992 127.855 136.434  0.00  0.00    +0.000 OA
ATOM     27  O   UNL     1     111.225 128.912 135.059  0.00  0.00    +0.000 OA
ATOM     28  O   UNL     1     112.812 129.265 134.778  0.00  0.00    +0.000 OA
ATOM     29  O   UNL     1     110.816 127.854 136.258  0.00  0.00    +0.000 OA
ATOM     30  C   UNL     1     111.814 128.560 135.517  0.00  0.00    +0.000 C 
ATOM     31  C   UNL     1     112.608 128.736 135.377  0.00  0.00    +0.000 C 
ATOM     32  C   UNL     1     111.610 128.030 136.117  0.00  0.00    +0.000 C 
ATOM     33  C   UNL     1     113.196 128.384 135.835  0.00  0.00    +0.000 C 
ATOM     34  C   UNL     1     112.198 127.678 136.575  0.00  0.00    +0.000 C 
BRANCH  33  36
ATOM     35  O   UNL     1     114.519 127.958 135.502  0.00  0.00    +0.000 OA
ATOM     36  C   UNL     1     113.989 128.561 135.694  0.00  0.00    +0.000 C 
ENDBRANCH  33  36
ENDBRANCH  25  34
ENDBRANCH   4  25
TORSDOF 6
ENDMDL
MODEL 8
REMARK VINA RESULT:      -7.7      1.084      3.472
REMARK  Name = 44259789
REMARK  6 active torsions:
REMARK  status: ('A' for Active; 'I' for Inactive)
REMARK    1  A    between atoms: O_2  and  C_18
REMARK    2  A    between atoms: O_2  and  C_20
REMARK    3  A    between atoms: O_10  and  C_28
REMARK    4  A    between atoms: O_11  and  C_29
REMARK    5  A    between atoms: C_17  and  C_19
REMARK    6  A    between atoms: C_21  and  C_25
REMARK                            x       y       z     vdW  Elec       q    Type
REMARK                         _______ _______ _______ _____ _____    ______ ____
ROOT
ATOM      1  O   UNL     1     111.917 128.211 138.267  0.00  0.00    +0.000 OA
ATOM      2  O   UNL     1     113.695 127.222 136.856  0.00  0.00    +0.000 OA
ATOM      3  O   UNL     1     113.498 128.235 135.848  0.00  0.00    +0.000 OA
ATOM      4  C   UNL     1     112.914 127.209 138.053  0.00  0.00    +0.000 A 
ATOM      5  C   UNL     1     112.321 127.539 138.524  0.00  0.00    +0.000 A 
ATOM      6  C   UNL     1     113.102 127.552 137.327  0.00  0.00    +0.000 A 
ATOM      7  C   UNL     1     112.698 128.224 137.070  0.00  0.00    +0.000 A 
ATOM      8  C   UNL     1     112.106 128.553 137.540  0.00  0.00    +0.000 A 
ATOM      9  C   UNL     1     112.904 128.571 136.312  0.00  0.00    +0.000 A 
ATOM     10  C   UNL     1     111.678 129.252 137.285  0.00  0.00    +0.000 A 
ATOM     11  C   UNL     1     112.486 129.271 136.040  0.00  0.00    +0.000 A 
ATOM     12  C   UNL     1     111.869 129.614 136.529  0.00  0.00    +0.000 A 
ENDROOT
BRANCH   5  15
ATOM     13  O   UNL     1     110.550 125.986 140.142  0.00  0.00    +0.000 OA
ATOM     14  O   UNL     1     111.568 126.166 141.429  0.00  0.00    +0.000 OA
ATOM     15  C   UNL     1     112.134 127.196 139.250  0.00  0.00    +0.000 A 
ATOM     16  C   UNL     1     111.436 126.762 139.333  0.00  0.00    +0.000 A 
ATOM     17  C   UNL     1     112.642 127.286 139.893  0.00  0.00    +0.000 A 
ATOM     18  C   UNL     1     111.248 126.420 140.059  0.00  0.00    +0.000 A 
ATOM     19  C   UNL     1     112.453 126.943 140.619  0.00  0.00    +0.000 A 
ATOM     20  C   UNL     1     111.757 126.510 140.702  0.00  0.00    +0.000 A 
ENDBRANCH   5  15
BRANCH  11  21
ATOM     21  O   UNL     1     112.676 129.611 135.313  0.00  0.00    +0.000 OA
ATOM     22  C   UNL     1     112.412 129.265 134.612  0.00  0.00    +0.000 C 
ENDBRANCH  11  21
BRANCH  12  23
ATOM     23  O   UNL     1     111.463 130.286 136.275  0.00  0.00    +0.000 OA
ATOM     24  C   UNL     1     111.063 130.758 136.822  0.00  0.00    +0.000 C 
ENDBRANCH  12  23
BRANCH   4  25
ATOM     25  O   UNL     1     113.319 126.537 138.310  0.00  0.00    +0.000 OA
BRANCH  25  34
ATOM     26  O   UNL     1     112.647 125.645 137.418  0.00  0.00    +0.000 OA
ATOM     27  O   UNL     1     114.674 124.228 137.309  0.00  0.00    +0.000 OA
ATOM     28  O   UNL     1     113.327 123.809 136.455  0.00  0.00    +0.000 OA
ATOM     29  O   UNL     1     114.670 125.593 138.237  0.00  0.00    +0.000 OA
ATOM     30  C   UNL     1     113.998 124.700 137.345  0.00  0.00    +0.000 C 
ATOM     31  C   UNL     1     113.324 124.491 136.918  0.00  0.00    +0.000 C 
ATOM     32  C   UNL     1     113.996 125.383 137.810  0.00  0.00    +0.000 C 
ATOM     33  C   UNL     1     112.649 124.963 136.955  0.00  0.00    +0.000 C 
ATOM     34  C   UNL     1     113.320 125.855 137.846  0.00  0.00    +0.000 C 
BRANCH  33  36
ATOM     35  O   UNL     1     111.266 124.602 136.921  0.00  0.00    +0.000 OA
ATOM     36  C   UNL     1     111.976 124.753 136.527  0.00  0.00    +0.000 C 
ENDBRANCH  33  36
ENDBRANCH  25  34
ENDBRANCH   4  25
TORSDOF 6
ENDMDL
