MODEL 1
REMARK VINA RESULT:      -8.3      0.000      0.000
REMARK  Name = 5318869
REMARK  3 active torsions:
REMARK  status: ('A' for Active; 'I' for Inactive)
REMARK    1  A    between atoms: O_2  and  C_10
REMARK    2  A    between atoms: O_3  and  C_15
REMARK    3  A    between atoms: C_9  and  C_12
REMARK                            x       y       z     vdW  Elec       q    Type
REMARK                         _______ _______ _______ _____ _____    ______ ____
ROOT
ATOM      1  O   UNL     1     105.166 124.413 147.501  0.00  0.00    +0.000 OA
ATOM      2  O   UNL     1     107.638 125.547 146.526  0.00  0.00    +0.000 OA
ATOM      3  O   UNL     1     106.525 125.313 145.639  0.00  0.00    +0.000 OA
ATOM      4  C   UNL     1     106.389 124.974 147.020  0.00  0.00    +0.000 A 
ATOM      5  C   UNL     1     105.936 124.674 147.641  0.00  0.00    +0.000 A 
ATOM      6  C   UNL     1     104.849 124.452 146.740  0.00  0.00    +0.000 A 
ATOM      7  C   UNL     1     105.302 124.752 146.119  0.00  0.00    +0.000 A 
ATOM      8  C   UNL     1     106.072 125.013 146.260  0.00  0.00    +0.000 A 
ATOM      9  C   UNL     1     107.192 125.249 147.153  0.00  0.00    +0.000 A 
ATOM     10  C   UNL     1     106.255 124.628 148.438  0.00  0.00    +0.000 A 
ATOM     11  C   UNL     1     107.056 124.898 148.589  0.00  0.00    +0.000 A 
ATOM     12  C   UNL     1     107.528 125.210 147.943  0.00  0.00    +0.000 A 
ENDROOT
BRANCH   6  14
ATOM     13  O   UNL     1     101.769 123.406 146.182  0.00  0.00    +0.000 OA
ATOM     14  C   UNL     1     104.079 124.192 146.601  0.00  0.00    +0.000 A 
ATOM     15  C   UNL     1     103.949 123.436 146.294  0.00  0.00    +0.000 A 
ATOM     16  C   UNL     1     103.439 124.685 146.768  0.00  0.00    +0.000 A 
ATOM     17  C   UNL     1     103.179 123.175 146.154  0.00  0.00    +0.000 A 
ATOM     18  C   UNL     1     102.669 124.423 146.628  0.00  0.00    +0.000 A 
ATOM     19  C   UNL     1     102.539 123.668 146.321  0.00  0.00    +0.000 A 
ENDBRANCH   6  14
BRANCH   7  20
ATOM     20  O   UNL     1     104.985 124.791 145.359  0.00  0.00    +0.000 OA
ATOM     21  C   UNL     1     105.486 124.832 144.705  0.00  0.00    +0.000 C 
ENDBRANCH   7  20
BRANCH  11  22
ATOM     22  O   UNL     1     107.370 124.857 149.352  0.00  0.00    +0.000 OA
ATOM     23  C   UNL     1     107.731 124.163 149.612  0.00  0.00    +0.000 C 
ENDBRANCH  11  22
TORSDOF 3
ENDMDL
MODEL 2
REMARK VINA RESULT:      -7.9     12.285     13.378
REMARK  Name = 5318869
REMARK  3 active torsions:
REMARK  status: ('A' for Active; 'I' for Inactive)
REMARK    1  A    between atoms: O_2  and  C_10
REMARK    2  A    between atoms: O_3  and  C_15
REMARK    3  A    between atoms: C_9  and  C_12
REMARK                            x       y       z     vdW  Elec       q    Type
REMARK                         _______ _______ _______ _____ _____    ______ ____
ROOT
ATOM      1  O   UNL     1     112.160 126.697 136.123  0.00  0.00    +0.000 OA
ATOM      2  O   UNL     1     109.801 125.723 134.767  0.00  0.00    +0.000 OA
ATOM      3  O   UNL     1     110.645 124.833 135.525  0.00  0.00    +0.000 OA
ATOM      4  C   UNL     1     110.993 126.216 135.452  0.00  0.00    +0.000 A 
ATOM      5  C   UNL     1     111.498 126.838 135.651  0.00  0.00    +0.000 A 
ATOM      6  C   UNL     1     112.317 125.933 136.395  0.00  0.00    +0.000 A 
ATOM      7  C   UNL     1     111.812 125.312 136.196  0.00  0.00    +0.000 A 
ATOM      8  C   UNL     1     111.150 125.454 135.724  0.00  0.00    +0.000 A 
ATOM      9  C   UNL     1     110.300 126.351 134.961  0.00  0.00    +0.000 A 
ATOM     10  C   UNL     1     111.344 127.637 135.374  0.00  0.00    +0.000 A 
ATOM     11  C   UNL     1     110.657 127.790 134.883  0.00  0.00    +0.000 A 
ATOM     12  C   UNL     1     110.131 127.143 134.675  0.00  0.00    +0.000 A 
ENDROOT
BRANCH   6  14
ATOM     13  O   UNL     1     114.967 125.370 138.280  0.00  0.00    +0.000 OA
ATOM     14  C   UNL     1     112.979 125.793 136.867  0.00  0.00    +0.000 A 
ATOM     15  C   UNL     1     113.690 125.556 136.519  0.00  0.00    +0.000 A 
ATOM     16  C   UNL     1     112.931 125.888 137.685  0.00  0.00    +0.000 A 
ATOM     17  C   UNL     1     114.352 125.416 136.991  0.00  0.00    +0.000 A 
ATOM     18  C   UNL     1     113.594 125.747 138.156  0.00  0.00    +0.000 A 
ATOM     19  C   UNL     1     114.304 125.511 137.809  0.00  0.00    +0.000 A 
ENDBRANCH   6  14
BRANCH   7  20
ATOM     20  O   UNL     1     111.969 124.550 136.468  0.00  0.00    +0.000 OA
ATOM     21  C   UNL     1     111.593 123.903 136.122  0.00  0.00    +0.000 C 
ENDBRANCH   7  20
BRANCH  11  22
ATOM     22  O   UNL     1     110.502 128.555 134.612  0.00  0.00    +0.000 OA
ATOM     23  C   UNL     1     109.897 128.998 134.954  0.00  0.00    +0.000 C 
ENDBRANCH  11  22
TORSDOF 3
ENDMDL
MODEL 3
REMARK VINA RESULT:      -7.9      1.233      4.328
REMARK  Name = 5318869
REMARK  3 active torsions:
REMARK  status: ('A' for Active; 'I' for Inactive)
REMARK    1  A    between atoms: O_2  and  C_10
REMARK    2  A    between atoms: O_3  and  C_15
REMARK    3  A    between atoms: C_9  and  C_12
REMARK                            x       y       z     vdW  Elec       q    Type
REMARK                         _______ _______ _______ _____ _____    ______ ____
ROOT
ATOM      1  O   UNL     1     105.240 124.344 147.196  0.00  0.00    +0.000 OA
ATOM      2  O   UNL     1     102.581 125.310 147.785  0.00  0.00    +0.000 OA
ATOM      3  O   UNL     1     103.725 125.777 148.529  0.00  0.00    +0.000 OA
ATOM      4  C   UNL     1     103.925 124.821 147.486  0.00  0.00    +0.000 A 
ATOM      5  C   UNL     1     104.430 124.344 147.042  0.00  0.00    +0.000 A 
ATOM      6  C   UNL     1     105.546 124.823 147.795  0.00  0.00    +0.000 A 
ATOM      7  C   UNL     1     105.041 125.300 148.240  0.00  0.00    +0.000 A 
ATOM      8  C   UNL     1     104.230 125.299 148.085  0.00  0.00    +0.000 A 
ATOM      9  C   UNL     1     103.079 124.829 147.335  0.00  0.00    +0.000 A 
ATOM     10  C   UNL     1     104.123 123.841 146.415  0.00  0.00    +0.000 A 
ATOM     11  C   UNL     1     103.280 123.836 146.250  0.00  0.00    +0.000 A 
ATOM     12  C   UNL     1     102.755 124.334 146.713  0.00  0.00    +0.000 A 
ENDROOT
BRANCH   6  14
ATOM     13  O   UNL     1     108.787 124.822 148.413  0.00  0.00    +0.000 OA
ATOM     14  C   UNL     1     106.356 124.823 147.949  0.00  0.00    +0.000 A 
ATOM     15  C   UNL     1     106.653 124.401 148.594  0.00  0.00    +0.000 A 
ATOM     16  C   UNL     1     106.869 125.244 147.459  0.00  0.00    +0.000 A 
ATOM     17  C   UNL     1     107.464 124.401 148.747  0.00  0.00    +0.000 A 
ATOM     18  C   UNL     1     107.680 125.243 147.614  0.00  0.00    +0.000 A 
ATOM     19  C   UNL     1     107.977 124.822 148.258  0.00  0.00    +0.000 A 
ENDBRANCH   6  14
BRANCH   7  20
ATOM     20  O   UNL     1     105.346 125.778 148.838  0.00  0.00    +0.000 OA
ATOM     21  C   UNL     1     104.928 126.444 149.088  0.00  0.00    +0.000 C 
ENDBRANCH   7  20
BRANCH  11  22
ATOM     22  O   UNL     1     102.978 123.357 145.650  0.00  0.00    +0.000 OA
ATOM     23  C   UNL     1     102.463 122.740 145.836  0.00  0.00    +0.000 C 
ENDBRANCH  11  22
TORSDOF 3
ENDMDL
MODEL 4
REMARK VINA RESULT:      -7.8      9.955     11.832
REMARK  Name = 5318869
REMARK  3 active torsions:
REMARK  status: ('A' for Active; 'I' for Inactive)
REMARK    1  A    between atoms: O_2  and  C_10
REMARK    2  A    between atoms: O_3  and  C_15
REMARK    3  A    between atoms: C_9  and  C_12
REMARK                            x       y       z     vdW  Elec       q    Type
REMARK                         _______ _______ _______ _____ _____    ______ ____
ROOT
ATOM      1  O   UNL     1     113.595 126.426 138.851  0.00  0.00    +0.000 OA
ATOM      2  O   UNL     1     111.008 126.269 140.128  0.00  0.00    +0.000 OA
ATOM      3  O   UNL     1     111.260 125.605 138.873  0.00  0.00    +0.000 OA
ATOM      4  C   UNL     1     112.315 126.349 139.484  0.00  0.00    +0.000 A 
ATOM      5  C   UNL     1     113.094 126.622 139.476  0.00  0.00    +0.000 A 
ATOM      6  C   UNL     1     113.317 125.955 138.233  0.00  0.00    +0.000 A 
ATOM      7  C   UNL     1     112.538 125.682 138.240  0.00  0.00    +0.000 A 
ATOM      8  C   UNL     1     112.038 125.879 138.866  0.00  0.00    +0.000 A 
ATOM      9  C   UNL     1     111.784 126.547 140.130  0.00  0.00    +0.000 A 
ATOM     10  C   UNL     1     113.395 127.113 140.115  0.00  0.00    +0.000 A 
ATOM     11  C   UNL     1     112.878 127.321 140.769  0.00  0.00    +0.000 A 
ATOM     12  C   UNL     1     112.068 127.036 140.776  0.00  0.00    +0.000 A 
ENDROOT
BRANCH   6  14
ATOM     13  O   UNL     1     115.322 125.167 135.733  0.00  0.00    +0.000 OA
ATOM     14  C   UNL     1     113.818 125.759 137.607  0.00  0.00    +0.000 A 
ATOM     15  C   UNL     1     114.303 125.093 137.662  0.00  0.00    +0.000 A 
ATOM     16  C   UNL     1     113.835 126.227 136.929  0.00  0.00    +0.000 A 
ATOM     17  C   UNL     1     114.804 124.896 137.036  0.00  0.00    +0.000 A 
ATOM     18  C   UNL     1     114.336 126.030 136.304  0.00  0.00    +0.000 A 
ATOM     19  C   UNL     1     114.821 125.365 136.358  0.00  0.00    +0.000 A 
ENDBRANCH   6  14
BRANCH   7  20
ATOM     20  O   UNL     1     112.261 125.212 137.622  0.00  0.00    +0.000 OA
ATOM     21  C   UNL     1     111.548 124.805 137.701  0.00  0.00    +0.000 C 
ENDBRANCH   7  20
BRANCH  11  22
ATOM     22  O   UNL     1     113.159 127.792 141.386  0.00  0.00    +0.000 OA
ATOM     23  C   UNL     1     113.045 128.609 141.366  0.00  0.00    +0.000 C 
ENDBRANCH  11  22
TORSDOF 3
ENDMDL
MODEL 5
REMARK VINA RESULT:      -7.8      6.674      8.019
REMARK  Name = 5318869
REMARK  3 active torsions:
REMARK  status: ('A' for Active; 'I' for Inactive)
REMARK    1  A    between atoms: O_2  and  C_10
REMARK    2  A    between atoms: O_3  and  C_15
REMARK    3  A    between atoms: C_9  and  C_12
REMARK                            x       y       z     vdW  Elec       q    Type
REMARK                         _______ _______ _______ _____ _____    ______ ____
ROOT
ATOM      1  O   UNL     1     103.475 130.154 142.290  0.00  0.00    +0.000 OA
ATOM      2  O   UNL     1     104.342 127.745 140.950  0.00  0.00    +0.000 OA
ATOM      3  O   UNL     1     103.355 128.613 140.356  0.00  0.00    +0.000 OA
ATOM      4  C   UNL     1     103.904 128.962 141.628  0.00  0.00    +0.000 A 
ATOM      5  C   UNL     1     103.944 129.476 142.272  0.00  0.00    +0.000 A 
ATOM      6  C   UNL     1     102.965 130.318 141.662  0.00  0.00    +0.000 A 
ATOM      7  C   UNL     1     102.925 129.805 141.017  0.00  0.00    +0.000 A 
ATOM      8  C   UNL     1     103.395 129.127 141.001  0.00  0.00    +0.000 A 
ATOM      9  C   UNL     1     104.389 128.253 141.599  0.00  0.00    +0.000 A 
ATOM     10  C   UNL     1     104.472 129.315 142.932  0.00  0.00    +0.000 A 
ATOM     11  C   UNL     1     104.963 128.611 142.920  0.00  0.00    +0.000 A 
ATOM     12  C   UNL     1     104.921 128.076 142.249  0.00  0.00    +0.000 A 
ENDROOT
BRANCH   6  14
ATOM     13  O   UNL     1     101.089 133.033 141.731  0.00  0.00    +0.000 OA
ATOM     14  C   UNL     1     102.496 130.996 141.679  0.00  0.00    +0.000 A 
ATOM     15  C   UNL     1     102.789 131.709 141.382  0.00  0.00    +0.000 A 
ATOM     16  C   UNL     1     101.734 130.963 141.994  0.00  0.00    +0.000 A 
ATOM     17  C   UNL     1     102.320 132.387 141.399  0.00  0.00    +0.000 A 
ATOM     18  C   UNL     1     101.265 131.643 142.011  0.00  0.00    +0.000 A 
ATOM     19  C   UNL     1     101.558 132.354 141.714  0.00  0.00    +0.000 A 
ENDBRANCH   6  14
BRANCH   7  20
ATOM     20  O   UNL     1     102.415 129.969 140.391  0.00  0.00    +0.000 OA
ATOM     21  C   UNL     1     102.249 129.387 139.831  0.00  0.00    +0.000 C 
ENDBRANCH   7  20
BRANCH  11  22
ATOM     22  O   UNL     1     105.472 128.449 143.549  0.00  0.00    +0.000 OA
ATOM     23  C   UNL     1     105.244 127.918 144.138  0.00  0.00    +0.000 C 
ENDBRANCH  11  22
TORSDOF 3
ENDMDL
MODEL 6
REMARK VINA RESULT:      -7.6     12.745     13.816
REMARK  Name = 5318869
REMARK  3 active torsions:
REMARK  status: ('A' for Active; 'I' for Inactive)
REMARK    1  A    between atoms: O_2  and  C_10
REMARK    2  A    between atoms: O_3  and  C_15
REMARK    3  A    between atoms: C_9  and  C_12
REMARK                            x       y       z     vdW  Elec       q    Type
REMARK                         _______ _______ _______ _____ _____    ______ ____
ROOT
ATOM      1  O   UNL     1     113.740 127.710 136.579  0.00  0.00    +0.000 OA
ATOM      2  O   UNL     1     111.350 128.955 135.533  0.00  0.00    +0.000 OA
ATOM      3  O   UNL     1     111.397 127.538 135.798  0.00  0.00    +0.000 OA
ATOM      4  C   UNL     1     112.558 128.327 136.062  0.00  0.00    +0.000 A 
ATOM      5  C   UNL     1     113.339 128.384 136.322  0.00  0.00    +0.000 A 
ATOM      6  C   UNL     1     113.358 126.978 136.575  0.00  0.00    +0.000 A 
ATOM      7  C   UNL     1     112.578 126.920 136.315  0.00  0.00    +0.000 A 
ATOM      8  C   UNL     1     112.178 127.595 136.058  0.00  0.00    +0.000 A 
ATOM      9  C   UNL     1     112.131 129.022 135.792  0.00  0.00    +0.000 A 
ATOM     10  C   UNL     1     113.747 129.141 136.330  0.00  0.00    +0.000 A 
ATOM     11  C   UNL     1     113.335 129.847 136.064  0.00  0.00    +0.000 A 
ATOM     12  C   UNL     1     112.522 129.787 135.793  0.00  0.00    +0.000 A 
ENDROOT
BRANCH   6  14
ATOM     13  O   UNL     1     114.960 124.283 137.606  0.00  0.00    +0.000 OA
ATOM     14  C   UNL     1     113.759 126.304 136.832  0.00  0.00    +0.000 A 
ATOM     15  C   UNL     1     113.703 126.067 137.621  0.00  0.00    +0.000 A 
ATOM     16  C   UNL     1     114.215 125.868 136.301  0.00  0.00    +0.000 A 
ATOM     17  C   UNL     1     114.103 125.393 137.878  0.00  0.00    +0.000 A 
ATOM     18  C   UNL     1     114.616 125.194 136.560  0.00  0.00    +0.000 A 
ATOM     19  C   UNL     1     114.560 124.957 137.347  0.00  0.00    +0.000 A 
ENDBRANCH   6  14
BRANCH   7  20
ATOM     20  O   UNL     1     112.197 126.189 136.312  0.00  0.00    +0.000 OA
ATOM     21  C   UNL     1     111.504 126.087 135.876  0.00  0.00    +0.000 C 
ENDBRANCH   7  20
BRANCH  11  22
ATOM     22  O   UNL     1     113.719 130.577 136.068  0.00  0.00    +0.000 OA
ATOM     23  C   UNL     1     113.754 131.020 136.764  0.00  0.00    +0.000 C 
ENDBRANCH  11  22
TORSDOF 3
ENDMDL
MODEL 7
REMARK VINA RESULT:      -7.5     12.634     13.087
REMARK  Name = 5318869
REMARK  3 active torsions:
REMARK  status: ('A' for Active; 'I' for Inactive)
REMARK    1  A    between atoms: O_2  and  C_10
REMARK    2  A    between atoms: O_3  and  C_15
REMARK    3  A    between atoms: C_9  and  C_12
REMARK                            x       y       z     vdW  Elec       q    Type
REMARK                         _______ _______ _______ _____ _____    ______ ____
ROOT
ATOM      1  O   UNL     1     112.353 126.587 136.371  0.00  0.00    +0.000 OA
ATOM      2  O   UNL     1     111.643 123.794 136.165  0.00  0.00    +0.000 OA
ATOM      3  O   UNL     1     110.793 124.821 135.615  0.00  0.00    +0.000 OA
ATOM      4  C   UNL     1     112.003 125.206 136.270  0.00  0.00    +0.000 A 
ATOM      5  C   UNL     1     112.523 125.794 136.522  0.00  0.00    +0.000 A 
ATOM      6  C   UNL     1     111.662 126.792 135.968  0.00  0.00    +0.000 A 
ATOM      7  C   UNL     1     111.142 126.203 135.716  0.00  0.00    +0.000 A 
ATOM      8  C   UNL     1     111.313 125.410 135.867  0.00  0.00    +0.000 A 
ATOM      9  C   UNL     1     112.169 124.376 136.421  0.00  0.00    +0.000 A 
ATOM     10  C   UNL     1     113.245 125.594 136.943  0.00  0.00    +0.000 A 
ATOM     11  C   UNL     1     113.428 124.770 137.103  0.00  0.00    +0.000 A 
ATOM     12  C   UNL     1     112.887 124.157 136.840  0.00  0.00    +0.000 A 
ENDROOT
BRANCH   6  14
ATOM     13  O   UNL     1     110.982 129.965 135.368  0.00  0.00    +0.000 OA
ATOM     14  C   UNL     1     111.492 127.585 135.818  0.00  0.00    +0.000 A 
ATOM     15  C   UNL     1     111.037 128.018 136.353  0.00  0.00    +0.000 A 
ATOM     16  C   UNL     1     111.777 127.945 135.132  0.00  0.00    +0.000 A 
ATOM     17  C   UNL     1     110.867 128.811 136.203  0.00  0.00    +0.000 A 
ATOM     18  C   UNL     1     111.607 128.739 134.983  0.00  0.00    +0.000 A 
ATOM     19  C   UNL     1     111.152 129.171 135.518  0.00  0.00    +0.000 A 
ENDBRANCH   6  14
BRANCH   7  20
ATOM     20  O   UNL     1     110.452 126.407 135.313  0.00  0.00    +0.000 OA
ATOM     21  C   UNL     1     110.065 125.846 134.848  0.00  0.00    +0.000 C 
ENDBRANCH   7  20
BRANCH  11  22
ATOM     22  O   UNL     1     114.120 124.569 137.506  0.00  0.00    +0.000 OA
ATOM     23  C   UNL     1     114.851 124.823 137.221  0.00  0.00    +0.000 C 
ENDBRANCH  11  22
TORSDOF 3
ENDMDL
MODEL 8
REMARK VINA RESULT:      -7.5     11.599     13.169
REMARK  Name = 5318869
REMARK  3 active torsions:
REMARK  status: ('A' for Active; 'I' for Inactive)
REMARK    1  A    between atoms: O_2  and  C_10
REMARK    2  A    between atoms: O_3  and  C_15
REMARK    3  A    between atoms: C_9  and  C_12
REMARK                            x       y       z     vdW  Elec       q    Type
REMARK                         _______ _______ _______ _____ _____    ______ ____
ROOT
ATOM      1  O   UNL     1     112.414 126.509 136.375  0.00  0.00    +0.000 OA
ATOM      2  O   UNL     1     111.073 128.511 134.781  0.00  0.00    +0.000 OA
ATOM      3  O   UNL     1     110.530 127.182 134.918  0.00  0.00    +0.000 OA
ATOM      4  C   UNL     1     111.751 127.500 135.587  0.00  0.00    +0.000 A 
ATOM      5  C   UNL     1     112.379 127.276 136.073  0.00  0.00    +0.000 A 
ATOM      6  C   UNL     1     111.819 125.966 136.192  0.00  0.00    +0.000 A 
ATOM      7  C   UNL     1     111.191 126.191 135.706  0.00  0.00    +0.000 A 
ATOM      8  C   UNL     1     111.158 126.958 135.404  0.00  0.00    +0.000 A 
ATOM      9  C   UNL     1     111.705 128.296 135.266  0.00  0.00    +0.000 A 
ATOM     10  C   UNL     1     113.004 127.832 136.271  0.00  0.00    +0.000 A 
ATOM     11  C   UNL     1     112.974 128.632 135.959  0.00  0.00    +0.000 A 
ATOM     12  C   UNL     1     112.320 128.865 135.453  0.00  0.00    +0.000 A 
ENDROOT
BRANCH   6  14
ATOM     13  O   UNL     1     111.957 122.900 137.405  0.00  0.00    +0.000 OA
ATOM     14  C   UNL     1     111.854 125.200 136.494  0.00  0.00    +0.000 A 
ATOM     15  C   UNL     1     111.497 125.026 137.218  0.00  0.00    +0.000 A 
ATOM     16  C   UNL     1     112.245 124.607 136.074  0.00  0.00    +0.000 A 
ATOM     17  C   UNL     1     111.531 124.259 137.521  0.00  0.00    +0.000 A 
ATOM     18  C   UNL     1     112.279 123.841 136.378  0.00  0.00    +0.000 A 
ATOM     19  C   UNL     1     111.923 123.667 137.101  0.00  0.00    +0.000 A 
ENDBRANCH   6  14
BRANCH   7  20
ATOM     20  O   UNL     1     110.598 125.649 135.523  0.00  0.00    +0.000 OA
ATOM     21  C   UNL     1     110.060 125.814 134.920  0.00  0.00    +0.000 C 
ENDBRANCH   7  20
BRANCH  11  22
ATOM     22  O   UNL     1     113.570 129.172 136.144  0.00  0.00    +0.000 OA
ATOM     23  C   UNL     1     114.213 129.267 135.636  0.00  0.00    +0.000 C 
ENDBRANCH  11  22
TORSDOF 3
ENDMDL
MODEL 9
REMARK VINA RESULT:      -7.5      1.415      4.220
REMARK  Name = 5318869
REMARK  3 active torsions:
REMARK  status: ('A' for Active; 'I' for Inactive)
REMARK    1  A    between atoms: O_2  and  C_10
REMARK    2  A    between atoms: O_3  and  C_15
REMARK    3  A    between atoms: C_9  and  C_12
REMARK                            x       y       z     vdW  Elec       q    Type
REMARK                         _______ _______ _______ _____ _____    ______ ____
ROOT
ATOM      1  O   UNL     1     103.587 124.865 147.072  0.00  0.00    +0.000 OA
ATOM      2  O   UNL     1     101.565 122.852 146.616  0.00  0.00    +0.000 OA
ATOM      3  O   UNL     1     102.847 122.782 145.960  0.00  0.00    +0.000 OA
ATOM      4  C   UNL     1     102.586 123.870 146.847  0.00  0.00    +0.000 A 
ATOM      5  C   UNL     1     102.833 124.564 147.218  0.00  0.00    +0.000 A 
ATOM      6  C   UNL     1     104.095 124.470 146.554  0.00  0.00    +0.000 A 
ATOM      7  C   UNL     1     103.848 123.776 146.183  0.00  0.00    +0.000 A 
ATOM      8  C   UNL     1     103.094 123.476 146.330  0.00  0.00    +0.000 A 
ATOM      9  C   UNL     1     101.803 123.547 146.992  0.00  0.00    +0.000 A 
ATOM     10  C   UNL     1     102.313 124.984 147.759  0.00  0.00    +0.000 A 
ATOM     11  C   UNL     1     101.527 124.676 147.916  0.00  0.00    +0.000 A 
ATOM     12  C   UNL     1     101.270 123.953 147.529  0.00  0.00    +0.000 A 
ENDROOT
BRANCH   6  14
ATOM     13  O   UNL     1     107.111 125.674 145.968  0.00  0.00    +0.000 OA
ATOM     14  C   UNL     1     104.849 124.771 146.408  0.00  0.00    +0.000 A 
ATOM     15  C   UNL     1     104.977 125.267 145.761  0.00  0.00    +0.000 A 
ATOM     16  C   UNL     1     105.476 124.575 146.908  0.00  0.00    +0.000 A 
ATOM     17  C   UNL     1     105.731 125.568 145.615  0.00  0.00    +0.000 A 
ATOM     18  C   UNL     1     106.230 124.877 146.761  0.00  0.00    +0.000 A 
ATOM     19  C   UNL     1     106.357 125.372 146.115  0.00  0.00    +0.000 A 
ENDBRANCH   6  14
BRANCH   7  20
ATOM     20  O   UNL     1     104.356 123.382 145.667  0.00  0.00    +0.000 OA
ATOM     21  C   UNL     1     104.051 122.849 145.116  0.00  0.00    +0.000 C 
ENDBRANCH   7  20
BRANCH  11  22
ATOM     22  O   UNL     1     101.022 125.073 148.434  0.00  0.00    +0.000 OA
ATOM     23  C   UNL     1     101.021 124.881 149.236  0.00  0.00    +0.000 C 
ENDBRANCH  11  22
TORSDOF 3
ENDMDL
MODEL 10
REMARK VINA RESULT:      -7.4     12.690     14.524
REMARK  Name = 5318869
REMARK  3 active torsions:
REMARK  status: ('A' for Active; 'I' for Inactive)
REMARK    1  A    between atoms: O_2  and  C_10
REMARK    2  A    between atoms: O_3  and  C_15
REMARK    3  A    between atoms: C_9  and  C_12
REMARK                            x       y       z     vdW  Elec       q    Type
REMARK                         _______ _______ _______ _____ _____    ______ ____
ROOT
ATOM      1  O   UNL     1     113.960 127.926 136.218  0.00  0.00    +0.000 OA
ATOM      2  O   UNL     1     111.369 126.649 136.140  0.00  0.00    +0.000 OA
ATOM      3  O   UNL     1     111.566 127.967 135.589  0.00  0.00    +0.000 OA
ATOM      4  C   UNL     1     112.679 127.293 136.180  0.00  0.00    +0.000 A 
ATOM      5  C   UNL     1     113.476 127.280 136.390  0.00  0.00    +0.000 A 
ATOM      6  C   UNL     1     113.644 128.587 135.836  0.00  0.00    +0.000 A 
ATOM      7  C   UNL     1     112.846 128.600 135.626  0.00  0.00    +0.000 A 
ATOM      8  C   UNL     1     112.364 127.953 135.798  0.00  0.00    +0.000 A 
ATOM      9  C   UNL     1     112.166 126.626 136.354  0.00  0.00    +0.000 A 
ATOM     10  C   UNL     1     113.816 126.598 136.788  0.00  0.00    +0.000 A 
ATOM     11  C   UNL     1     113.319 125.922 136.969  0.00  0.00    +0.000 A 
ATOM     12  C   UNL     1     112.488 125.936 136.751  0.00  0.00    +0.000 A 
ENDROOT
BRANCH   6  14
ATOM     13  O   UNL     1     115.577 131.173 135.151  0.00  0.00    +0.000 OA
ATOM     14  C   UNL     1     114.127 129.233 135.664  0.00  0.00    +0.000 A 
ATOM     15  C   UNL     1     114.194 129.852 136.206  0.00  0.00    +0.000 A 
ATOM     16  C   UNL     1     114.543 129.260 134.952  0.00  0.00    +0.000 A 
ATOM     17  C   UNL     1     114.678 130.498 136.034  0.00  0.00    +0.000 A 
ATOM     18  C   UNL     1     115.026 129.907 134.782  0.00  0.00    +0.000 A 
ATOM     19  C   UNL     1     115.094 130.526 135.322  0.00  0.00    +0.000 A 
ENDBRANCH   6  14
BRANCH   7  20
ATOM     20  O   UNL     1     112.532 129.260 135.245  0.00  0.00    +0.000 OA
ATOM     21  C   UNL     1     111.797 129.209 134.872  0.00  0.00    +0.000 C 
ENDBRANCH   7  20
BRANCH  11  22
ATOM     22  O   UNL     1     113.637 125.263 137.351  0.00  0.00    +0.000 OA
ATOM     23  C   UNL     1     114.056 124.699 136.919  0.00  0.00    +0.000 C 
ENDBRANCH  11  22
TORSDOF 3
ENDMDL
