MODEL 1
REMARK VINA RESULT:     -10.8      0.000      0.000
REMARK  Name = 131750822
REMARK  14 active torsions:
REMARK  status: ('A' for Active; 'I' for Inactive)
REMARK    1  A    between atoms: O_2  and  C_24
REMARK    2  A    between atoms: O_2  and  C_35
REMARK    3  A    between atoms: O_3  and  C_29
REMARK    4  A    between atoms: O_3  and  C_31
REMARK    5  A    between atoms: O_8  and  C_28
REMARK    6  A    between atoms: O_8  and  C_41
REMARK    7  A    between atoms: O_15  and  C_40
REMARK    8  A    between atoms: O_15  and  C_47
REMARK    9  A    between atoms: C_27  and  C_29
REMARK   10  A    between atoms: C_30  and  C_35
REMARK   11  A    between atoms: C_37  and  C_40
REMARK   12  A    between atoms: C_42  and  C_45
REMARK   13  A    between atoms: C_47  and  C_52
REMARK   14  A    between atoms: C_58  and  C_59
REMARK                            x       y       z     vdW  Elec       q    Type
REMARK                         _______ _______ _______ _____ _____    ______ ____
ROOT
ATOM      1  O   UNL     1     110.448 128.106 137.354  0.00  0.00    +0.000 OA
ATOM      2  O   UNL     1     108.477 127.860 135.879  0.00  0.00    +0.000 OA
ATOM      3  O   UNL     1     109.493 126.582 136.118  0.00  0.00    +0.000 OA
ATOM      4  C   UNL     1     109.283 128.663 136.743  0.00  0.00    +0.000 C 
ATOM      5  C   UNL     1     109.134 127.942 136.371  0.00  0.00    +0.000 C 
ATOM      6  C   UNL     1     109.642 127.303 136.490  0.00  0.00    +0.000 C 
ATOM      7  C   UNL     1     110.300 127.385 136.982  0.00  0.00    +0.000 C 
ATOM      8  C   UNL     1     109.941 128.745 137.235  0.00  0.00    +0.000 C 
ENDROOT
BRANCH   4   9
ATOM      9  O   UNL     1     108.775 129.302 136.624  0.00  0.00    +0.000 OA
BRANCH   9  10
ATOM     10  C   UNL     1     108.734 129.664 135.884  0.00  0.00    +0.000 C 
BRANCH  10  15
ATOM     11  O   UNL     1     107.642 130.600 136.188  0.00  0.00    +0.000 OA
ATOM     12  O   UNL     1     109.216 131.019 134.809  0.00  0.00    +0.000 OA
ATOM     13  O   UNL     1     108.009 132.333 134.998  0.00  0.00    +0.000 OA
ATOM     14  O   UNL     1     106.779 131.790 136.189  0.00  0.00    +0.000 OA
ATOM     15  C   UNL     1     108.334 130.380 135.797  0.00  0.00    +0.000 C 
ATOM     16  C   UNL     1     108.555 131.003 135.303  0.00  0.00    +0.000 C 
ATOM     17  C   UNL     1     108.000 131.607 135.390  0.00  0.00    +0.000 C 
ATOM     18  C   UNL     1     107.436 131.358 135.937  0.00  0.00    +0.000 C 
ENDBRANCH  10  15
ENDBRANCH   9  10
ENDBRANCH   4   9
BRANCH   8  19
ATOM     19  O   UNL     1     110.090 129.466 137.607  0.00  0.00    +0.000 OA
BRANCH  19  23
ATOM     20  O   UNL     1     110.815 130.066 139.577  0.00  0.00    +0.000 OA
ATOM     21  O   UNL     1     108.894 127.928 139.884  0.00  0.00    +0.000 OA
ATOM     22  O   UNL     1     110.166 129.089 142.243  0.00  0.00    +0.000 OA
ATOM     23  C   UNL     1     110.190 129.494 138.425  0.00  0.00    +0.000 A 
ATOM     24  C   UNL     1     110.715 130.037 138.759  0.00  0.00    +0.000 A 
ATOM     25  C   UNL     1     109.765 128.980 138.912  0.00  0.00    +0.000 A 
ATOM     26  C   UNL     1     109.866 129.009 139.730  0.00  0.00    +0.000 A 
ATOM     27  C   UNL     1     110.390 129.551 140.062  0.00  0.00    +0.000 A 
ATOM     28  C   UNL     1     109.417 128.468 140.225  0.00  0.00    +0.000 A 
ATOM     29  C   UNL     1     110.503 129.590 140.913  0.00  0.00    +0.000 A 
ATOM     30  C   UNL     1     109.517 128.492 141.078  0.00  0.00    +0.000 A 
ATOM     31  C   UNL     1     110.064 129.058 141.425  0.00  0.00    +0.000 A 
BRANCH  24  34
ATOM     32  O   UNL     1     110.965 132.563 137.446  0.00  0.00    +0.000 OA
ATOM     33  O   UNL     1     112.414 132.091 136.813  0.00  0.00    +0.000 OA
ATOM     34  C   UNL     1     111.139 130.551 138.272  0.00  0.00    +0.000 A 
ATOM     35  C   UNL     1     110.840 131.301 138.102  0.00  0.00    +0.000 A 
ATOM     36  C   UNL     1     111.864 130.314 137.957  0.00  0.00    +0.000 A 
ATOM     37  C   UNL     1     111.264 131.813 137.616  0.00  0.00    +0.000 A 
ATOM     38  C   UNL     1     112.289 130.828 137.470  0.00  0.00    +0.000 A 
ATOM     39  C   UNL     1     111.989 131.578 137.300  0.00  0.00    +0.000 A 
ENDBRANCH  24  34
ENDBRANCH  19  23
ENDBRANCH   8  19
BRANCH   7  40
ATOM     40  C   UNL     1     110.807 126.746 137.101  0.00  0.00    +0.000 C 
BRANCH  40  41
ATOM     41  O   UNL     1     111.545 126.730 136.733  0.00  0.00    +0.000 OA
BRANCH  41  46
ATOM     42  O   UNL     1     112.434 126.601 137.844  0.00  0.00    +0.000 OA
ATOM     43  O   UNL     1     112.314 125.484 135.972  0.00  0.00    +0.000 OA
ATOM     44  O   UNL     1     113.588 124.733 136.703  0.00  0.00    +0.000 OA
ATOM     45  O   UNL     1     114.093 125.226 138.195  0.00  0.00    +0.000 OA
ATOM     46  C   UNL     1     112.182 126.354 137.099  0.00  0.00    +0.000 C 
ATOM     47  C   UNL     1     112.567 125.732 136.718  0.00  0.00    +0.000 C 
ATOM     48  C   UNL     1     113.203 125.355 137.083  0.00  0.00    +0.000 C 
ATOM     49  C   UNL     1     113.456 125.602 137.830  0.00  0.00    +0.000 C 
ATOM     50  C   UNL     1     113.071 126.225 138.210  0.00  0.00    +0.000 C 
BRANCH  50  51
ATOM     51  C   UNL     1     113.323 126.472 138.955  0.00  0.00    +0.000 C 
BRANCH  51  52
ATOM     52  O   UNL     1     113.124 127.224 139.230  0.00  0.00    +0.000 OA
BRANCH  52  54
ATOM     53  O   UNL     1     113.449 127.016 140.606  0.00  0.00    +0.000 OA
ATOM     54  C   UNL     1     113.442 127.502 139.939  0.00  0.00    +0.000 C 
BRANCH  54  55
ATOM     55  C   UNL     1     113.751 128.265 139.982  0.00  0.00    +0.000 C 
ATOM     56  C   UNL     1     113.873 128.620 140.716  0.00  0.00    +0.000 C 
BRANCH  56  59
ATOM     57  O   UNL     1     113.706 131.310 141.668  0.00  0.00    +0.000 OA
ATOM     58  O   UNL     1     115.112 131.674 140.885  0.00  0.00    +0.000 OA
ATOM     59  C   UNL     1     114.183 129.384 140.758  0.00  0.00    +0.000 A 
ATOM     60  C   UNL     1     113.790 129.965 141.192  0.00  0.00    +0.000 A 
ATOM     61  C   UNL     1     114.885 129.567 140.366  0.00  0.00    +0.000 A 
ATOM     62  C   UNL     1     114.100 130.729 141.234  0.00  0.00    +0.000 A 
ATOM     63  C   UNL     1     115.195 130.330 140.409  0.00  0.00    +0.000 A 
ATOM     64  C   UNL     1     114.802 130.911 140.843  0.00  0.00    +0.000 A 
ENDBRANCH  56  59
ENDBRANCH  54  55
ENDBRANCH  52  54
ENDBRANCH  51  52
ENDBRANCH  50  51
ENDBRANCH  41  46
ENDBRANCH  40  41
ENDBRANCH   7  40
TORSDOF 14
ENDMDL
MODEL 2
REMARK VINA RESULT:     -10.5      1.670      4.718
REMARK  Name = 131750822
REMARK  14 active torsions:
REMARK  status: ('A' for Active; 'I' for Inactive)
REMARK    1  A    between atoms: O_2  and  C_24
REMARK    2  A    between atoms: O_2  and  C_35
REMARK    3  A    between atoms: O_3  and  C_29
REMARK    4  A    between atoms: O_3  and  C_31
REMARK    5  A    between atoms: O_8  and  C_28
REMARK    6  A    between atoms: O_8  and  C_41
REMARK    7  A    between atoms: O_15  and  C_40
REMARK    8  A    between atoms: O_15  and  C_47
REMARK    9  A    between atoms: C_27  and  C_29
REMARK   10  A    between atoms: C_30  and  C_35
REMARK   11  A    between atoms: C_37  and  C_40
REMARK   12  A    between atoms: C_42  and  C_45
REMARK   13  A    between atoms: C_47  and  C_52
REMARK   14  A    between atoms: C_58  and  C_59
REMARK                            x       y       z     vdW  Elec       q    Type
REMARK                         _______ _______ _______ _____ _____    ______ ____
ROOT
ATOM      1  O   UNL     1     110.946 129.879 138.618  0.00  0.00    +0.000 OA
ATOM      2  O   UNL     1     110.212 132.242 138.634  0.00  0.00    +0.000 OA
ATOM      3  O   UNL     1     110.835 131.563 140.002  0.00  0.00    +0.000 OA
ATOM      4  C   UNL     1     110.390 131.006 137.939  0.00  0.00    +0.000 C 
ATOM      5  C   UNL     1     110.457 131.454 138.628  0.00  0.00    +0.000 C 
ATOM      6  C   UNL     1     110.768 131.114 139.312  0.00  0.00    +0.000 C 
ATOM      7  C   UNL     1     111.013 130.326 139.307  0.00  0.00    +0.000 C 
ATOM      8  C   UNL     1     110.635 130.218 137.934  0.00  0.00    +0.000 C 
ENDROOT
BRANCH   4   9
ATOM      9  O   UNL     1     110.079 131.346 137.255  0.00  0.00    +0.000 OA
BRANCH   9  10
ATOM     10  C   UNL     1     109.282 131.558 137.225  0.00  0.00    +0.000 C 
BRANCH  10  15
ATOM     11  O   UNL     1     109.325 132.246 135.926  0.00  0.00    +0.000 OA
ATOM     12  O   UNL     1     107.605 131.228 136.676  0.00  0.00    +0.000 OA
ATOM     13  O   UNL     1     107.390 131.984 135.063  0.00  0.00    +0.000 OA
ATOM     14  O   UNL     1     108.935 132.782 134.614  0.00  0.00    +0.000 OA
ATOM     15  C   UNL     1     108.948 131.805 136.511  0.00  0.00    +0.000 C 
ATOM     16  C   UNL     1     108.177 131.653 136.260  0.00  0.00    +0.000 C 
ATOM     17  C   UNL     1     108.078 132.001 135.518  0.00  0.00    +0.000 C 
ATOM     18  C   UNL     1     108.788 132.367 135.312  0.00  0.00    +0.000 C 
ENDBRANCH  10  15
ENDBRANCH   9  10
ENDBRANCH   4   9
BRANCH   8  19
ATOM     19  O   UNL     1     110.568 129.770 137.245  0.00  0.00    +0.000 OA
BRANCH  19  23
ATOM     20  O   UNL     1     111.873 128.370 136.195  0.00  0.00    +0.000 OA
ATOM     21  O   UNL     1     113.400 130.702 136.956  0.00  0.00    +0.000 OA
ATOM     22  O   UNL     1     114.702 128.520 135.516  0.00  0.00    +0.000 OA
ATOM     23  C   UNL     1     111.241 129.441 136.900  0.00  0.00    +0.000 A 
ATOM     24  C   UNL     1     111.200 128.699 136.539  0.00  0.00    +0.000 A 
ATOM     25  C   UNL     1     111.956 129.852 136.915  0.00  0.00    +0.000 A 
ATOM     26  C   UNL     1     112.630 129.523 136.571  0.00  0.00    +0.000 A 
ATOM     27  C   UNL     1     112.588 128.782 136.211  0.00  0.00    +0.000 A 
ATOM     28  C   UNL     1     113.368 129.962 136.594  0.00  0.00    +0.000 A 
ATOM     29  C   UNL     1     113.282 128.429 135.849  0.00  0.00    +0.000 A 
ATOM     30  C   UNL     1     114.073 129.624 136.237  0.00  0.00    +0.000 A 
ATOM     31  C   UNL     1     114.030 128.853 135.861  0.00  0.00    +0.000 A 
BRANCH  24  34
ATOM     32  O   UNL     1     108.648 128.215 135.350  0.00  0.00    +0.000 OA
ATOM     33  O   UNL     1     108.341 127.053 136.481  0.00  0.00    +0.000 OA
ATOM     34  C   UNL     1     110.485 128.288 136.524  0.00  0.00    +0.000 A 
ATOM     35  C   UNL     1     109.924 128.457 135.944  0.00  0.00    +0.000 A 
ATOM     36  C   UNL     1     110.333 127.707 137.090  0.00  0.00    +0.000 A 
ATOM     37  C   UNL     1     109.209 128.046 135.930  0.00  0.00    +0.000 A 
ATOM     38  C   UNL     1     109.617 127.295 137.075  0.00  0.00    +0.000 A 
ATOM     39  C   UNL     1     109.056 127.465 136.495  0.00  0.00    +0.000 A 
ENDBRANCH  24  34
ENDBRANCH  19  23
ENDBRANCH   8  19
BRANCH   7  40
ATOM     40  C   UNL     1     111.324 129.987 139.992  0.00  0.00    +0.000 C 
BRANCH  40  41
ATOM     41  O   UNL     1     110.850 129.509 140.468  0.00  0.00    +0.000 OA
BRANCH  41  46
ATOM     42  O   UNL     1     111.829 128.482 140.637  0.00  0.00    +0.000 OA
ATOM     43  O   UNL     1     110.259 129.194 141.976  0.00  0.00    +0.000 OA
ATOM     44  O   UNL     1     110.942 128.009 142.899  0.00  0.00    +0.000 OA
ATOM     45  O   UNL     1     112.217 127.139 142.314  0.00  0.00    +0.000 OA
ATOM     46  C   UNL     1     111.192 128.916 140.929  0.00  0.00    +0.000 C 
ATOM     47  C   UNL     1     110.897 128.759 141.683  0.00  0.00    +0.000 C 
ATOM     48  C   UNL     1     111.238 128.166 142.145  0.00  0.00    +0.000 C 
ATOM     49  C   UNL     1     111.876 127.731 141.852  0.00  0.00    +0.000 C 
ATOM     50  C   UNL     1     112.171 127.889 141.098  0.00  0.00    +0.000 C 
BRANCH  50  51
ATOM     51  C   UNL     1     112.808 127.454 140.806  0.00  0.00    +0.000 C 
BRANCH  51  52
ATOM     52  O   UNL     1     112.868 127.304 139.997  0.00  0.00    +0.000 OA
BRANCH  52  54
ATOM     53  O   UNL     1     114.251 126.945 140.011  0.00  0.00    +0.000 OA
ATOM     54  C   UNL     1     113.491 126.846 139.707  0.00  0.00    +0.000 C 
BRANCH  54  55
ATOM     55  C   UNL     1     113.352 126.289 139.114  0.00  0.00    +0.000 C 
ATOM     56  C   UNL     1     113.897 126.193 138.504  0.00  0.00    +0.000 C 
BRANCH  56  59
ATOM     57  O   UNL     1     112.074 124.640 136.944  0.00  0.00    +0.000 OA
ATOM     58  O   UNL     1     113.342 123.966 136.132  0.00  0.00    +0.000 OA
ATOM     59  C   UNL     1     113.758 125.636 137.911  0.00  0.00    +0.000 A 
ATOM     60  C   UNL     1     112.986 125.416 137.723  0.00  0.00    +0.000 A 
ATOM     61  C   UNL     1     114.392 125.299 137.505  0.00  0.00    +0.000 A 
ATOM     62  C   UNL     1     112.847 124.860 137.130  0.00  0.00    +0.000 A 
ATOM     63  C   UNL     1     114.253 124.742 136.912  0.00  0.00    +0.000 A 
ATOM     64  C   UNL     1     113.481 124.523 136.725  0.00  0.00    +0.000 A 
ENDBRANCH  56  59
ENDBRANCH  54  55
ENDBRANCH  52  54
ENDBRANCH  51  52
ENDBRANCH  50  51
ENDBRANCH  41  46
ENDBRANCH  40  41
ENDBRANCH   7  40
TORSDOF 14
ENDMDL
MODEL 3
REMARK VINA RESULT:     -10.4      1.676      6.168
REMARK  Name = 131750822
REMARK  14 active torsions:
REMARK  status: ('A' for Active; 'I' for Inactive)
REMARK    1  A    between atoms: O_2  and  C_24
REMARK    2  A    between atoms: O_2  and  C_35
REMARK    3  A    between atoms: O_3  and  C_29
REMARK    4  A    between atoms: O_3  and  C_31
REMARK    5  A    between atoms: O_8  and  C_28
REMARK    6  A    between atoms: O_8  and  C_41
REMARK    7  A    between atoms: O_15  and  C_40
REMARK    8  A    between atoms: O_15  and  C_47
REMARK    9  A    between atoms: C_27  and  C_29
REMARK   10  A    between atoms: C_30  and  C_35
REMARK   11  A    between atoms: C_37  and  C_40
REMARK   12  A    between atoms: C_42  and  C_45
REMARK   13  A    between atoms: C_47  and  C_52
REMARK   14  A    between atoms: C_58  and  C_59
REMARK                            x       y       z     vdW  Elec       q    Type
REMARK                         _______ _______ _______ _____ _____    ______ ____
ROOT
ATOM      1  O   UNL     1     111.269 128.091 139.109  0.00  0.00    +0.000 OA
ATOM      2  O   UNL     1     112.528 126.112 139.901  0.00  0.00    +0.000 OA
ATOM      3  O   UNL     1     111.783 127.106 140.988  0.00  0.00    +0.000 OA
ATOM      4  C   UNL     1     112.061 126.935 138.829  0.00  0.00    +0.000 C 
ATOM      5  C   UNL     1     112.108 126.772 139.637  0.00  0.00    +0.000 C 
ATOM      6  C   UNL     1     111.736 127.269 140.180  0.00  0.00    +0.000 C 
ATOM      7  C   UNL     1     111.316 127.928 139.916  0.00  0.00    +0.000 C 
ATOM      8  C   UNL     1     111.642 127.594 138.565  0.00  0.00    +0.000 C 
ENDROOT
BRANCH   4   9
ATOM      9  O   UNL     1     112.434 126.438 138.286  0.00  0.00    +0.000 OA
BRANCH   9  10
ATOM     10  C   UNL     1     112.188 125.654 138.207  0.00  0.00    +0.000 C 
BRANCH  10  15
ATOM     11  O   UNL     1     113.241 125.255 137.262  0.00  0.00    +0.000 OA
ATOM     12  O   UNL     1     111.331 124.309 137.384  0.00  0.00    +0.000 OA
ATOM     13  O   UNL     1     112.432 123.627 136.143  0.00  0.00    +0.000 OA
ATOM     14  O   UNL     1     113.972 124.550 136.199  0.00  0.00    +0.000 OA
ATOM     15  C   UNL     1     112.492 125.187 137.599  0.00  0.00    +0.000 C 
ATOM     16  C   UNL     1     112.097 124.568 137.220  0.00  0.00    +0.000 C 
ATOM     17  C   UNL     1     112.604 124.255 136.650  0.00  0.00    +0.000 C 
ATOM     18  C   UNL     1     113.310 124.679 136.676  0.00  0.00    +0.000 C 
ENDBRANCH  10  15
ENDBRANCH   9  10
ENDBRANCH   4   9
BRANCH   8  19
ATOM     19  O   UNL     1     111.595 127.757 137.758  0.00  0.00    +0.000 OA
BRANCH  19  23
ATOM     20  O   UNL     1     111.706 129.558 136.530  0.00  0.00    +0.000 OA
ATOM     21  O   UNL     1     113.731 129.686 138.587  0.00  0.00    +0.000 OA
ATOM     22  O   UNL     1     113.466 131.874 136.670  0.00  0.00    +0.000 OA
ATOM     23  C   UNL     1     111.840 128.490 137.470  0.00  0.00    +0.000 A 
ATOM     24  C   UNL     1     111.461 128.825 136.818  0.00  0.00    +0.000 A 
ATOM     25  C   UNL     1     112.463 128.890 137.834  0.00  0.00    +0.000 A 
ATOM     26  C   UNL     1     112.708 129.623 137.547  0.00  0.00    +0.000 A 
ATOM     27  C   UNL     1     112.329 129.957 136.895  0.00  0.00    +0.000 A 
ATOM     28  C   UNL     1     113.358 130.028 137.935  0.00  0.00    +0.000 A 
ATOM     29  C   UNL     1     112.575 130.720 136.586  0.00  0.00    +0.000 A 
ATOM     30  C   UNL     1     113.618 130.792 137.640  0.00  0.00    +0.000 A 
ATOM     31  C   UNL     1     113.224 131.141 136.961  0.00  0.00    +0.000 A 
BRANCH  24  34
ATOM     32  O   UNL     1     108.661 128.313 136.564  0.00  0.00    +0.000 OA
ATOM     33  O   UNL     1     108.969 127.226 135.360  0.00  0.00    +0.000 OA
ATOM     34  C   UNL     1     110.837 128.426 136.454  0.00  0.00    +0.000 A 
ATOM     35  C   UNL     1     110.060 128.569 136.691  0.00  0.00    +0.000 A 
ATOM     36  C   UNL     1     110.992 127.883 135.853  0.00  0.00    +0.000 A 
ATOM     37  C   UNL     1     109.438 128.170 136.327  0.00  0.00    +0.000 A 
ATOM     38  C   UNL     1     110.369 127.483 135.488  0.00  0.00    +0.000 A 
ATOM     39  C   UNL     1     109.591 127.626 135.725  0.00  0.00    +0.000 A 
ENDBRANCH  24  34
ENDBRANCH  19  23
ENDBRANCH   8  19
BRANCH   7  40
ATOM     40  C   UNL     1     110.944 128.425 140.460  0.00  0.00    +0.000 C 
BRANCH  40  41
ATOM     41  O   UNL     1     110.121 128.475 140.477  0.00  0.00    +0.000 OA
BRANCH  41  46
ATOM     42  O   UNL     1     109.848 129.861 140.260  0.00  0.00    +0.000 OA
ATOM     43  O   UNL     1     109.203 128.509 141.847  0.00  0.00    +0.000 OA
ATOM     44  O   UNL     1     108.471 129.912 142.315  0.00  0.00    +0.000 OA
ATOM     45  O   UNL     1     108.657 131.281 141.413  0.00  0.00    +0.000 OA
ATOM     46  C   UNL     1     109.755 129.177 140.710  0.00  0.00    +0.000 C 
ATOM     47  C   UNL     1     109.296 129.194 141.396  0.00  0.00    +0.000 C 
ATOM     48  C   UNL     1     108.930 129.895 141.630  0.00  0.00    +0.000 C 
ATOM     49  C   UNL     1     109.023 130.580 141.178  0.00  0.00    +0.000 C 
ATOM     50  C   UNL     1     109.482 130.563 140.493  0.00  0.00    +0.000 C 
BRANCH  50  51
ATOM     51  C   UNL     1     109.575 131.247 140.043  0.00  0.00    +0.000 C 
BRANCH  51  52
ATOM     52  O   UNL     1     109.893 131.200 139.283  0.00  0.00    +0.000 OA
BRANCH  52  54
ATOM     53  O   UNL     1     110.112 132.564 138.918  0.00  0.00    +0.000 OA
ATOM     54  C   UNL     1     109.789 131.824 138.752  0.00  0.00    +0.000 C 
BRANCH  54  55
ATOM     55  C   UNL     1     109.361 131.707 138.057  0.00  0.00    +0.000 C 
ATOM     56  C   UNL     1     109.490 132.197 137.406  0.00  0.00    +0.000 C 
BRANCH  56  59
ATOM     57  O   UNL     1     107.082 131.409 136.085  0.00  0.00    +0.000 OA
ATOM     58  O   UNL     1     107.779 131.728 134.624  0.00  0.00    +0.000 OA
ATOM     59  C   UNL     1     109.062 132.080 136.711  0.00  0.00    +0.000 A 
ATOM     60  C   UNL     1     108.286 131.803 136.745  0.00  0.00    +0.000 A 
ATOM     61  C   UNL     1     109.410 132.239 135.980  0.00  0.00    +0.000 A 
ATOM     62  C   UNL     1     107.858 131.686 136.049  0.00  0.00    +0.000 A 
ATOM     63  C   UNL     1     108.982 132.122 135.284  0.00  0.00    +0.000 A 
ATOM     64  C   UNL     1     108.206 131.845 135.319  0.00  0.00    +0.000 A 
ENDBRANCH  56  59
ENDBRANCH  54  55
ENDBRANCH  52  54
ENDBRANCH  51  52
ENDBRANCH  50  51
ENDBRANCH  41  46
ENDBRANCH  40  41
ENDBRANCH   7  40
TORSDOF 14
ENDMDL
MODEL 4
REMARK VINA RESULT:     -10.4      1.596      5.437
REMARK  Name = 131750822
REMARK  14 active torsions:
REMARK  status: ('A' for Active; 'I' for Inactive)
REMARK    1  A    between atoms: O_2  and  C_24
REMARK    2  A    between atoms: O_2  and  C_35
REMARK    3  A    between atoms: O_3  and  C_29
REMARK    4  A    between atoms: O_3  and  C_31
REMARK    5  A    between atoms: O_8  and  C_28
REMARK    6  A    between atoms: O_8  and  C_41
REMARK    7  A    between atoms: O_15  and  C_40
REMARK    8  A    between atoms: O_15  and  C_47
REMARK    9  A    between atoms: C_27  and  C_29
REMARK   10  A    between atoms: C_30  and  C_35
REMARK   11  A    between atoms: C_37  and  C_40
REMARK   12  A    between atoms: C_42  and  C_45
REMARK   13  A    between atoms: C_47  and  C_52
REMARK   14  A    between atoms: C_58  and  C_59
REMARK                            x       y       z     vdW  Elec       q    Type
REMARK                         _______ _______ _______ _____ _____    ______ ____
ROOT
ATOM      1  O   UNL     1     111.072 128.697 136.963  0.00  0.00    +0.000 OA
ATOM      2  O   UNL     1     111.502 127.432 134.879  0.00  0.00    +0.000 OA
ATOM      3  O   UNL     1     110.540 128.772 134.847  0.00  0.00    +0.000 OA
ATOM      4  C   UNL     1     111.697 127.605 136.285  0.00  0.00    +0.000 C 
ATOM      5  C   UNL     1     111.359 127.853 135.574  0.00  0.00    +0.000 C 
ATOM      6  C   UNL     1     110.878 128.524 135.558  0.00  0.00    +0.000 C 
ATOM      7  C   UNL     1     110.735 128.945 136.253  0.00  0.00    +0.000 C 
ATOM      8  C   UNL     1     111.553 128.027 136.979  0.00  0.00    +0.000 C 
ENDROOT
BRANCH   4   9
ATOM      9  O   UNL     1     112.177 126.935 136.300  0.00  0.00    +0.000 OA
BRANCH   9  10
ATOM     10  C   UNL     1     111.853 126.190 136.157  0.00  0.00    +0.000 C 
BRANCH  10  15
ATOM     11  O   UNL     1     113.111 125.447 136.316  0.00  0.00    +0.000 OA
ATOM     12  O   UNL     1     111.179 124.590 136.610  0.00  0.00    +0.000 OA
ATOM     13  O   UNL     1     112.551 123.463 136.869  0.00  0.00    +0.000 OA
ATOM     14  O   UNL     1     114.075 124.367 136.575  0.00  0.00    +0.000 OA
ATOM     15  C   UNL     1     112.289 125.511 136.326  0.00  0.00    +0.000 C 
ATOM     16  C   UNL     1     111.979 124.775 136.534  0.00  0.00    +0.000 C 
ATOM     17  C   UNL     1     112.611 124.257 136.653  0.00  0.00    +0.000 C 
ATOM     18  C   UNL     1     113.310 124.673 136.518  0.00  0.00    +0.000 C 
ENDBRANCH  10  15
ENDBRANCH   9  10
ENDBRANCH   4   9
BRANCH   8  19
ATOM     19  O   UNL     1     111.891 127.778 137.689  0.00  0.00    +0.000 OA
BRANCH  19  23
ATOM     20  O   UNL     1     112.741 128.783 139.432  0.00  0.00    +0.000 OA
ATOM     21  O   UNL     1     113.670 130.097 137.031  0.00  0.00    +0.000 OA
ATOM     22  O   UNL     1     114.531 131.071 139.647  0.00  0.00    +0.000 OA
ATOM     23  C   UNL     1     112.323 128.310 138.149  0.00  0.00    +0.000 A 
ATOM     24  C   UNL     1     112.309 128.251 138.972  0.00  0.00    +0.000 A 
ATOM     25  C   UNL     1     112.769 128.902 137.786  0.00  0.00    +0.000 A 
ATOM     26  C   UNL     1     113.201 129.434 138.245  0.00  0.00    +0.000 A 
ATOM     27  C   UNL     1     113.187 129.374 139.067  0.00  0.00    +0.000 A 
ATOM     28  C   UNL     1     113.662 130.045 137.855  0.00  0.00    +0.000 A 
ATOM     29  C   UNL     1     113.633 129.922 139.557  0.00  0.00    +0.000 A 
ATOM     30  C   UNL     1     114.114 130.602 138.327  0.00  0.00    +0.000 A 
ATOM     31  C   UNL     1     114.100 130.540 139.184  0.00  0.00    +0.000 A 
BRANCH  24  34
ATOM     32  O   UNL     1     109.810 127.306 139.986  0.00  0.00    +0.000 OA
ATOM     33  O   UNL     1     110.526 125.884 140.423  0.00  0.00    +0.000 OA
ATOM     34  C   UNL     1     111.863 127.660 139.335  0.00  0.00    +0.000 A 
ATOM     35  C   UNL     1     111.059 127.779 139.479  0.00  0.00    +0.000 A 
ATOM     36  C   UNL     1     112.221 126.950 139.553  0.00  0.00    +0.000 A 
ATOM     37  C   UNL     1     110.614 127.187 139.842  0.00  0.00    +0.000 A 
ATOM     38  C   UNL     1     111.775 126.357 139.916  0.00  0.00    +0.000 A 
ATOM     39  C   UNL     1     110.971 126.476 140.060  0.00  0.00    +0.000 A 
ENDBRANCH  24  34
ENDBRANCH  19  23
ENDBRANCH   8  19
BRANCH   7  40
ATOM     40  C   UNL     1     110.254 129.616 136.236  0.00  0.00    +0.000 C 
BRANCH  40  41
ATOM     41  O   UNL     1     109.506 129.596 136.583  0.00  0.00    +0.000 OA
BRANCH  41  46
ATOM     42  O   UNL     1     109.527 130.600 137.600  0.00  0.00    +0.000 OA
ATOM     43  O   UNL     1     108.194 130.321 135.893  0.00  0.00    +0.000 OA
ATOM     44  O   UNL     1     107.558 131.687 136.566  0.00  0.00    +0.000 OA
ATOM     45  O   UNL     1     108.235 132.329 137.927  0.00  0.00    +0.000 OA
ATOM     46  C   UNL     1     109.189 130.279 136.919  0.00  0.00    +0.000 C 
ATOM     47  C   UNL     1     108.533 130.642 136.575  0.00  0.00    +0.000 C 
ATOM     48  C   UNL     1     108.214 131.325 136.910  0.00  0.00    +0.000 C 
ATOM     49  C   UNL     1     108.553 131.646 137.592  0.00  0.00    +0.000 C 
ATOM     50  C   UNL     1     109.209 131.283 137.936  0.00  0.00    +0.000 C 
BRANCH  50  51
ATOM     51  C   UNL     1     109.547 131.604 138.616  0.00  0.00    +0.000 C 
BRANCH  51  52
ATOM     52  O   UNL     1     109.996 131.127 139.118  0.00  0.00    +0.000 OA
BRANCH  52  54
ATOM     53  O   UNL     1     110.347 132.170 140.029  0.00  0.00    +0.000 OA
ATOM     54  C   UNL     1     110.164 131.379 139.886  0.00  0.00    +0.000 C 
BRANCH  54  55
ATOM     55  C   UNL     1     110.151 130.839 140.510  0.00  0.00    +0.000 C 
ATOM     56  C   UNL     1     110.609 130.974 141.181  0.00  0.00    +0.000 C 
BRANCH  56  59
ATOM     57  O   UNL     1     111.996 129.330 143.063  0.00  0.00    +0.000 OA
ATOM     58  O   UNL     1     110.553 128.814 143.676  0.00  0.00    +0.000 OA
ATOM     59  C   UNL     1     110.595 130.434 141.805  0.00  0.00    +0.000 A 
ATOM     60  C   UNL     1     111.302 130.151 142.123  0.00  0.00    +0.000 A 
ATOM     61  C   UNL     1     109.874 130.176 142.112  0.00  0.00    +0.000 A 
ATOM     62  C   UNL     1     111.288 129.611 142.746  0.00  0.00    +0.000 A 
ATOM     63  C   UNL     1     109.860 129.636 142.736  0.00  0.00    +0.000 A 
ATOM     64  C   UNL     1     110.567 129.354 143.053  0.00  0.00    +0.000 A 
ENDBRANCH  56  59
ENDBRANCH  54  55
ENDBRANCH  52  54
ENDBRANCH  51  52
ENDBRANCH  50  51
ENDBRANCH  41  46
ENDBRANCH  40  41
ENDBRANCH   7  40
TORSDOF 14
ENDMDL
MODEL 5
REMARK VINA RESULT:     -10.4      1.874      4.245
REMARK  Name = 131750822
REMARK  14 active torsions:
REMARK  status: ('A' for Active; 'I' for Inactive)
REMARK    1  A    between atoms: O_2  and  C_24
REMARK    2  A    between atoms: O_2  and  C_35
REMARK    3  A    between atoms: O_3  and  C_29
REMARK    4  A    between atoms: O_3  and  C_31
REMARK    5  A    between atoms: O_8  and  C_28
REMARK    6  A    between atoms: O_8  and  C_41
REMARK    7  A    between atoms: O_15  and  C_40
REMARK    8  A    between atoms: O_15  and  C_47
REMARK    9  A    between atoms: C_27  and  C_29
REMARK   10  A    between atoms: C_30  and  C_35
REMARK   11  A    between atoms: C_37  and  C_40
REMARK   12  A    between atoms: C_42  and  C_45
REMARK   13  A    between atoms: C_47  and  C_52
REMARK   14  A    between atoms: C_58  and  C_59
REMARK                            x       y       z     vdW  Elec       q    Type
REMARK                         _______ _______ _______ _____ _____    ______ ____
ROOT
ATOM      1  O   UNL     1     109.946 129.384 138.886  0.00  0.00    +0.000 OA
ATOM      2  O   UNL     1     108.280 131.214 138.927  0.00  0.00    +0.000 OA
ATOM      3  O   UNL     1     108.290 130.080 140.126  0.00  0.00    +0.000 OA
ATOM      4  C   UNL     1     109.386 130.560 138.300  0.00  0.00    +0.000 C 
ATOM      5  C   UNL     1     108.835 130.604 138.913  0.00  0.00    +0.000 C 
ATOM      6  C   UNL     1     108.841 130.037 139.512  0.00  0.00    +0.000 C 
ATOM      7  C   UNL     1     109.396 129.427 139.499  0.00  0.00    +0.000 C 
ATOM      8  C   UNL     1     109.942 129.951 138.286  0.00  0.00    +0.000 C 
ENDROOT
BRANCH   4   9
ATOM      9  O   UNL     1     109.381 131.127 137.701  0.00  0.00    +0.000 OA
BRANCH   9  10
ATOM     10  C   UNL     1     109.575 131.911 137.871  0.00  0.00    +0.000 C 
BRANCH  10  15
ATOM     11  O   UNL     1     109.527 132.384 136.481  0.00  0.00    +0.000 OA
ATOM     12  O   UNL     1     110.682 133.316 138.015  0.00  0.00    +0.000 OA
ATOM     13  O   UNL     1     110.801 134.095 136.403  0.00  0.00    +0.000 OA
ATOM     14  O   UNL     1     109.767 133.171 135.262  0.00  0.00    +0.000 OA
ATOM     15  C   UNL     1     109.786 132.425 137.262  0.00  0.00    +0.000 C 
ATOM     16  C   UNL     1     110.295 133.071 137.328  0.00  0.00    +0.000 C 
ATOM     17  C   UNL     1     110.350 133.429 136.587  0.00  0.00    +0.000 C 
ATOM     18  C   UNL     1     109.875 133.005 136.063  0.00  0.00    +0.000 C 
ENDBRANCH  10  15
ENDBRANCH   9  10
ENDBRANCH   4   9
BRANCH   8  19
ATOM     19  O   UNL     1     110.492 129.908 137.674  0.00  0.00    +0.000 OA
BRANCH  19  23
ATOM     20  O   UNL     1     111.477 128.262 136.630  0.00  0.00    +0.000 OA
ATOM     21  O   UNL     1     108.640 127.731 136.774  0.00  0.00    +0.000 OA
ATOM     22  O   UNL     1     110.412 125.815 135.464  0.00  0.00    +0.000 OA
ATOM     23  C   UNL     1     110.605 129.197 137.271  0.00  0.00    +0.000 A 
ATOM     24  C   UNL     1     111.364 128.973 137.033  0.00  0.00    +0.000 A 
ATOM     25  C   UNL     1     109.961 128.709 137.104  0.00  0.00    +0.000 A 
ATOM     26  C   UNL     1     110.074 127.998 136.701  0.00  0.00    +0.000 A 
ATOM     27  C   UNL     1     110.832 127.775 136.464  0.00  0.00    +0.000 A 
ATOM     28  C   UNL     1     109.394 127.500 136.534  0.00  0.00    +0.000 A 
ATOM     29  C   UNL     1     110.963 127.037 136.044  0.00  0.00    +0.000 A 
ATOM     30  C   UNL     1     109.506 126.758 136.114  0.00  0.00    +0.000 A 
ATOM     31  C   UNL     1     110.295 126.525 135.867  0.00  0.00    +0.000 A 
BRANCH  24  34
ATOM     32  O   UNL     1     113.152 131.062 136.259  0.00  0.00    +0.000 OA
ATOM     33  O   UNL     1     113.941 130.923 137.702  0.00  0.00    +0.000 OA
ATOM     34  C   UNL     1     112.008 129.461 137.200  0.00  0.00    +0.000 A 
ATOM     35  C   UNL     1     112.258 130.018 136.646  0.00  0.00    +0.000 A 
ATOM     36  C   UNL     1     112.401 129.390 137.922  0.00  0.00    +0.000 A 
ATOM     37  C   UNL     1     112.902 130.505 136.813  0.00  0.00    +0.000 A 
ATOM     38  C   UNL     1     113.046 129.878 138.089  0.00  0.00    +0.000 A 
ATOM     39  C   UNL     1     113.296 130.435 137.535  0.00  0.00    +0.000 A 
ENDBRANCH  24  34
ENDBRANCH  19  23
ENDBRANCH   8  19
BRANCH   7  40
ATOM     40  C   UNL     1     109.401 128.861 140.099  0.00  0.00    +0.000 C 
BRANCH  40  41
ATOM     41  O   UNL     1     109.039 128.130 139.979  0.00  0.00    +0.000 OA
BRANCH  41  46
ATOM     42  O   UNL     1     110.140 127.254 140.234  0.00  0.00    +0.000 OA
ATOM     43  O   UNL     1     108.064 127.175 140.907  0.00  0.00    +0.000 OA
ATOM     44  O   UNL     1     108.677 125.821 141.625  0.00  0.00    +0.000 OA
ATOM     45  O   UNL     1     110.265 125.423 141.417  0.00  0.00    +0.000 OA
ATOM     46  C   UNL     1     109.346 127.453 140.339  0.00  0.00    +0.000 C 
ATOM     47  C   UNL     1     108.859 126.975 140.802  0.00  0.00    +0.000 C 
ATOM     48  C   UNL     1     109.164 126.299 141.162  0.00  0.00    +0.000 C 
ATOM     49  C   UNL     1     109.959 126.100 141.057  0.00  0.00    +0.000 C 
ATOM     50  C   UNL     1     110.446 126.577 140.594  0.00  0.00    +0.000 C 
BRANCH  50  51
ATOM     51  C   UNL     1     111.240 126.378 140.490  0.00  0.00    +0.000 C 
BRANCH  51  52
ATOM     52  O   UNL     1     111.651 126.656 139.831  0.00  0.00    +0.000 OA
BRANCH  52  54
ATOM     53  O   UNL     1     113.001 126.572 140.292  0.00  0.00    +0.000 OA
ATOM     54  C   UNL     1     112.436 126.429 139.708  0.00  0.00    +0.000 C 
BRANCH  54  55
ATOM     55  C   UNL     1     112.654 126.061 139.003  0.00  0.00    +0.000 C 
ATOM     56  C   UNL     1     113.422 126.143 138.715  0.00  0.00    +0.000 C 
BRANCH  56  59
ATOM     57  O   UNL     1     113.309 123.887 136.964  0.00  0.00    +0.000 OA
ATOM     58  O   UNL     1     114.293 124.668 135.895  0.00  0.00    +0.000 OA
ATOM     59  C   UNL     1     113.639 125.774 138.010  0.00  0.00    +0.000 A 
ATOM     60  C   UNL     1     113.366 125.015 137.839  0.00  0.00    +0.000 A 
ATOM     61  C   UNL     1     114.131 126.164 137.475  0.00  0.00    +0.000 A 
ATOM     62  C   UNL     1     113.583 124.647 137.134  0.00  0.00    +0.000 A 
ATOM     63  C   UNL     1     114.349 125.796 136.770  0.00  0.00    +0.000 A 
ATOM     64  C   UNL     1     114.075 125.037 136.600  0.00  0.00    +0.000 A 
ENDBRANCH  56  59
ENDBRANCH  54  55
ENDBRANCH  52  54
ENDBRANCH  51  52
ENDBRANCH  50  51
ENDBRANCH  41  46
ENDBRANCH  40  41
ENDBRANCH   7  40
TORSDOF 14
ENDMDL
MODEL 6
REMARK VINA RESULT:     -10.1      1.210      2.548
REMARK  Name = 131750822
REMARK  14 active torsions:
REMARK  status: ('A' for Active; 'I' for Inactive)
REMARK    1  A    between atoms: O_2  and  C_24
REMARK    2  A    between atoms: O_2  and  C_35
REMARK    3  A    between atoms: O_3  and  C_29
REMARK    4  A    between atoms: O_3  and  C_31
REMARK    5  A    between atoms: O_8  and  C_28
REMARK    6  A    between atoms: O_8  and  C_41
REMARK    7  A    between atoms: O_15  and  C_40
REMARK    8  A    between atoms: O_15  and  C_47
REMARK    9  A    between atoms: C_27  and  C_29
REMARK   10  A    between atoms: C_30  and  C_35
REMARK   11  A    between atoms: C_37  and  C_40
REMARK   12  A    between atoms: C_42  and  C_45
REMARK   13  A    between atoms: C_47  and  C_52
REMARK   14  A    between atoms: C_58  and  C_59
REMARK                            x       y       z     vdW  Elec       q    Type
REMARK                         _______ _______ _______ _____ _____    ______ ____
ROOT
ATOM      1  O   UNL     1     110.765 128.494 136.678  0.00  0.00    +0.000 OA
ATOM      2  O   UNL     1     109.069 128.555 134.876  0.00  0.00    +0.000 OA
ATOM      3  O   UNL     1     109.681 127.110 135.384  0.00  0.00    +0.000 OA
ATOM      4  C   UNL     1     109.893 129.238 135.824  0.00  0.00    +0.000 C 
ATOM      5  C   UNL     1     109.634 128.535 135.477  0.00  0.00    +0.000 C 
ATOM      6  C   UNL     1     109.941 127.813 135.731  0.00  0.00    +0.000 C 
ATOM      7  C   UNL     1     110.506 127.792 136.331  0.00  0.00    +0.000 C 
ATOM      8  C   UNL     1     110.459 129.217 136.424  0.00  0.00    +0.000 C 
ENDROOT
BRANCH   4   9
ATOM      9  O   UNL     1     109.587 129.960 135.570  0.00  0.00    +0.000 OA
BRANCH   9  10
ATOM     10  C   UNL     1     108.802 130.156 135.732  0.00  0.00    +0.000 C 
BRANCH  10  15
ATOM     11  O   UNL     1     108.924 131.486 135.117  0.00  0.00    +0.000 OA
ATOM     12  O   UNL     1     107.108 130.714 135.930  0.00  0.00    +0.000 OA
ATOM     13  O   UNL     1     106.983 132.366 135.239  0.00  0.00    +0.000 OA
ATOM     14  O   UNL     1     108.602 132.829 134.613  0.00  0.00    +0.000 OA
ATOM     15  C   UNL     1     108.501 130.885 135.491  0.00  0.00    +0.000 C 
ATOM     16  C   UNL     1     107.721 131.142 135.582  0.00  0.00    +0.000 C 
ATOM     17  C   UNL     1     107.665 131.901 135.265  0.00  0.00    +0.000 C 
ATOM     18  C   UNL     1     108.408 132.113 134.977  0.00  0.00    +0.000 C 
ENDBRANCH  10  15
ENDBRANCH   9  10
ENDBRANCH   4   9
BRANCH   8  19
ATOM     19  O   UNL     1     110.717 129.919 136.770  0.00  0.00    +0.000 OA
BRANCH  19  23
ATOM     20  O   UNL     1     112.623 130.648 137.549  0.00  0.00    +0.000 OA
ATOM     21  O   UNL     1     113.082 129.269 135.051  0.00  0.00    +0.000 OA
ATOM     22  O   UNL     1     115.332 130.437 136.501  0.00  0.00    +0.000 OA
ATOM     23  C   UNL     1     111.525 130.074 136.835  0.00  0.00    +0.000 A 
ATOM     24  C   UNL     1     111.815 130.493 137.485  0.00  0.00    +0.000 A 
ATOM     25  C   UNL     1     112.044 129.811 136.249  0.00  0.00    +0.000 A 
ATOM     26  C   UNL     1     112.852 129.966 136.313  0.00  0.00    +0.000 A 
ATOM     27  C   UNL     1     113.141 130.384 136.963  0.00  0.00    +0.000 A 
ATOM     28  C   UNL     1     113.381 129.687 135.697  0.00  0.00    +0.000 A 
ATOM     29  C   UNL     1     113.980 130.552 137.040  0.00  0.00    +0.000 A 
ATOM     30  C   UNL     1     114.223 129.845 135.757  0.00  0.00    +0.000 A 
ATOM     31  C   UNL     1     114.525 130.280 136.434  0.00  0.00    +0.000 A 
BRANCH  24  34
ATOM     32  O   UNL     1     110.165 132.548 138.588  0.00  0.00    +0.000 OA
ATOM     33  O   UNL     1     109.740 131.542 139.827  0.00  0.00    +0.000 OA
ATOM     34  C   UNL     1     111.296 130.756 138.070  0.00  0.00    +0.000 A 
ATOM     35  C   UNL     1     110.990 131.521 138.036  0.00  0.00    +0.000 A 
ATOM     36  C   UNL     1     111.085 130.253 138.688  0.00  0.00    +0.000 A 
ATOM     37  C   UNL     1     110.472 131.783 138.622  0.00  0.00    +0.000 A 
ATOM     38  C   UNL     1     110.566 130.515 139.274  0.00  0.00    +0.000 A 
ATOM     39  C   UNL     1     110.259 131.281 139.241  0.00  0.00    +0.000 A 
ENDBRANCH  24  34
ENDBRANCH  19  23
ENDBRANCH   8  19
BRANCH   7  40
ATOM     40  C   UNL     1     110.812 127.069 136.585  0.00  0.00    +0.000 C 
BRANCH  40  41
ATOM     41  O   UNL     1     111.517 126.784 136.265  0.00  0.00    +0.000 OA
BRANCH  41  46
ATOM     42  O   UNL     1     112.241 126.467 137.455  0.00  0.00    +0.000 OA
ATOM     43  O   UNL     1     111.942 125.328 135.618  0.00  0.00    +0.000 OA
ATOM     44  O   UNL     1     112.880 124.282 136.484  0.00  0.00    +0.000 OA
ATOM     45  O   UNL     1     113.392 124.693 137.998  0.00  0.00    +0.000 OA
ATOM     46  C   UNL     1     111.986 126.262 136.699  0.00  0.00    +0.000 C 
ATOM     47  C   UNL     1     112.198 125.533 136.375  0.00  0.00    +0.000 C 
ATOM     48  C   UNL     1     112.667 125.010 136.808  0.00  0.00    +0.000 C 
ATOM     49  C   UNL     1     112.923 125.216 137.565  0.00  0.00    +0.000 C 
ATOM     50  C   UNL     1     112.710 125.944 137.889  0.00  0.00    +0.000 C 
BRANCH  50  51
ATOM     51  C   UNL     1     112.966 126.149 138.646  0.00  0.00    +0.000 C 
BRANCH  51  52
ATOM     52  O   UNL     1     113.235 126.915 138.797  0.00  0.00    +0.000 OA
BRANCH  52  54
ATOM     53  O   UNL     1     113.503 126.576 140.159  0.00  0.00    +0.000 OA
ATOM     54  C   UNL     1     113.409 127.146 139.570  0.00  0.00    +0.000 C 
BRANCH  54  55
ATOM     55  C   UNL     1     113.488 127.947 139.753  0.00  0.00    +0.000 C 
ATOM     56  C   UNL     1     113.910 128.176 140.423  0.00  0.00    +0.000 C 
BRANCH  56  59
ATOM     57  O   UNL     1     113.001 130.498 141.820  0.00  0.00    +0.000 OA
ATOM     58  O   UNL     1     114.228 131.378 141.155  0.00  0.00    +0.000 OA
ATOM     59  C   UNL     1     113.990 128.977 140.606  0.00  0.00    +0.000 A 
ATOM     60  C   UNL     1     113.456 129.337 141.121  0.00  0.00    +0.000 A 
ATOM     61  C   UNL     1     114.603 129.417 140.274  0.00  0.00    +0.000 A 
ATOM     62  C   UNL     1     113.535 130.138 141.304  0.00  0.00    +0.000 A 
ATOM     63  C   UNL     1     114.682 130.218 140.457  0.00  0.00    +0.000 A 
ATOM     64  C   UNL     1     114.148 130.578 140.972  0.00  0.00    +0.000 A 
ENDBRANCH  56  59
ENDBRANCH  54  55
ENDBRANCH  52  54
ENDBRANCH  51  52
ENDBRANCH  50  51
ENDBRANCH  41  46
ENDBRANCH  40  41
ENDBRANCH   7  40
TORSDOF 14
ENDMDL
MODEL 7
REMARK VINA RESULT:     -10.0      1.836      5.460
REMARK  Name = 131750822
REMARK  14 active torsions:
REMARK  status: ('A' for Active; 'I' for Inactive)
REMARK    1  A    between atoms: O_2  and  C_24
REMARK    2  A    between atoms: O_2  and  C_35
REMARK    3  A    between atoms: O_3  and  C_29
REMARK    4  A    between atoms: O_3  and  C_31
REMARK    5  A    between atoms: O_8  and  C_28
REMARK    6  A    between atoms: O_8  and  C_41
REMARK    7  A    between atoms: O_15  and  C_40
REMARK    8  A    between atoms: O_15  and  C_47
REMARK    9  A    between atoms: C_27  and  C_29
REMARK   10  A    between atoms: C_30  and  C_35
REMARK   11  A    between atoms: C_37  and  C_40
REMARK   12  A    between atoms: C_42  and  C_45
REMARK   13  A    between atoms: C_47  and  C_52
REMARK   14  A    between atoms: C_58  and  C_59
REMARK                            x       y       z     vdW  Elec       q    Type
REMARK                         _______ _______ _______ _____ _____    ______ ____
ROOT
ATOM      1  O   UNL     1     109.708 129.539 139.201  0.00  0.00    +0.000 OA
ATOM      2  O   UNL     1     108.098 130.892 140.505  0.00  0.00    +0.000 OA
ATOM      3  O   UNL     1     108.345 131.219 138.907  0.00  0.00    +0.000 OA
ATOM      4  C   UNL     1     109.048 129.826 140.435  0.00  0.00    +0.000 C 
ATOM      5  C   UNL     1     108.635 130.441 140.070  0.00  0.00    +0.000 C 
ATOM      6  C   UNL     1     108.759 130.604 139.271  0.00  0.00    +0.000 C 
ATOM      7  C   UNL     1     109.296 130.153 138.836  0.00  0.00    +0.000 C 
ATOM      8  C   UNL     1     109.585 129.376 140.000  0.00  0.00    +0.000 C 
ENDROOT
BRANCH   4   9
ATOM      9  O   UNL     1     108.924 129.664 141.234  0.00  0.00    +0.000 OA
BRANCH   9  10
ATOM     10  C   UNL     1     108.189 129.390 141.490  0.00  0.00    +0.000 C 
BRANCH  10  15
ATOM     11  O   UNL     1     108.486 129.326 142.929  0.00  0.00    +0.000 OA
ATOM     12  O   UNL     1     107.175 127.974 141.924  0.00  0.00    +0.000 OA
ATOM     13  O   UNL     1     107.363 127.675 143.683  0.00  0.00    +0.000 OA
ATOM     14  O   UNL     1     108.494 128.906 144.338  0.00  0.00    +0.000 OA
ATOM     15  C   UNL     1     108.112 129.062 142.243  0.00  0.00    +0.000 C 
ATOM     16  C   UNL     1     107.645 128.411 142.442  0.00  0.00    +0.000 C 
ATOM     17  C   UNL     1     107.732 128.273 143.251  0.00  0.00    +0.000 C 
ATOM     18  C   UNL     1     108.251 128.839 143.551  0.00  0.00    +0.000 C 
ENDBRANCH  10  15
ENDBRANCH   9  10
ENDBRANCH   4   9
BRANCH   8  19
ATOM     19  O   UNL     1     109.998 128.762 140.364  0.00  0.00    +0.000 OA
BRANCH  19  23
ATOM     20  O   UNL     1     112.054 128.029 140.309  0.00  0.00    +0.000 OA
ATOM     21  O   UNL     1     112.077 130.918 140.395  0.00  0.00    +0.000 OA
ATOM     22  O   UNL     1     114.599 129.446 140.310  0.00  0.00    +0.000 OA
ATOM     23  C   UNL     1     110.823 128.755 140.350  0.00  0.00    +0.000 A 
ATOM     24  C   UNL     1     111.229 128.037 140.322  0.00  0.00    +0.000 A 
ATOM     25  C   UNL     1     111.242 129.465 140.365  0.00  0.00    +0.000 A 
ATOM     26  C   UNL     1     112.067 129.458 140.351  0.00  0.00    +0.000 A 
ATOM     27  C   UNL     1     112.472 128.740 140.323  0.00  0.00    +0.000 A 
ATOM     28  C   UNL     1     112.492 130.205 140.367  0.00  0.00    +0.000 A 
ATOM     29  C   UNL     1     113.331 128.720 140.308  0.00  0.00    +0.000 A 
ATOM     30  C   UNL     1     113.351 130.204 140.353  0.00  0.00    +0.000 A 
ATOM     31  C   UNL     1     113.774 129.457 140.323  0.00  0.00    +0.000 A 
BRANCH  24  34
ATOM     32  O   UNL     1     110.072 125.817 141.700  0.00  0.00    +0.000 OA
ATOM     33  O   UNL     1     109.551 125.196 140.262  0.00  0.00    +0.000 OA
ATOM     34  C   UNL     1     110.810 127.326 140.308  0.00  0.00    +0.000 A 
ATOM     35  C   UNL     1     110.650 126.926 141.011  0.00  0.00    +0.000 A 
ATOM     36  C   UNL     1     110.549 127.017 139.589  0.00  0.00    +0.000 A 
ATOM     37  C   UNL     1     110.231 126.217 140.996  0.00  0.00    +0.000 A 
ATOM     38  C   UNL     1     110.129 126.306 139.574  0.00  0.00    +0.000 A 
ATOM     39  C   UNL     1     109.970 125.906 140.278  0.00  0.00    +0.000 A 
ENDBRANCH  24  34
ENDBRANCH  19  23
ENDBRANCH   8  19
BRANCH   7  40
ATOM     40  C   UNL     1     109.419 130.317 138.037  0.00  0.00    +0.000 C 
BRANCH  40  41
ATOM     41  O   UNL     1     109.170 129.781 137.462  0.00  0.00    +0.000 OA
BRANCH  41  46
ATOM     42  O   UNL     1     110.380 129.468 136.769  0.00  0.00    +0.000 OA
ATOM     43  O   UNL     1     108.432 130.110 136.024  0.00  0.00    +0.000 OA
ATOM     44  O   UNL     1     109.272 129.962 134.612  0.00  0.00    +0.000 OA
ATOM     45  O   UNL     1     110.851 129.485 134.638  0.00  0.00    +0.000 OA
ATOM     46  C   UNL     1     109.591 129.706 136.757  0.00  0.00    +0.000 C 
ATOM     47  C   UNL     1     109.222 129.871 136.037  0.00  0.00    +0.000 C 
ATOM     48  C   UNL     1     109.642 129.798 135.331  0.00  0.00    +0.000 C 
ATOM     49  C   UNL     1     110.432 129.559 135.344  0.00  0.00    +0.000 C 
ATOM     50  C   UNL     1     110.801 129.394 136.063  0.00  0.00    +0.000 C 
BRANCH  50  51
ATOM     51  C   UNL     1     111.590 129.155 136.076  0.00  0.00    +0.000 C 
BRANCH  51  52
ATOM     52  O   UNL     1     111.858 128.648 136.669  0.00  0.00    +0.000 OA
BRANCH  52  54
ATOM     53  O   UNL     1     113.243 129.000 136.674  0.00  0.00    +0.000 OA
ATOM     54  C   UNL     1     112.653 128.425 136.694  0.00  0.00    +0.000 C 
BRANCH  54  55
ATOM     55  C   UNL     1     112.855 127.626 136.738  0.00  0.00    +0.000 C 
ATOM     56  C   UNL     1     113.528 127.394 137.154  0.00  0.00    +0.000 C 
BRANCH  56  59
ATOM     57  O   UNL     1     114.812 125.101 136.031  0.00  0.00    +0.000 OA
ATOM     58  O   UNL     1     114.340 124.201 137.331  0.00  0.00    +0.000 OA
ATOM     59  C   UNL     1     113.731 126.596 137.199  0.00  0.00    +0.000 A 
ATOM     60  C   UNL     1     114.170 126.247 136.593  0.00  0.00    +0.000 A 
ATOM     61  C   UNL     1     113.495 126.145 137.848  0.00  0.00    +0.000 A 
ATOM     62  C   UNL     1     114.373 125.449 136.638  0.00  0.00    +0.000 A 
ATOM     63  C   UNL     1     113.698 125.347 137.892  0.00  0.00    +0.000 A 
ATOM     64  C   UNL     1     114.137 124.999 137.287  0.00  0.00    +0.000 A 
ENDBRANCH  56  59
ENDBRANCH  54  55
ENDBRANCH  52  54
ENDBRANCH  51  52
ENDBRANCH  50  51
ENDBRANCH  41  46
ENDBRANCH  40  41
ENDBRANCH   7  40
TORSDOF 14
ENDMDL
MODEL 8
REMARK VINA RESULT:     -10.0      2.241      5.399
REMARK  Name = 131750822
REMARK  14 active torsions:
REMARK  status: ('A' for Active; 'I' for Inactive)
REMARK    1  A    between atoms: O_2  and  C_24
REMARK    2  A    between atoms: O_2  and  C_35
REMARK    3  A    between atoms: O_3  and  C_29
REMARK    4  A    between atoms: O_3  and  C_31
REMARK    5  A    between atoms: O_8  and  C_28
REMARK    6  A    between atoms: O_8  and  C_41
REMARK    7  A    between atoms: O_15  and  C_40
REMARK    8  A    between atoms: O_15  and  C_47
REMARK    9  A    between atoms: C_27  and  C_29
REMARK   10  A    between atoms: C_30  and  C_35
REMARK   11  A    between atoms: C_37  and  C_40
REMARK   12  A    between atoms: C_42  and  C_45
REMARK   13  A    between atoms: C_47  and  C_52
REMARK   14  A    between atoms: C_58  and  C_59
REMARK                            x       y       z     vdW  Elec       q    Type
REMARK                         _______ _______ _______ _____ _____    ______ ____
ROOT
ATOM      1  O   UNL     1     111.325 128.130 139.097  0.00  0.00    +0.000 OA
ATOM      2  O   UNL     1     111.254 125.675 139.401  0.00  0.00    +0.000 OA
ATOM      3  O   UNL     1     110.032 126.615 139.989  0.00  0.00    +0.000 OA
ATOM      4  C   UNL     1     111.913 126.843 138.904  0.00  0.00    +0.000 C 
ATOM      5  C   UNL     1     111.278 126.493 139.299  0.00  0.00    +0.000 C 
ATOM      6  C   UNL     1     110.667 126.964 139.593  0.00  0.00    +0.000 C 
ATOM      7  C   UNL     1     110.690 127.782 139.492  0.00  0.00    +0.000 C 
ATOM      8  C   UNL     1     111.936 127.661 138.802  0.00  0.00    +0.000 C 
ENDROOT
BRANCH   4   9
ATOM      9  O   UNL     1     112.523 126.372 138.610  0.00  0.00    +0.000 OA
BRANCH   9  10
ATOM     10  C   UNL     1     112.377 125.842 137.995  0.00  0.00    +0.000 C 
BRANCH  10  15
ATOM     11  O   UNL     1     113.742 125.299 137.959  0.00  0.00    +0.000 OA
ATOM     12  O   UNL     1     112.380 125.201 136.318  0.00  0.00    +0.000 OA
ATOM     13  O   UNL     1     113.986 124.461 136.010  0.00  0.00    +0.000 OA
ATOM     14  O   UNL     1     114.976 124.645 137.497  0.00  0.00    +0.000 OA
ATOM     15  C   UNL     1     113.006 125.457 137.624  0.00  0.00    +0.000 C 
ATOM     16  C   UNL     1     113.007 125.162 136.853  0.00  0.00    +0.000 C 
ATOM     17  C   UNL     1     113.745 124.822 136.712  0.00  0.00    +0.000 C 
ATOM     18  C   UNL     1     114.200 124.907 137.395  0.00  0.00    +0.000 C 
ENDBRANCH  10  15
ENDBRANCH   9  10
ENDBRANCH   4   9
BRANCH   8  19
ATOM     19  O   UNL     1     112.570 128.009 138.407  0.00  0.00    +0.000 OA
BRANCH  19  23
ATOM     20  O   UNL     1     113.657 129.892 138.613  0.00  0.00    +0.000 OA
ATOM     21  O   UNL     1     113.296 128.714 141.227  0.00  0.00    +0.000 OA
ATOM     22  O   UNL     1     114.702 131.260 140.962  0.00  0.00    +0.000 OA
ATOM     23  C   UNL     1     112.969 128.646 138.748  0.00  0.00    +0.000 A 
ATOM     24  C   UNL     1     113.258 129.255 138.272  0.00  0.00    +0.000 A 
ATOM     25  C   UNL     1     113.080 128.674 139.565  0.00  0.00    +0.000 A 
ATOM     26  C   UNL     1     113.479 129.310 139.906  0.00  0.00    +0.000 A 
ATOM     27  C   UNL     1     113.767 129.919 139.430  0.00  0.00    +0.000 A 
ATOM     28  C   UNL     1     113.588 129.327 140.758  0.00  0.00    +0.000 A 
ATOM     29  C   UNL     1     114.184 130.587 139.773  0.00  0.00    +0.000 A 
ATOM     30  C   UNL     1     114.003 129.987 141.120  0.00  0.00    +0.000 A 
ATOM     31  C   UNL     1     114.303 130.622 140.624  0.00  0.00    +0.000 A 
BRANCH  24  34
ATOM     32  O   UNL     1     114.142 128.438 135.680  0.00  0.00    +0.000 OA
ATOM     33  O   UNL     1     112.812 129.144 135.004  0.00  0.00    +0.000 OA
ATOM     34  C   UNL     1     113.147 129.227 137.455  0.00  0.00    +0.000 A 
ATOM     35  C   UNL     1     113.700 128.846 136.976  0.00  0.00    +0.000 A 
ATOM     36  C   UNL     1     112.482 129.580 137.118  0.00  0.00    +0.000 A 
ATOM     37  C   UNL     1     113.588 128.819 136.159  0.00  0.00    +0.000 A 
ATOM     38  C   UNL     1     112.371 129.553 136.300  0.00  0.00    +0.000 A 
ATOM     39  C   UNL     1     112.924 129.172 135.821  0.00  0.00    +0.000 A 
ENDBRANCH  24  34
ENDBRANCH  19  23
ENDBRANCH   8  19
BRANCH   7  40
ATOM     40  C   UNL     1     110.079 128.251 139.786  0.00  0.00    +0.000 C 
BRANCH  40  41
ATOM     41  O   UNL     1     109.959 129.010 139.486  0.00  0.00    +0.000 OA
BRANCH  41  46
ATOM     42  O   UNL     1     109.751 129.693 140.724  0.00  0.00    +0.000 OA
ATOM     43  O   UNL     1     108.748 129.892 138.796  0.00  0.00    +0.000 OA
ATOM     44  O   UNL     1     107.935 131.017 139.689  0.00  0.00    +0.000 OA
ATOM     45  O   UNL     1     108.332 131.258 141.272  0.00  0.00    +0.000 OA
ATOM     46  C   UNL     1     109.553 129.572 139.933  0.00  0.00    +0.000 C 
ATOM     47  C   UNL     1     108.947 130.013 139.588  0.00  0.00    +0.000 C 
ATOM     48  C   UNL     1     108.540 130.575 140.034  0.00  0.00    +0.000 C 
ATOM     49  C   UNL     1     108.739 130.696 140.826  0.00  0.00    +0.000 C 
ATOM     50  C   UNL     1     109.345 130.255 141.171  0.00  0.00    +0.000 C 
BRANCH  50  51
ATOM     51  C   UNL     1     109.544 130.376 141.962  0.00  0.00    +0.000 C 
BRANCH  51  52
ATOM     52  O   UNL     1     110.333 130.344 142.198  0.00  0.00    +0.000 OA
BRANCH  52  54
ATOM     53  O   UNL     1     110.302 129.817 143.526  0.00  0.00    +0.000 OA
ATOM     54  C   UNL     1     110.528 130.409 142.998  0.00  0.00    +0.000 C 
BRANCH  54  55
ATOM     55  C   UNL     1     110.949 131.065 143.268  0.00  0.00    +0.000 C 
ATOM     56  C   UNL     1     111.573 130.965 143.798  0.00  0.00    +0.000 C 
BRANCH  56  59
ATOM     57  O   UNL     1     112.421 132.647 145.947  0.00  0.00    +0.000 OA
ATOM     58  O   UNL     1     113.254 133.590 144.880  0.00  0.00    +0.000 OA
ATOM     59  C   UNL     1     111.993 131.621 144.068  0.00  0.00    +0.000 A 
ATOM     60  C   UNL     1     111.997 131.807 144.872  0.00  0.00    +0.000 A 
ATOM     61  C   UNL     1     112.410 132.093 143.535  0.00  0.00    +0.000 A 
ATOM     62  C   UNL     1     112.418 132.463 145.143  0.00  0.00    +0.000 A 
ATOM     63  C   UNL     1     112.830 132.749 143.806  0.00  0.00    +0.000 A 
ATOM     64  C   UNL     1     112.834 132.934 144.609  0.00  0.00    +0.000 A 
ENDBRANCH  56  59
ENDBRANCH  54  55
ENDBRANCH  52  54
ENDBRANCH  51  52
ENDBRANCH  50  51
ENDBRANCH  41  46
ENDBRANCH  40  41
ENDBRANCH   7  40
TORSDOF 14
ENDMDL
MODEL 9
REMARK VINA RESULT:     -10.0      1.851      6.094
REMARK  Name = 131750822
REMARK  14 active torsions:
REMARK  status: ('A' for Active; 'I' for Inactive)
REMARK    1  A    between atoms: O_2  and  C_24
REMARK    2  A    between atoms: O_2  and  C_35
REMARK    3  A    between atoms: O_3  and  C_29
REMARK    4  A    between atoms: O_3  and  C_31
REMARK    5  A    between atoms: O_8  and  C_28
REMARK    6  A    between atoms: O_8  and  C_41
REMARK    7  A    between atoms: O_15  and  C_40
REMARK    8  A    between atoms: O_15  and  C_47
REMARK    9  A    between atoms: C_27  and  C_29
REMARK   10  A    between atoms: C_30  and  C_35
REMARK   11  A    between atoms: C_37  and  C_40
REMARK   12  A    between atoms: C_42  and  C_45
REMARK   13  A    between atoms: C_47  and  C_52
REMARK   14  A    between atoms: C_58  and  C_59
REMARK                            x       y       z     vdW  Elec       q    Type
REMARK                         _______ _______ _______ _____ _____    ______ ____
ROOT
ATOM      1  O   UNL     1     111.693 128.017 139.056  0.00  0.00    +0.000 OA
ATOM      2  O   UNL     1     112.204 125.705 139.780  0.00  0.00    +0.000 OA
ATOM      3  O   UNL     1     111.584 126.789 140.858  0.00  0.00    +0.000 OA
ATOM      4  C   UNL     1     112.174 126.705 138.758  0.00  0.00    +0.000 C 
ATOM      5  C   UNL     1     112.034 126.476 139.539  0.00  0.00    +0.000 C 
ATOM      6  C   UNL     1     111.724 127.018 140.077  0.00  0.00    +0.000 C 
ATOM      7  C   UNL     1     111.553 127.788 139.836  0.00  0.00    +0.000 C 
ATOM      8  C   UNL     1     112.003 127.475 138.517  0.00  0.00    +0.000 C 
ENDROOT
BRANCH   4   9
ATOM      9  O   UNL     1     112.484 126.162 138.219  0.00  0.00    +0.000 OA
BRANCH   9  10
ATOM     10  C   UNL     1     113.249 125.872 138.320  0.00  0.00    +0.000 C 
BRANCH  10  15
ATOM     11  O   UNL     1     113.191 124.997 137.140  0.00  0.00    +0.000 OA
ATOM     12  O   UNL     1     115.005 125.563 138.112  0.00  0.00    +0.000 OA
ATOM     13  O   UNL     1     115.215 124.486 136.692  0.00  0.00    +0.000 OA
ATOM     14  O   UNL     1     113.588 124.128 136.022  0.00  0.00    +0.000 OA
ATOM     15  C   UNL     1     113.593 125.404 137.733  0.00  0.00    +0.000 C 
ATOM     16  C   UNL     1     114.401 125.262 137.638  0.00  0.00    +0.000 C 
ATOM     17  C   UNL     1     114.496 124.767 136.985  0.00  0.00    +0.000 C 
ATOM     18  C   UNL     1     113.749 124.603 136.677  0.00  0.00    +0.000 C 
ENDBRANCH  10  15
ENDBRANCH   9  10
ENDBRANCH   4   9
BRANCH   8  19
ATOM     19  O   UNL     1     112.143 127.703 137.737  0.00  0.00    +0.000 OA
BRANCH  19  23
ATOM     20  O   UNL     1     110.996 128.764 136.212  0.00  0.00    +0.000 OA
ATOM     21  O   UNL     1     109.282 126.840 137.523  0.00  0.00    +0.000 OA
ATOM     22  O   UNL     1     108.212 128.525 135.390  0.00  0.00    +0.000 OA
ATOM     23  C   UNL     1     111.515 127.937 137.257  0.00  0.00    +0.000 A 
ATOM     24  C   UNL     1     111.624 128.530 136.692  0.00  0.00    +0.000 A 
ATOM     25  C   UNL     1     110.776 127.579 137.340  0.00  0.00    +0.000 A 
ATOM     26  C   UNL     1     110.147 127.813 136.859  0.00  0.00    +0.000 A 
ATOM     27  C   UNL     1     110.257 128.405 136.296  0.00  0.00    +0.000 A 
ATOM     28  C   UNL     1     109.383 127.432 136.956  0.00  0.00    +0.000 A 
ATOM     29  C   UNL     1     109.610 128.657 135.790  0.00  0.00    +0.000 A 
ATOM     30  C   UNL     1     108.724 127.671 136.459  0.00  0.00    +0.000 A 
ATOM     31  C   UNL     1     108.838 128.288 135.872  0.00  0.00    +0.000 A 
BRANCH  24  34
ATOM     32  O   UNL     1     114.256 128.545 135.580  0.00  0.00    +0.000 OA
ATOM     33  O   UNL     1     114.578 129.963 136.362  0.00  0.00    +0.000 OA
ATOM     34  C   UNL     1     112.363 128.887 136.609  0.00  0.00    +0.000 A 
ATOM     35  C   UNL     1     112.941 128.537 136.136  0.00  0.00    +0.000 A 
ATOM     36  C   UNL     1     112.523 129.596 137.000  0.00  0.00    +0.000 A 
ATOM     37  C   UNL     1     113.678 128.895 136.053  0.00  0.00    +0.000 A 
ATOM     38  C   UNL     1     113.262 129.954 136.917  0.00  0.00    +0.000 A 
ATOM     39  C   UNL     1     113.840 129.604 136.444  0.00  0.00    +0.000 A 
ENDBRANCH  24  34
ENDBRANCH  19  23
ENDBRANCH   8  19
BRANCH   7  40
ATOM     40  C   UNL     1     111.243 128.330 140.376  0.00  0.00    +0.000 C 
BRANCH  40  41
ATOM     41  O   UNL     1     111.678 128.997 140.588  0.00  0.00    +0.000 OA
BRANCH  41  46
ATOM     42  O   UNL     1     110.668 129.992 140.408  0.00  0.00    +0.000 OA
ATOM     43  O   UNL     1     112.152 129.731 141.988  0.00  0.00    +0.000 OA
ATOM     44  O   UNL     1     111.378 131.093 142.508  0.00  0.00    +0.000 OA
ATOM     45  O   UNL     1     110.131 131.721 141.628  0.00  0.00    +0.000 OA
ATOM     46  C   UNL     1     111.291 129.678 140.847  0.00  0.00    +0.000 C 
ATOM     47  C   UNL     1     111.528 130.045 141.547  0.00  0.00    +0.000 C 
ATOM     48  C   UNL     1     111.142 130.726 141.808  0.00  0.00    +0.000 C 
ATOM     49  C   UNL     1     110.518 131.040 141.367  0.00  0.00    +0.000 C 
ATOM     50  C   UNL     1     110.281 130.673 140.667  0.00  0.00    +0.000 C 
BRANCH  50  51
ATOM     51  C   UNL     1     109.658 130.986 140.228  0.00  0.00    +0.000 C 
BRANCH  51  52
ATOM     52  O   UNL     1     109.542 130.746 139.447  0.00  0.00    +0.000 OA
BRANCH  52  54
ATOM     53  O   UNL     1     108.199 131.225 139.346  0.00  0.00    +0.000 OA
ATOM     54  C   UNL     1     108.933 131.078 138.999  0.00  0.00    +0.000 C 
BRANCH  54  55
ATOM     55  C   UNL     1     109.058 131.261 138.205  0.00  0.00    +0.000 C 
ATOM     56  C   UNL     1     108.500 131.706 137.792  0.00  0.00    +0.000 C 
BRANCH  56  59
ATOM     57  O   UNL     1     107.536 131.867 135.106  0.00  0.00    +0.000 OA
ATOM     58  O   UNL     1     109.002 132.442 134.614  0.00  0.00    +0.000 OA
ATOM     59  C   UNL     1     108.626 131.890 136.997  0.00  0.00    +0.000 A 
ATOM     60  C   UNL     1     108.019 131.787 136.449  0.00  0.00    +0.000 A 
ATOM     61  C   UNL     1     109.359 132.177 136.751  0.00  0.00    +0.000 A 
ATOM     62  C   UNL     1     108.144 131.971 135.654  0.00  0.00    +0.000 A 
ATOM     63  C   UNL     1     109.484 132.361 135.956  0.00  0.00    +0.000 A 
ATOM     64  C   UNL     1     108.877 132.258 135.409  0.00  0.00    +0.000 A 
ENDBRANCH  56  59
ENDBRANCH  54  55
ENDBRANCH  52  54
ENDBRANCH  51  52
ENDBRANCH  50  51
ENDBRANCH  41  46
ENDBRANCH  40  41
ENDBRANCH   7  40
TORSDOF 14
ENDMDL
MODEL 10
REMARK VINA RESULT:      -9.9      1.690      5.386
REMARK  Name = 131750822
REMARK  14 active torsions:
REMARK  status: ('A' for Active; 'I' for Inactive)
REMARK    1  A    between atoms: O_2  and  C_24
REMARK    2  A    between atoms: O_2  and  C_35
REMARK    3  A    between atoms: O_3  and  C_29
REMARK    4  A    between atoms: O_3  and  C_31
REMARK    5  A    between atoms: O_8  and  C_28
REMARK    6  A    between atoms: O_8  and  C_41
REMARK    7  A    between atoms: O_15  and  C_40
REMARK    8  A    between atoms: O_15  and  C_47
REMARK    9  A    between atoms: C_27  and  C_29
REMARK   10  A    between atoms: C_30  and  C_35
REMARK   11  A    between atoms: C_37  and  C_40
REMARK   12  A    between atoms: C_42  and  C_45
REMARK   13  A    between atoms: C_47  and  C_52
REMARK   14  A    between atoms: C_58  and  C_59
REMARK                            x       y       z     vdW  Elec       q    Type
REMARK                         _______ _______ _______ _____ _____    ______ ____
ROOT
ATOM      1  O   UNL     1     110.525 130.026 139.230  0.00  0.00    +0.000 OA
ATOM      2  O   UNL     1     109.160 131.380 140.788  0.00  0.00    +0.000 OA
ATOM      3  O   UNL     1     108.878 131.457 139.164  0.00  0.00    +0.000 OA
ATOM      4  C   UNL     1     110.211 130.439 140.561  0.00  0.00    +0.000 C 
ATOM      5  C   UNL     1     109.615 130.929 140.268  0.00  0.00    +0.000 C 
ATOM      6  C   UNL     1     109.474 130.967 139.457  0.00  0.00    +0.000 C 
ATOM      7  C   UNL     1     109.929 130.515 138.937  0.00  0.00    +0.000 C 
ATOM      8  C   UNL     1     110.666 129.987 140.042  0.00  0.00    +0.000 C 
ENDROOT
BRANCH   4   9
ATOM      9  O   UNL     1     110.352 130.401 141.373  0.00  0.00    +0.000 OA
BRANCH   9  10
ATOM     10  C   UNL     1     110.616 131.070 141.778  0.00  0.00    +0.000 C 
BRANCH  10  15
ATOM     11  O   UNL     1     110.663 130.432 143.102  0.00  0.00    +0.000 OA
ATOM     12  O   UNL     1     111.841 132.126 142.556  0.00  0.00    +0.000 OA
ATOM     13  O   UNL     1     112.091 131.543 144.234  0.00  0.00    +0.000 OA
ATOM     14  O   UNL     1     111.019 130.126 144.495  0.00  0.00    +0.000 OA
ATOM     15  C   UNL     1     110.896 130.999 142.551  0.00  0.00    +0.000 C 
ATOM     16  C   UNL     1     111.459 131.485 142.908  0.00  0.00    +0.000 C 
ATOM     17  C   UNL     1     111.574 131.217 143.680  0.00  0.00    +0.000 C 
ATOM     18  C   UNL     1     111.082 130.566 143.800  0.00  0.00    +0.000 C 
ENDBRANCH  10  15
ENDBRANCH   9  10
ENDBRANCH   4   9
BRANCH   8  19
ATOM     19  O   UNL     1     111.262 129.498 140.334  0.00  0.00    +0.000 OA
BRANCH  19  23
ATOM     20  O   UNL     1     112.030 127.526 139.799  0.00  0.00    +0.000 OA
ATOM     21  O   UNL     1     109.141 127.450 139.804  0.00  0.00    +0.000 OA
ATOM     22  O   UNL     1     110.657 125.042 139.145  0.00  0.00    +0.000 OA
ATOM     23  C   UNL     1     111.283 128.701 140.121  0.00  0.00    +0.000 A 
ATOM     24  C   UNL     1     112.009 128.322 140.013  0.00  0.00    +0.000 A 
ATOM     25  C   UNL     1     110.580 128.283 140.015  0.00  0.00    +0.000 A 
ATOM     26  C   UNL     1     110.601 127.487 139.801  0.00  0.00    +0.000 A 
ATOM     27  C   UNL     1     111.326 127.108 139.693  0.00  0.00    +0.000 A 
ATOM     28  C   UNL     1     109.861 127.063 139.694  0.00  0.00    +0.000 A 
ATOM     29  C   UNL     1     111.361 126.279 139.471  0.00  0.00    +0.000 A 
ATOM     30  C   UNL     1     109.877 126.233 139.471  0.00  0.00    +0.000 A 
ATOM     31  C   UNL     1     110.631 125.838 139.359  0.00  0.00    +0.000 A 
BRANCH  24  34
ATOM     32  O   UNL     1     114.101 129.955 138.955  0.00  0.00    +0.000 OA
ATOM     33  O   UNL     1     114.821 129.994 140.439  0.00  0.00    +0.000 OA
ATOM     34  C   UNL     1     112.712 128.740 140.119  0.00  0.00    +0.000 A 
ATOM     35  C   UNL     1     113.055 129.139 139.483  0.00  0.00    +0.000 A 
ATOM     36  C   UNL     1     113.071 128.759 140.861  0.00  0.00    +0.000 A 
ATOM     37  C   UNL     1     113.758 129.556 139.590  0.00  0.00    +0.000 A 
ATOM     38  C   UNL     1     113.775 129.177 140.968  0.00  0.00    +0.000 A 
ATOM     39  C   UNL     1     114.118 129.576 140.332  0.00  0.00    +0.000 A 
ENDBRANCH  24  34
ENDBRANCH  19  23
ENDBRANCH   8  19
BRANCH   7  40
ATOM     40  C   UNL     1     109.788 130.554 138.125  0.00  0.00    +0.000 C 
BRANCH  40  41
ATOM     41  O   UNL     1     109.375 129.948 137.748  0.00  0.00    +0.000 OA
BRANCH  41  46
ATOM     42  O   UNL     1     110.288 129.454 136.766  0.00  0.00    +0.000 OA
ATOM     43  O   UNL     1     108.234 130.169 136.577  0.00  0.00    +0.000 OA
ATOM     44  O   UNL     1     108.576 129.785 135.009  0.00  0.00    +0.000 OA
ATOM     45  O   UNL     1     110.059 129.181 134.612  0.00  0.00    +0.000 OA
ATOM     46  C   UNL     1     109.547 129.756 136.964  0.00  0.00    +0.000 C 
ATOM     47  C   UNL     1     108.976 129.866 136.379  0.00  0.00    +0.000 C 
ATOM     48  C   UNL     1     109.147 129.675 135.595  0.00  0.00    +0.000 C 
ATOM     49  C   UNL     1     109.889 129.373 135.396  0.00  0.00    +0.000 C 
ATOM     50  C   UNL     1     110.460 129.262 135.982  0.00  0.00    +0.000 C 
BRANCH  50  51
ATOM     51  C   UNL     1     111.201 128.961 135.783  0.00  0.00    +0.000 C 
BRANCH  51  52
ATOM     52  O   UNL     1     111.625 128.515 136.333  0.00  0.00    +0.000 OA
BRANCH  52  54
ATOM     53  O   UNL     1     112.914 128.639 135.729  0.00  0.00    +0.000 OA
ATOM     54  C   UNL     1     112.351 128.183 136.122  0.00  0.00    +0.000 C 
BRANCH  54  55
ATOM     55  C   UNL     1     112.513 127.395 136.305  0.00  0.00    +0.000 C 
ATOM     56  C   UNL     1     113.288 127.157 136.455  0.00  0.00    +0.000 C 
BRANCH  56  59
ATOM     57  O   UNL     1     114.778 125.214 137.929  0.00  0.00    +0.000 OA
ATOM     58  O   UNL     1     113.935 124.005 137.186  0.00  0.00    +0.000 OA
ATOM     59  C   UNL     1     113.450 126.369 136.638  0.00  0.00    +0.000 A 
ATOM     60  C   UNL     1     114.032 126.185 137.192  0.00  0.00    +0.000 A 
ATOM     61  C   UNL     1     113.029 125.764 136.267  0.00  0.00    +0.000 A 
ATOM     62  C   UNL     1     114.194 125.397 137.374  0.00  0.00    +0.000 A 
ATOM     63  C   UNL     1     113.190 124.976 136.450  0.00  0.00    +0.000 A 
ATOM     64  C   UNL     1     113.773 124.793 137.004  0.00  0.00    +0.000 A 
ENDBRANCH  56  59
ENDBRANCH  54  55
ENDBRANCH  52  54
ENDBRANCH  51  52
ENDBRANCH  50  51
ENDBRANCH  41  46
ENDBRANCH  40  41
ENDBRANCH   7  40
TORSDOF 14
ENDMDL
