MODEL 1
REMARK VINA RESULT:      -8.3      0.000      0.000
REMARK  Name = 13058505
REMARK  2 active torsions:
REMARK  status: ('A' for Active; 'I' for Inactive)
REMARK    1  A    between atoms: O_3  and  C_19
REMARK    2  A    between atoms: C_5  and  C_7
REMARK                            x       y       z     vdW  Elec       q    Type
REMARK                         _______ _______ _______ _____ _____    ______ ____
ROOT
ATOM      1  O   UNL     1     105.595 124.483 147.756  0.00  0.00    +0.000 OA
ATOM      2  O   UNL     1     107.036 125.546 146.048  0.00  0.00    +0.000 OA
ATOM      3  O   UNL     1     107.837 124.377 149.611  0.00  0.00    +0.000 OA
ATOM      4  C   UNL     1     105.282 124.684 147.019  0.00  0.00    +0.000 C 
ATOM      5  C   UNL     1     105.762 125.038 146.449  0.00  0.00    +0.000 C 
ATOM      6  C   UNL     1     106.556 125.192 146.617  0.00  0.00    +0.000 C 
ATOM      7  C   UNL     1     106.868 124.991 147.353  0.00  0.00    +0.000 A 
ATOM      8  C   UNL     1     106.388 124.636 147.922  0.00  0.00    +0.000 A 
ATOM      9  C   UNL     1     107.696 125.156 147.515  0.00  0.00    +0.000 A 
ATOM     10  C   UNL     1     106.702 124.422 148.693  0.00  0.00    +0.000 A 
ATOM     11  C   UNL     1     107.527 124.580 148.873  0.00  0.00    +0.000 A 
ATOM     12  C   UNL     1     108.028 124.949 148.280  0.00  0.00    +0.000 A 
ENDROOT
BRANCH   4  13
ATOM     13  C   UNL     1     104.489 124.530 146.852  0.00  0.00    +0.000 A 
ATOM     14  C   UNL     1     104.285 123.888 146.375  0.00  0.00    +0.000 A 
ATOM     15  C   UNL     1     103.900 125.018 147.162  0.00  0.00    +0.000 A 
ATOM     16  C   UNL     1     103.492 123.735 146.208  0.00  0.00    +0.000 A 
ATOM     17  C   UNL     1     103.107 124.863 146.995  0.00  0.00    +0.000 A 
ATOM     18  C   UNL     1     102.903 124.222 146.518  0.00  0.00    +0.000 A 
BRANCH  18  19
ATOM     19  O   UNL     1     102.110 124.067 146.351  0.00  0.00    +0.000 OA
ATOM     20  C   UNL     1     101.546 124.107 146.951  0.00  0.00    +0.000 C 
ENDBRANCH  18  19
ENDBRANCH   4  13
TORSDOF 2
ENDMDL
MODEL 2
REMARK VINA RESULT:      -8.1     12.042     12.809
REMARK  Name = 13058505
REMARK  2 active torsions:
REMARK  status: ('A' for Active; 'I' for Inactive)
REMARK    1  A    between atoms: O_3  and  C_19
REMARK    2  A    between atoms: C_5  and  C_7
REMARK                            x       y       z     vdW  Elec       q    Type
REMARK                         _______ _______ _______ _____ _____    ______ ____
ROOT
ATOM      1  O   UNL     1     112.176 125.628 136.269  0.00  0.00    +0.000 OA
ATOM      2  O   UNL     1     112.016 123.284 137.048  0.00  0.00    +0.000 OA
ATOM      3  O   UNL     1     115.067 125.566 136.611  0.00  0.00    +0.000 OA
ATOM      4  C   UNL     1     111.439 125.257 136.314  0.00  0.00    +0.000 C 
ATOM      5  C   UNL     1     111.386 124.476 136.574  0.00  0.00    +0.000 C 
ATOM      6  C   UNL     1     112.069 124.066 136.789  0.00  0.00    +0.000 C 
ATOM      7  C   UNL     1     112.804 124.436 136.744  0.00  0.00    +0.000 A 
ATOM      8  C   UNL     1     112.858 125.217 136.485  0.00  0.00    +0.000 A 
ATOM      9  C   UNL     1     113.509 123.998 136.971  0.00  0.00    +0.000 A 
ATOM     10  C   UNL     1     113.618 125.614 136.434  0.00  0.00    +0.000 A 
ATOM     11  C   UNL     1     114.332 125.192 136.657  0.00  0.00    +0.000 A 
ATOM     12  C   UNL     1     114.277 124.379 136.927  0.00  0.00    +0.000 A 
ENDROOT
BRANCH   4  13
ATOM     13  C   UNL     1     110.757 125.668 136.099  0.00  0.00    +0.000 A 
ATOM     14  C   UNL     1     110.354 126.119 136.660  0.00  0.00    +0.000 A 
ATOM     15  C   UNL     1     110.479 125.628 135.323  0.00  0.00    +0.000 A 
ATOM     16  C   UNL     1     109.672 126.530 136.445  0.00  0.00    +0.000 A 
ATOM     17  C   UNL     1     109.796 126.040 135.109  0.00  0.00    +0.000 A 
ATOM     18  C   UNL     1     109.393 126.490 135.669  0.00  0.00    +0.000 A 
BRANCH  18  19
ATOM     19  O   UNL     1     108.710 126.902 135.455  0.00  0.00    +0.000 OA
ATOM     20  C   UNL     1     108.603 127.680 135.703  0.00  0.00    +0.000 C 
ENDBRANCH  18  19
ENDBRANCH   4  13
TORSDOF 2
ENDMDL
MODEL 3
REMARK VINA RESULT:      -7.8      8.132      9.011
REMARK  Name = 13058505
REMARK  2 active torsions:
REMARK  status: ('A' for Active; 'I' for Inactive)
REMARK    1  A    between atoms: O_3  and  C_19
REMARK    2  A    between atoms: C_5  and  C_7
REMARK                            x       y       z     vdW  Elec       q    Type
REMARK                         _______ _______ _______ _____ _____    ______ ____
ROOT
ATOM      1  O   UNL     1     102.955 130.470 142.116  0.00  0.00    +0.000 OA
ATOM      2  O   UNL     1     102.729 129.286 139.954  0.00  0.00    +0.000 OA
ATOM      3  O   UNL     1     104.880 128.483 143.025  0.00  0.00    +0.000 OA
ATOM      4  C   UNL     1     102.445 130.762 141.536  0.00  0.00    +0.000 C 
ATOM      5  C   UNL     1     102.369 130.368 140.815  0.00  0.00    +0.000 C 
ATOM      6  C   UNL     1     102.804 129.681 140.674  0.00  0.00    +0.000 C 
ATOM      7  C   UNL     1     103.314 129.388 141.253  0.00  0.00    +0.000 A 
ATOM      8  C   UNL     1     103.389 129.783 141.974  0.00  0.00    +0.000 A 
ATOM      9  C   UNL     1     103.761 128.672 141.094  0.00  0.00    +0.000 A 
ATOM     10  C   UNL     1     103.917 129.488 142.585  0.00  0.00    +0.000 A 
ATOM     11  C   UNL     1     104.371 128.773 142.443  0.00  0.00    +0.000 A 
ATOM     12  C   UNL     1     104.293 128.362 141.693  0.00  0.00    +0.000 A 
ENDROOT
BRANCH   4  13
ATOM     13  C   UNL     1     102.011 131.449 141.678  0.00  0.00    +0.000 A 
ATOM     14  C   UNL     1     102.341 132.187 141.512  0.00  0.00    +0.000 A 
ATOM     15  C   UNL     1     101.247 131.399 141.986  0.00  0.00    +0.000 A 
ATOM     16  C   UNL     1     101.907 132.874 141.655  0.00  0.00    +0.000 A 
ATOM     17  C   UNL     1     100.814 132.087 142.128  0.00  0.00    +0.000 A 
ATOM     18  C   UNL     1     101.144 132.824 141.962  0.00  0.00    +0.000 A 
BRANCH  18  19
ATOM     19  O   UNL     1     100.711 133.512 142.104  0.00  0.00    +0.000 OA
ATOM     20  C   UNL     1     100.824 134.177 141.630  0.00  0.00    +0.000 C 
ENDBRANCH  18  19
ENDBRANCH   4  13
TORSDOF 2
ENDMDL
MODEL 4
REMARK VINA RESULT:      -7.7      7.296      8.307
REMARK  Name = 13058505
REMARK  2 active torsions:
REMARK  status: ('A' for Active; 'I' for Inactive)
REMARK    1  A    between atoms: O_3  and  C_19
REMARK    2  A    between atoms: C_5  and  C_7
REMARK                            x       y       z     vdW  Elec       q    Type
REMARK                         _______ _______ _______ _____ _____    ______ ____
ROOT
ATOM      1  O   UNL     1     104.541 124.642 139.461  0.00  0.00    +0.000 OA
ATOM      2  O   UNL     1     105.658 122.777 140.645  0.00  0.00    +0.000 OA
ATOM      3  O   UNL     1     105.764 126.557 141.283  0.00  0.00    +0.000 OA
ATOM      4  C   UNL     1     104.425 123.865 139.209  0.00  0.00    +0.000 C 
ATOM      5  C   UNL     1     104.798 123.243 139.604  0.00  0.00    +0.000 C 
ATOM      6  C   UNL     1     105.286 123.399 140.250  0.00  0.00    +0.000 C 
ATOM      7  C   UNL     1     105.402 124.175 140.502  0.00  0.00    +0.000 A 
ATOM      8  C   UNL     1     105.030 124.797 140.108  0.00  0.00    +0.000 A 
ATOM      9  C   UNL     1     105.913 124.324 141.177  0.00  0.00    +0.000 A 
ATOM     10  C   UNL     1     105.143 125.611 140.361  0.00  0.00    +0.000 A 
ATOM     11  C   UNL     1     105.650 125.778 141.034  0.00  0.00    +0.000 A 
ATOM     12  C   UNL     1     106.038 125.131 141.444  0.00  0.00    +0.000 A 
ENDROOT
BRANCH   4  13
ATOM     13  C   UNL     1     103.937 123.710 138.563  0.00  0.00    +0.000 A 
ATOM     14  C   UNL     1     104.269 123.518 137.832  0.00  0.00    +0.000 A 
ATOM     15  C   UNL     1     103.117 123.748 138.646  0.00  0.00    +0.000 A 
ATOM     16  C   UNL     1     103.781 123.363 137.185  0.00  0.00    +0.000 A 
ATOM     17  C   UNL     1     102.629 123.593 137.998  0.00  0.00    +0.000 A 
ATOM     18  C   UNL     1     102.961 123.401 137.269  0.00  0.00    +0.000 A 
BRANCH  18  19
ATOM     19  O   UNL     1     102.474 123.246 136.621  0.00  0.00    +0.000 OA
ATOM     20  C   UNL     1     102.759 122.806 135.985  0.00  0.00    +0.000 C 
ENDBRANCH  18  19
ENDBRANCH   4  13
TORSDOF 2
ENDMDL
MODEL 5
REMARK VINA RESULT:      -7.6     11.919     13.101
REMARK  Name = 13058505
REMARK  2 active torsions:
REMARK  status: ('A' for Active; 'I' for Inactive)
REMARK    1  A    between atoms: O_3  and  C_19
REMARK    2  A    between atoms: C_5  and  C_7
REMARK                            x       y       z     vdW  Elec       q    Type
REMARK                         _______ _______ _______ _____ _____    ______ ____
ROOT
ATOM      1  O   UNL     1     110.904 126.294 136.566  0.00  0.00    +0.000 OA
ATOM      2  O   UNL     1     109.626 125.472 134.612  0.00  0.00    +0.000 OA
ATOM      3  O   UNL     1     108.953 128.417 136.975  0.00  0.00    +0.000 OA
ATOM      4  C   UNL     1     111.173 125.637 136.143  0.00  0.00    +0.000 C 
ATOM      5  C   UNL     1     110.747 125.363 135.492  0.00  0.00    +0.000 C 
ATOM      6  C   UNL     1     110.052 125.746 135.263  0.00  0.00    +0.000 C 
ATOM      7  C   UNL     1     109.784 126.402 135.685  0.00  0.00    +0.000 A 
ATOM      8  C   UNL     1     110.210 126.676 136.336  0.00  0.00    +0.000 A 
ATOM      9  C   UNL     1     109.059 126.792 135.437  0.00  0.00    +0.000 A 
ATOM     10  C   UNL     1     109.941 127.358 136.784  0.00  0.00    +0.000 A 
ATOM     11  C   UNL     1     109.219 127.760 136.550  0.00  0.00    +0.000 A 
ATOM     12  C   UNL     1     108.775 127.475 135.872  0.00  0.00    +0.000 A 
ENDROOT
BRANCH   4  13
ATOM     13  C   UNL     1     111.867 125.255 136.373  0.00  0.00    +0.000 A 
ATOM     14  C   UNL     1     112.593 125.641 136.299  0.00  0.00    +0.000 A 
ATOM     15  C   UNL     1     111.836 124.489 136.676  0.00  0.00    +0.000 A 
ATOM     16  C   UNL     1     113.287 125.259 136.528  0.00  0.00    +0.000 A 
ATOM     17  C   UNL     1     112.531 124.108 136.905  0.00  0.00    +0.000 A 
ATOM     18  C   UNL     1     113.256 124.493 136.832  0.00  0.00    +0.000 A 
BRANCH  18  19
ATOM     19  O   UNL     1     113.951 124.112 137.061  0.00  0.00    +0.000 OA
ATOM     20  C   UNL     1     114.582 124.549 137.361  0.00  0.00    +0.000 C 
ENDBRANCH  18  19
ENDBRANCH   4  13
TORSDOF 2
ENDMDL
MODEL 6
REMARK VINA RESULT:      -7.5     11.258     12.550
REMARK  Name = 13058505
REMARK  2 active torsions:
REMARK  status: ('A' for Active; 'I' for Inactive)
REMARK    1  A    between atoms: O_3  and  C_19
REMARK    2  A    between atoms: C_5  and  C_7
REMARK                            x       y       z     vdW  Elec       q    Type
REMARK                         _______ _______ _______ _____ _____    ______ ____
ROOT
ATOM      1  O   UNL     1     112.808 125.842 138.199  0.00  0.00    +0.000 OA
ATOM      2  O   UNL     1     114.996 124.947 137.467  0.00  0.00    +0.000 OA
ATOM      3  O   UNL     1     111.432 123.983 136.429  0.00  0.00    +0.000 OA
ATOM      4  C   UNL     1     113.506 126.151 138.513  0.00  0.00    +0.000 C 
ATOM      5  C   UNL     1     114.236 125.853 138.269  0.00  0.00    +0.000 C 
ATOM      6  C   UNL     1     114.267 125.246 137.711  0.00  0.00    +0.000 C 
ATOM      7  C   UNL     1     113.569 124.937 137.397  0.00  0.00    +0.000 A 
ATOM      8  C   UNL     1     112.840 125.235 137.641  0.00  0.00    +0.000 A 
ATOM      9  C   UNL     1     113.615 124.305 136.817  0.00  0.00    +0.000 A 
ATOM     10  C   UNL     1     112.106 124.922 137.322  0.00  0.00    +0.000 A 
ATOM     11  C   UNL     1     112.133 124.290 136.741  0.00  0.00    +0.000 A 
ATOM     12  C   UNL     1     112.892 123.979 136.487  0.00  0.00    +0.000 A 
ENDROOT
BRANCH   4  13
ATOM     13  C   UNL     1     113.474 126.758 139.070  0.00  0.00    +0.000 A 
ATOM     14  C   UNL     1     113.629 126.597 139.865  0.00  0.00    +0.000 A 
ATOM     15  C   UNL     1     113.287 127.526 138.834  0.00  0.00    +0.000 A 
ATOM     16  C   UNL     1     113.597 127.204 140.423  0.00  0.00    +0.000 A 
ATOM     17  C   UNL     1     113.255 128.133 139.393  0.00  0.00    +0.000 A 
ATOM     18  C   UNL     1     113.410 127.972 140.187  0.00  0.00    +0.000 A 
BRANCH  18  19
ATOM     19  O   UNL     1     113.378 128.578 140.745  0.00  0.00    +0.000 OA
ATOM     20  C   UNL     1     113.993 129.124 140.798  0.00  0.00    +0.000 C 
ENDBRANCH  18  19
ENDBRANCH   4  13
TORSDOF 2
ENDMDL
MODEL 7
REMARK VINA RESULT:      -7.5     12.969     13.952
REMARK  Name = 13058505
REMARK  2 active torsions:
REMARK  status: ('A' for Active; 'I' for Inactive)
REMARK    1  A    between atoms: O_3  and  C_19
REMARK    2  A    between atoms: C_5  and  C_7
REMARK                            x       y       z     vdW  Elec       q    Type
REMARK                         _______ _______ _______ _____ _____    ______ ____
ROOT
ATOM      1  O   UNL     1     112.867 126.285 136.426  0.00  0.00    +0.000 OA
ATOM      2  O   UNL     1     114.809 125.128 137.433  0.00  0.00    +0.000 OA
ATOM      3  O   UNL     1     111.453 123.750 136.192  0.00  0.00    +0.000 OA
ATOM      4  C   UNL     1     113.534 126.717 136.650  0.00  0.00    +0.000 C 
ATOM      5  C   UNL     1     114.181 126.331 136.985  0.00  0.00    +0.000 C 
ATOM      6  C   UNL     1     114.161 125.514 137.098  0.00  0.00    +0.000 C 
ATOM      7  C   UNL     1     113.495 125.083 136.874  0.00  0.00    +0.000 A 
ATOM      8  C   UNL     1     112.848 125.468 136.539  0.00  0.00    +0.000 A 
ATOM      9  C   UNL     1     113.487 124.232 136.997  0.00  0.00    +0.000 A 
ATOM     10  C   UNL     1     112.148 125.029 136.302  0.00  0.00    +0.000 A 
ATOM     11  C   UNL     1     112.122 124.178 136.416  0.00  0.00    +0.000 A 
ATOM     12  C   UNL     1     112.796 123.777 136.766  0.00  0.00    +0.000 A 
ENDROOT
BRANCH   4  13
ATOM     13  C   UNL     1     113.553 127.534 136.537  0.00  0.00    +0.000 A 
ATOM     14  C   UNL     1     113.219 128.035 137.102  0.00  0.00    +0.000 A 
ATOM     15  C   UNL     1     113.904 127.849 135.861  0.00  0.00    +0.000 A 
ATOM     16  C   UNL     1     113.238 128.852 136.989  0.00  0.00    +0.000 A 
ATOM     17  C   UNL     1     113.922 128.667 135.749  0.00  0.00    +0.000 A 
ATOM     18  C   UNL     1     113.589 129.168 136.313  0.00  0.00    +0.000 A 
BRANCH  18  19
ATOM     19  O   UNL     1     113.607 129.985 136.201  0.00  0.00    +0.000 OA
ATOM     20  C   UNL     1     114.211 130.435 136.538  0.00  0.00    +0.000 C 
ENDBRANCH  18  19
ENDBRANCH   4  13
TORSDOF 2
ENDMDL
MODEL 8
REMARK VINA RESULT:      -7.5      1.318      2.367
REMARK  Name = 13058505
REMARK  2 active torsions:
REMARK  status: ('A' for Active; 'I' for Inactive)
REMARK    1  A    between atoms: O_3  and  C_19
REMARK    2  A    between atoms: C_5  and  C_7
REMARK                            x       y       z     vdW  Elec       q    Type
REMARK                         _______ _______ _______ _____ _____    ______ ____
ROOT
ATOM      1  O   UNL     1     104.291 124.343 146.167  0.00  0.00    +0.000 OA
ATOM      2  O   UNL     1     104.705 124.603 148.593  0.00  0.00    +0.000 OA
ATOM      3  O   UNL     1     106.920 125.449 145.579  0.00  0.00    +0.000 OA
ATOM      4  C   UNL     1     103.714 124.114 146.712  0.00  0.00    +0.000 C 
ATOM      5  C   UNL     1     103.852 124.201 147.520  0.00  0.00    +0.000 C 
ATOM      6  C   UNL     1     104.567 124.516 147.785  0.00  0.00    +0.000 C 
ATOM      7  C   UNL     1     105.144 124.745 147.241  0.00  0.00    +0.000 A 
ATOM      8  C   UNL     1     105.006 124.658 146.433  0.00  0.00    +0.000 A 
ATOM      9  C   UNL     1     105.885 125.072 147.530  0.00  0.00    +0.000 A 
ATOM     10  C   UNL     1     105.599 124.892 145.856  0.00  0.00    +0.000 A 
ATOM     11  C   UNL     1     106.345 125.221 146.126  0.00  0.00    +0.000 A 
ATOM     12  C   UNL     1     106.489 125.312 146.968  0.00  0.00    +0.000 A 
ENDROOT
BRANCH   4  13
ATOM     13  C   UNL     1     103.000 123.799 146.446  0.00  0.00    +0.000 A 
ATOM     14  C   UNL     1     102.988 123.065 146.067  0.00  0.00    +0.000 A 
ATOM     15  C   UNL     1     102.297 124.215 146.559  0.00  0.00    +0.000 A 
ATOM     16  C   UNL     1     102.274 122.750 145.801  0.00  0.00    +0.000 A 
ATOM     17  C   UNL     1     101.583 123.899 146.293  0.00  0.00    +0.000 A 
ATOM     18  C   UNL     1     101.571 123.167 145.915  0.00  0.00    +0.000 A 
BRANCH  18  19
ATOM     19  O   UNL     1     100.857 122.850 145.648  0.00  0.00    +0.000 OA
ATOM     20  C   UNL     1     100.730 122.739 144.842  0.00  0.00    +0.000 C 
ENDBRANCH  18  19
ENDBRANCH   4  13
TORSDOF 2
ENDMDL
MODEL 9
REMARK VINA RESULT:      -7.4     13.225     13.981
REMARK  Name = 13058505
REMARK  2 active torsions:
REMARK  status: ('A' for Active; 'I' for Inactive)
REMARK    1  A    between atoms: O_3  and  C_19
REMARK    2  A    between atoms: C_5  and  C_7
REMARK                            x       y       z     vdW  Elec       q    Type
REMARK                         _______ _______ _______ _____ _____    ______ ____
ROOT
ATOM      1  O   UNL     1     113.797 126.828 136.790  0.00  0.00    +0.000 OA
ATOM      2  O   UNL     1     111.711 125.734 136.028  0.00  0.00    +0.000 OA
ATOM      3  O   UNL     1     114.911 124.238 137.522  0.00  0.00    +0.000 OA
ATOM      4  C   UNL     1     113.179 127.283 136.485  0.00  0.00    +0.000 C 
ATOM      5  C   UNL     1     112.484 126.919 136.231  0.00  0.00    +0.000 C 
ATOM      6  C   UNL     1     112.406 126.099 136.282  0.00  0.00    +0.000 C 
ATOM      7  C   UNL     1     113.023 125.644 136.587  0.00  0.00    +0.000 A 
ATOM      8  C   UNL     1     113.718 126.008 136.841  0.00  0.00    +0.000 A 
ATOM      9  C   UNL     1     112.929 124.790 136.635  0.00  0.00    +0.000 A 
ATOM     10  C   UNL     1     114.367 125.544 137.161  0.00  0.00    +0.000 A 
ATOM     11  C   UNL     1     114.292 124.691 137.216  0.00  0.00    +0.000 A 
ATOM     12  C   UNL     1     113.568 124.311 136.951  0.00  0.00    +0.000 A 
ENDROOT
BRANCH   4  13
ATOM     13  C   UNL     1     113.258 128.103 136.435  0.00  0.00    +0.000 A 
ATOM     14  C   UNL     1     113.606 128.443 135.767  0.00  0.00    +0.000 A 
ATOM     15  C   UNL     1     112.990 128.582 137.050  0.00  0.00    +0.000 A 
ATOM     16  C   UNL     1     113.685 129.262 135.717  0.00  0.00    +0.000 A 
ATOM     17  C   UNL     1     113.070 129.402 136.998  0.00  0.00    +0.000 A 
ATOM     18  C   UNL     1     113.417 129.742 136.332  0.00  0.00    +0.000 A 
BRANCH  18  19
ATOM     19  O   UNL     1     113.496 130.562 136.281  0.00  0.00    +0.000 OA
ATOM     20  C   UNL     1     114.147 130.936 136.622  0.00  0.00    +0.000 C 
ENDBRANCH  18  19
ENDBRANCH   4  13
TORSDOF 2
ENDMDL
MODEL 10
REMARK VINA RESULT:      -7.3      8.889     10.049
REMARK  Name = 13058505
REMARK  2 active torsions:
REMARK  status: ('A' for Active; 'I' for Inactive)
REMARK    1  A    between atoms: O_3  and  C_19
REMARK    2  A    between atoms: C_5  and  C_7
REMARK                            x       y       z     vdW  Elec       q    Type
REMARK                         _______ _______ _______ _____ _____    ______ ____
ROOT
ATOM      1  O   UNL     1     102.836 131.975 141.209  0.00  0.00    +0.000 OA
ATOM      2  O   UNL     1     100.711 132.187 142.461  0.00  0.00    +0.000 OA
ATOM      3  O   UNL     1     102.959 134.867 140.888  0.00  0.00    +0.000 OA
ATOM      4  C   UNL     1     102.455 131.300 141.494  0.00  0.00    +0.000 C 
ATOM      5  C   UNL     1     101.747 131.371 141.911  0.00  0.00    +0.000 C 
ATOM      6  C   UNL     1     101.419 132.116 142.044  0.00  0.00    +0.000 C 
ATOM      7  C   UNL     1     101.799 132.790 141.759  0.00  0.00    +0.000 A 
ATOM      8  C   UNL     1     102.507 132.720 141.342  0.00  0.00    +0.000 A 
ATOM      9  C   UNL     1     101.447 133.561 141.903  0.00  0.00    +0.000 A 
ATOM     10  C   UNL     1     102.913 133.415 141.040  0.00  0.00    +0.000 A 
ATOM     11  C   UNL     1     102.576 134.194 141.175  0.00  0.00    +0.000 A 
ATOM     12  C   UNL     1     101.838 134.267 141.609  0.00  0.00    +0.000 A 
ENDROOT
BRANCH   4  13
ATOM     13  C   UNL     1     102.784 130.555 141.361  0.00  0.00    +0.000 A 
ATOM     14  C   UNL     1     102.551 130.113 140.704  0.00  0.00    +0.000 A 
ATOM     15  C   UNL     1     103.344 130.251 141.885  0.00  0.00    +0.000 A 
ATOM     16  C   UNL     1     102.880 129.368 140.571  0.00  0.00    +0.000 A 
ATOM     17  C   UNL     1     103.672 129.506 141.751  0.00  0.00    +0.000 A 
ATOM     18  C   UNL     1     103.440 129.065 141.095  0.00  0.00    +0.000 A 
BRANCH  18  19
ATOM     19  O   UNL     1     103.768 128.320 140.961  0.00  0.00    +0.000 OA
ATOM     20  C   UNL     1     104.392 128.052 141.429  0.00  0.00    +0.000 C 
ENDBRANCH  18  19
ENDBRANCH   4  13
TORSDOF 2
ENDMDL
