MODEL 1
REMARK VINA RESULT:      -8.9      0.000      0.000
REMARK  Name = 129685429
REMARK  2 active torsions:
REMARK  status: ('A' for Active; 'I' for Inactive)
REMARK    1  A    between atoms: O_5  and  C_21
REMARK    2  A    between atoms: C_6  and  C_10
REMARK                            x       y       z     vdW  Elec       q    Type
REMARK                         _______ _______ _______ _____ _____    ______ ____
ROOT
ATOM      1  O   UNL     1     104.957 125.411 139.949  0.00  0.00    +0.000 OA
ATOM      2  O   UNL     1     104.960 122.936 139.415  0.00  0.00    +0.000 OA
ATOM      3  O   UNL     1     105.960 122.740 140.435  0.00  0.00    +0.000 OA
ATOM      4  O   UNL     1     106.956 124.936 141.969  0.00  0.00    +0.000 OA
ATOM      5  C   UNL     1     104.437 124.274 139.149  0.00  0.00    +0.000 C 
ATOM      6  C   UNL     1     104.439 125.113 139.333  0.00  0.00    +0.000 C 
ATOM      7  C   UNL     1     104.954 123.744 139.584  0.00  0.00    +0.000 C 
ATOM      8  C   UNL     1     105.467 124.060 140.198  0.00  0.00    +0.000 A 
ATOM      9  C   UNL     1     105.469 124.866 140.374  0.00  0.00    +0.000 A 
ATOM     10  C   UNL     1     105.965 125.157 140.964  0.00  0.00    +0.000 A 
ATOM     11  C   UNL     1     105.961 123.546 140.612  0.00  0.00    +0.000 A 
ATOM     12  C   UNL     1     106.459 124.644 141.378  0.00  0.00    +0.000 A 
ATOM     13  C   UNL     1     106.458 123.838 141.202  0.00  0.00    +0.000 A 
ATOM     14  C   UNL     1     105.966 125.963 141.141  0.00  0.00    +0.000 C 
ENDROOT
BRANCH   5  15
ATOM     15  C   UNL     1     103.942 123.978 138.559  0.00  0.00    +0.000 A 
ATOM     16  C   UNL     1     104.251 123.784 137.819  0.00  0.00    +0.000 A 
ATOM     17  C   UNL     1     103.137 123.876 138.709  0.00  0.00    +0.000 A 
ATOM     18  C   UNL     1     103.755 123.489 137.230  0.00  0.00    +0.000 A 
ATOM     19  C   UNL     1     102.641 123.581 138.120  0.00  0.00    +0.000 A 
ATOM     20  C   UNL     1     102.950 123.387 137.380  0.00  0.00    +0.000 A 
BRANCH  20  21
ATOM     21  O   UNL     1     102.454 123.092 136.790  0.00  0.00    +0.000 OA
ATOM     22  C   UNL     1     102.777 122.753 136.111  0.00  0.00    +0.000 C 
ENDBRANCH  20  21
ENDBRANCH   5  15
TORSDOF 2
ENDMDL
MODEL 2
REMARK VINA RESULT:      -8.4      6.960      8.489
REMARK  Name = 129685429
REMARK  2 active torsions:
REMARK  status: ('A' for Active; 'I' for Inactive)
REMARK    1  A    between atoms: O_5  and  C_21
REMARK    2  A    between atoms: C_6  and  C_10
REMARK                            x       y       z     vdW  Elec       q    Type
REMARK                         _______ _______ _______ _____ _____    ______ ____
ROOT
ATOM      1  O   UNL     1     103.123 124.881 147.359  0.00  0.00    +0.000 OA
ATOM      2  O   UNL     1     104.883 123.543 146.125  0.00  0.00    +0.000 OA
ATOM      3  O   UNL     1     103.835 122.739 145.546  0.00  0.00    +0.000 OA
ATOM      4  O   UNL     1     101.087 123.230 146.161  0.00  0.00    +0.000 OA
ATOM      5  C   UNL     1     104.551 124.630 147.043  0.00  0.00    +0.000 C 
ATOM      6  C   UNL     1     103.952 125.081 147.460  0.00  0.00    +0.000 C 
ATOM      7  C   UNL     1     104.314 123.982 146.530  0.00  0.00    +0.000 C 
ATOM      8  C   UNL     1     103.480 123.796 146.441  0.00  0.00    +0.000 A 
ATOM      9  C   UNL     1     102.904 124.230 146.842  0.00  0.00    +0.000 A 
ATOM     10  C   UNL     1     102.107 124.041 146.748  0.00  0.00    +0.000 A 
ATOM     11  C   UNL     1     103.259 123.173 145.947  0.00  0.00    +0.000 A 
ATOM     12  C   UNL     1     101.885 123.419 146.255  0.00  0.00    +0.000 A 
ATOM     13  C   UNL     1     102.461 122.985 145.854  0.00  0.00    +0.000 A 
ATOM     14  C   UNL     1     101.531 124.475 147.149  0.00  0.00    +0.000 C 
ENDROOT
BRANCH   5  15
ATOM     15  C   UNL     1     105.350 124.815 147.134  0.00  0.00    +0.000 A 
ATOM     16  C   UNL     1     105.738 125.266 146.561  0.00  0.00    +0.000 A 
ATOM     17  C   UNL     1     105.762 124.550 147.798  0.00  0.00    +0.000 A 
ATOM     18  C   UNL     1     106.536 125.451 146.653  0.00  0.00    +0.000 A 
ATOM     19  C   UNL     1     106.561 124.735 147.889  0.00  0.00    +0.000 A 
ATOM     20  C   UNL     1     106.948 125.186 147.317  0.00  0.00    +0.000 A 
BRANCH  20  21
ATOM     21  O   UNL     1     107.746 125.371 147.408  0.00  0.00    +0.000 OA
ATOM     22  C   UNL     1     108.195 124.990 147.985  0.00  0.00    +0.000 C 
ENDBRANCH  20  21
ENDBRANCH   5  15
TORSDOF 2
ENDMDL
MODEL 3
REMARK VINA RESULT:      -8.4      6.444      7.257
REMARK  Name = 129685429
REMARK  2 active torsions:
REMARK  status: ('A' for Active; 'I' for Inactive)
REMARK    1  A    between atoms: O_5  and  C_21
REMARK    2  A    between atoms: C_6  and  C_10
REMARK                            x       y       z     vdW  Elec       q    Type
REMARK                         _______ _______ _______ _____ _____    ______ ____
ROOT
ATOM      1  O   UNL     1     105.027 124.392 147.628  0.00  0.00    +0.000 OA
ATOM      2  O   UNL     1     104.129 124.487 145.262  0.00  0.00    +0.000 OA
ATOM      3  O   UNL     1     105.365 125.100 144.842  0.00  0.00    +0.000 OA
ATOM      4  O   UNL     1     107.465 125.621 146.708  0.00  0.00    +0.000 OA
ATOM      5  C   UNL     1     103.933 124.120 146.662  0.00  0.00    +0.000 C 
ATOM      6  C   UNL     1     104.240 124.089 147.463  0.00  0.00    +0.000 C 
ATOM      7  C   UNL     1     104.416 124.453 146.035  0.00  0.00    +0.000 C 
ATOM      8  C   UNL     1     105.201 124.752 146.218  0.00  0.00    +0.000 A 
ATOM      9  C   UNL     1     105.496 124.723 146.988  0.00  0.00    +0.000 A 
ATOM     10  C   UNL     1     106.251 125.012 147.151  0.00  0.00    +0.000 A 
ATOM     11  C   UNL     1     105.660 125.071 145.611  0.00  0.00    +0.000 A 
ATOM     12  C   UNL     1     106.710 125.331 146.545  0.00  0.00    +0.000 A 
ATOM     13  C   UNL     1     106.415 125.360 145.776  0.00  0.00    +0.000 A 
ATOM     14  C   UNL     1     106.546 124.983 147.921  0.00  0.00    +0.000 C 
ENDROOT
BRANCH   5  15
ATOM     15  C   UNL     1     103.178 123.831 146.495  0.00  0.00    +0.000 A 
ATOM     16  C   UNL     1     103.084 123.068 146.196  0.00  0.00    +0.000 A 
ATOM     17  C   UNL     1     102.516 124.306 146.627  0.00  0.00    +0.000 A 
ATOM     18  C   UNL     1     102.329 122.780 146.029  0.00  0.00    +0.000 A 
ATOM     19  C   UNL     1     101.761 124.018 146.460  0.00  0.00    +0.000 A 
ATOM     20  C   UNL     1     101.668 123.255 146.161  0.00  0.00    +0.000 A 
BRANCH  20  21
ATOM     21  O   UNL     1     100.913 122.967 145.994  0.00  0.00    +0.000 OA
ATOM     22  C   UNL     1     100.719 122.739 145.225  0.00  0.00    +0.000 C 
ENDBRANCH  20  21
ENDBRANCH   5  15
TORSDOF 2
ENDMDL
MODEL 4
REMARK VINA RESULT:      -8.2      6.287      8.020
REMARK  Name = 129685429
REMARK  2 active torsions:
REMARK  status: ('A' for Active; 'I' for Inactive)
REMARK    1  A    between atoms: O_5  and  C_21
REMARK    2  A    between atoms: C_6  and  C_10
REMARK                            x       y       z     vdW  Elec       q    Type
REMARK                         _______ _______ _______ _____ _____    ______ ____
ROOT
ATOM      1  O   UNL     1     103.542 130.244 142.912  0.00  0.00    +0.000 OA
ATOM      2  O   UNL     1     102.296 130.592 140.736  0.00  0.00    +0.000 OA
ATOM      3  O   UNL     1     102.862 129.362 140.241  0.00  0.00    +0.000 OA
ATOM      4  O   UNL     1     104.632 127.798 141.849  0.00  0.00    +0.000 OA
ATOM      5  C   UNL     1     102.622 131.060 142.081  0.00  0.00    +0.000 C 
ATOM      6  C   UNL     1     103.047 130.939 142.818  0.00  0.00    +0.000 C 
ATOM      7  C   UNL     1     102.699 130.485 141.448  0.00  0.00    +0.000 C 
ATOM      8  C   UNL     1     103.200 129.795 141.560  0.00  0.00    +0.000 A 
ATOM      9  C   UNL     1     103.607 129.679 142.268  0.00  0.00    +0.000 A 
ATOM     10  C   UNL     1     104.084 129.013 142.364  0.00  0.00    +0.000 A 
ATOM     11  C   UNL     1     103.270 129.246 140.949  0.00  0.00    +0.000 A 
ATOM     12  C   UNL     1     104.155 128.464 141.754  0.00  0.00    +0.000 A 
ATOM     13  C   UNL     1     103.747 128.580 141.046  0.00  0.00    +0.000 A 
ATOM     14  C   UNL     1     104.492 128.897 143.072  0.00  0.00    +0.000 C 
ENDROOT
BRANCH   5  15
ATOM     15  C   UNL     1     102.144 131.725 141.981  0.00  0.00    +0.000 A 
ATOM     16  C   UNL     1     101.342 131.689 142.171  0.00  0.00    +0.000 A 
ATOM     17  C   UNL     1     102.468 132.426 141.690  0.00  0.00    +0.000 A 
ATOM     18  C   UNL     1     100.864 132.354 142.071  0.00  0.00    +0.000 A 
ATOM     19  C   UNL     1     101.990 133.091 141.590  0.00  0.00    +0.000 A 
ATOM     20  C   UNL     1     101.188 133.055 141.780  0.00  0.00    +0.000 A 
BRANCH  20  21
ATOM     21  O   UNL     1     100.710 133.720 141.680  0.00  0.00    +0.000 OA
ATOM     22  C   UNL     1     100.917 134.435 142.036  0.00  0.00    +0.000 C 
ENDBRANCH  20  21
ENDBRANCH   5  15
TORSDOF 2
ENDMDL
MODEL 5
REMARK VINA RESULT:      -8.1      1.084      4.542
REMARK  Name = 129685429
REMARK  2 active torsions:
REMARK  status: ('A' for Active; 'I' for Inactive)
REMARK    1  A    between atoms: O_5  and  C_21
REMARK    2  A    between atoms: C_6  and  C_10
REMARK                            x       y       z     vdW  Elec       q    Type
REMARK                         _______ _______ _______ _____ _____    ______ ____
ROOT
ATOM      1  O   UNL     1     104.643 123.211 137.396  0.00  0.00    +0.000 OA
ATOM      2  O   UNL     1     103.059 124.000 139.206  0.00  0.00    +0.000 OA
ATOM      3  O   UNL     1     101.954 123.778 138.306  0.00  0.00    +0.000 OA
ATOM      4  O   UNL     1     102.383 122.794 135.657  0.00  0.00    +0.000 OA
ATOM      5  C   UNL     1     104.425 123.722 138.772  0.00  0.00    +0.000 C 
ATOM      6  C   UNL     1     104.960 123.454 138.156  0.00  0.00    +0.000 C 
ATOM      7  C   UNL     1     103.580 123.744 138.621  0.00  0.00    +0.000 C 
ATOM      8  C   UNL     1     103.281 123.497 137.854  0.00  0.00    +0.000 A 
ATOM      9  C   UNL     1     103.794 123.239 137.262  0.00  0.00    +0.000 A 
ATOM     10  C   UNL     1     103.495 123.005 136.530  0.00  0.00    +0.000 A 
ATOM     11  C   UNL     1     102.468 123.521 137.714  0.00  0.00    +0.000 A 
ATOM     12  C   UNL     1     102.683 123.028 136.390  0.00  0.00    +0.000 A 
ATOM     13  C   UNL     1     102.170 123.286 136.982  0.00  0.00    +0.000 A 
ATOM     14  C   UNL     1     104.009 122.747 135.938  0.00  0.00    +0.000 C 
ENDROOT
BRANCH   5  15
ATOM     15  C   UNL     1     104.721 123.957 139.506  0.00  0.00    +0.000 A 
ATOM     16  C   UNL     1     104.793 123.409 140.118  0.00  0.00    +0.000 A 
ATOM     17  C   UNL     1     104.945 124.742 139.628  0.00  0.00    +0.000 A 
ATOM     18  C   UNL     1     105.089 123.645 140.851  0.00  0.00    +0.000 A 
ATOM     19  C   UNL     1     105.241 124.978 140.361  0.00  0.00    +0.000 A 
ATOM     20  C   UNL     1     105.313 124.429 140.973  0.00  0.00    +0.000 A 
BRANCH  20  21
ATOM     21  O   UNL     1     105.608 124.666 141.706  0.00  0.00    +0.000 OA
ATOM     22  C   UNL     1     106.421 124.659 141.845  0.00  0.00    +0.000 C 
ENDBRANCH  20  21
ENDBRANCH   5  15
TORSDOF 2
ENDMDL
MODEL 6
REMARK VINA RESULT:      -8.0      8.603      9.888
REMARK  Name = 129685429
REMARK  2 active torsions:
REMARK  status: ('A' for Active; 'I' for Inactive)
REMARK    1  A    between atoms: O_5  and  C_21
REMARK    2  A    between atoms: C_6  and  C_10
REMARK                            x       y       z     vdW  Elec       q    Type
REMARK                         _______ _______ _______ _____ _____    ______ ____
ROOT
ATOM      1  O   UNL     1     113.652 125.662 136.810  0.00  0.00    +0.000 OA
ATOM      2  O   UNL     1     111.864 127.267 136.013  0.00  0.00    +0.000 OA
ATOM      3  O   UNL     1     110.963 126.151 135.860  0.00  0.00    +0.000 OA
ATOM      4  O   UNL     1     111.792 123.487 136.478  0.00  0.00    +0.000 OA
ATOM      5  C   UNL     1     113.226 127.048 136.491  0.00  0.00    +0.000 C 
ATOM      6  C   UNL     1     113.831 126.501 136.761  0.00  0.00    +0.000 C 
ATOM      7  C   UNL     1     112.451 126.749 136.274  0.00  0.00    +0.000 C 
ATOM      8  C   UNL     1     112.290 125.906 136.330  0.00  0.00    +0.000 A 
ATOM      9  C   UNL     1     112.871 125.381 136.589  0.00  0.00    +0.000 A 
ATOM     10  C   UNL     1     112.705 124.575 136.638  0.00  0.00    +0.000 A 
ATOM     11  C   UNL     1     111.543 125.626 136.120  0.00  0.00    +0.000 A 
ATOM     12  C   UNL     1     111.959 124.294 136.428  0.00  0.00    +0.000 A 
ATOM     13  C   UNL     1     111.378 124.819 136.169  0.00  0.00    +0.000 A 
ATOM     14  C   UNL     1     113.286 124.050 136.897  0.00  0.00    +0.000 C 
ENDROOT
BRANCH   5  15
ATOM     15  C   UNL     1     113.389 127.856 136.440  0.00  0.00    +0.000 A 
ATOM     16  C   UNL     1     113.217 128.352 137.077  0.00  0.00    +0.000 A 
ATOM     17  C   UNL     1     113.723 128.166 135.753  0.00  0.00    +0.000 A 
ATOM     18  C   UNL     1     113.380 129.159 137.025  0.00  0.00    +0.000 A 
ATOM     19  C   UNL     1     113.886 128.973 135.702  0.00  0.00    +0.000 A 
ATOM     20  C   UNL     1     113.714 129.470 136.338  0.00  0.00    +0.000 A 
BRANCH  20  21
ATOM     21  O   UNL     1     113.877 130.277 136.286  0.00  0.00    +0.000 OA
ATOM     22  C   UNL     1     114.657 130.543 136.309  0.00  0.00    +0.000 C 
ENDBRANCH  20  21
ENDBRANCH   5  15
TORSDOF 2
ENDMDL
MODEL 7
REMARK VINA RESULT:      -8.0      7.703      8.330
REMARK  Name = 129685429
REMARK  2 active torsions:
REMARK  status: ('A' for Active; 'I' for Inactive)
REMARK    1  A    between atoms: O_5  and  C_21
REMARK    2  A    between atoms: C_6  and  C_10
REMARK                            x       y       z     vdW  Elec       q    Type
REMARK                         _______ _______ _______ _____ _____    ______ ____
ROOT
ATOM      1  O   UNL     1     111.313 124.740 136.298  0.00  0.00    +0.000 OA
ATOM      2  O   UNL     1     112.355 127.040 136.106  0.00  0.00    +0.000 OA
ATOM      3  O   UNL     1     113.600 126.490 136.585  0.00  0.00    +0.000 OA
ATOM      4  O   UNL     1     113.834 123.720 137.247  0.00  0.00    +0.000 OA
ATOM      5  C   UNL     1     111.186 126.179 135.952  0.00  0.00    +0.000 C 
ATOM      6  C   UNL     1     110.835 125.397 136.018  0.00  0.00    +0.000 C 
ATOM      7  C   UNL     1     112.010 126.293 136.166  0.00  0.00    +0.000 C 
ATOM      8  C   UNL     1     112.473 125.624 136.444  0.00  0.00    +0.000 A 
ATOM      9  C   UNL     1     112.136 124.873 136.508  0.00  0.00    +0.000 A 
ATOM     10  C   UNL     1     112.589 124.239 136.775  0.00  0.00    +0.000 A 
ATOM     11  C   UNL     1     113.263 125.740 136.648  0.00  0.00    +0.000 A 
ATOM     12  C   UNL     1     113.380 124.355 136.979  0.00  0.00    +0.000 A 
ATOM     13  C   UNL     1     113.716 125.105 136.916  0.00  0.00    +0.000 A 
ATOM     14  C   UNL     1     112.252 123.489 136.839  0.00  0.00    +0.000 C 
ENDROOT
BRANCH   5  15
ATOM     15  C   UNL     1     110.735 126.816 135.685  0.00  0.00    +0.000 A 
ATOM     16  C   UNL     1     110.702 126.989 134.879  0.00  0.00    +0.000 A 
ATOM     17  C   UNL     1     110.317 127.280 136.224  0.00  0.00    +0.000 A 
ATOM     18  C   UNL     1     110.250 127.627 134.612  0.00  0.00    +0.000 A 
ATOM     19  C   UNL     1     109.865 127.917 135.957  0.00  0.00    +0.000 A 
ATOM     20  C   UNL     1     109.832 128.090 135.151  0.00  0.00    +0.000 A 
BRANCH  20  21
ATOM     21  O   UNL     1     109.381 128.728 134.885  0.00  0.00    +0.000 OA
ATOM     22  C   UNL     1     109.719 129.478 134.828  0.00  0.00    +0.000 C 
ENDBRANCH  20  21
ENDBRANCH   5  15
TORSDOF 2
ENDMDL
MODEL 8
REMARK VINA RESULT:      -7.9      5.320      8.297
REMARK  Name = 129685429
REMARK  2 active torsions:
REMARK  status: ('A' for Active; 'I' for Inactive)
REMARK    1  A    between atoms: O_5  and  C_21
REMARK    2  A    between atoms: C_6  and  C_10
REMARK                            x       y       z     vdW  Elec       q    Type
REMARK                         _______ _______ _______ _____ _____    ______ ____
ROOT
ATOM      1  O   UNL     1     106.112 127.081 145.875  0.00  0.00    +0.000 OA
ATOM      2  O   UNL     1     106.675 124.613 145.920  0.00  0.00    +0.000 OA
ATOM      3  O   UNL     1     106.306 124.526 144.529  0.00  0.00    +0.000 OA
ATOM      4  O   UNL     1     105.393 126.825 143.097  0.00  0.00    +0.000 OA
ATOM      5  C   UNL     1     106.586 125.890 146.623  0.00  0.00    +0.000 C 
ATOM      6  C   UNL     1     106.394 126.727 146.605  0.00  0.00    +0.000 C 
ATOM      7  C   UNL     1     106.493 125.418 145.912  0.00  0.00    +0.000 C 
ATOM      8  C   UNL     1     106.209 125.789 145.191  0.00  0.00    +0.000 A 
ATOM      9  C   UNL     1     106.024 126.593 145.173  0.00  0.00    +0.000 A 
ATOM     10  C   UNL     1     105.753 126.938 144.475  0.00  0.00    +0.000 A 
ATOM     11  C   UNL     1     106.121 125.330 144.511  0.00  0.00    +0.000 A 
ATOM     12  C   UNL     1     105.665 126.480 143.795  0.00  0.00    +0.000 A 
ATOM     13  C   UNL     1     105.849 125.676 143.813  0.00  0.00    +0.000 A 
ATOM     14  C   UNL     1     105.568 127.742 144.457  0.00  0.00    +0.000 C 
ENDROOT
BRANCH   5  15
ATOM     15  C   UNL     1     106.859 125.541 147.320  0.00  0.00    +0.000 A 
ATOM     16  C   UNL     1     106.326 125.340 147.917  0.00  0.00    +0.000 A 
ATOM     17  C   UNL     1     107.665 125.393 147.419  0.00  0.00    +0.000 A 
ATOM     18  C   UNL     1     106.599 124.992 148.613  0.00  0.00    +0.000 A 
ATOM     19  C   UNL     1     107.938 125.045 148.115  0.00  0.00    +0.000 A 
ATOM     20  C   UNL     1     107.405 124.844 148.712  0.00  0.00    +0.000 A 
BRANCH  20  21
ATOM     21  O   UNL     1     107.678 124.495 149.408  0.00  0.00    +0.000 OA
ATOM     22  C   UNL     1     107.435 123.734 149.612  0.00  0.00    +0.000 C 
ENDBRANCH  20  21
ENDBRANCH   5  15
TORSDOF 2
ENDMDL
MODEL 9
REMARK VINA RESULT:      -7.9      7.359      9.396
REMARK  Name = 129685429
REMARK  2 active torsions:
REMARK  status: ('A' for Active; 'I' for Inactive)
REMARK    1  A    between atoms: O_5  and  C_21
REMARK    2  A    between atoms: C_6  and  C_10
REMARK                            x       y       z     vdW  Elec       q    Type
REMARK                         _______ _______ _______ _____ _____    ______ ____
ROOT
ATOM      1  O   UNL     1     113.765 125.416 137.728  0.00  0.00    +0.000 OA
ATOM      2  O   UNL     1     111.802 126.324 139.045  0.00  0.00    +0.000 OA
ATOM      3  O   UNL     1     110.931 125.434 138.316  0.00  0.00    +0.000 OA
ATOM      4  O   UNL     1     111.959 123.669 136.318  0.00  0.00    +0.000 OA
ATOM      5  C   UNL     1     113.236 126.335 138.767  0.00  0.00    +0.000 C 
ATOM      6  C   UNL     1     113.900 126.025 138.319  0.00  0.00    +0.000 C 
ATOM      7  C   UNL     1     112.446 126.032 138.619  0.00  0.00    +0.000 C 
ATOM      8  C   UNL     1     112.330 125.423 138.023  0.00  0.00    +0.000 A 
ATOM      9  C   UNL     1     112.967 125.125 137.593  0.00  0.00    +0.000 A 
ATOM     10  C   UNL     1     112.844 124.541 137.025  0.00  0.00    +0.000 A 
ATOM     11  C   UNL     1     111.569 125.136 137.886  0.00  0.00    +0.000 A 
ATOM     12  C   UNL     1     112.083 124.254 136.886  0.00  0.00    +0.000 A 
ATOM     13  C   UNL     1     111.446 124.552 137.317  0.00  0.00    +0.000 A 
ATOM     14  C   UNL     1     113.481 124.243 136.594  0.00  0.00    +0.000 C 
ENDROOT
BRANCH   5  15
ATOM     15  C   UNL     1     113.356 126.920 139.337  0.00  0.00    +0.000 A 
ATOM     16  C   UNL     1     113.536 126.709 140.114  0.00  0.00    +0.000 A 
ATOM     17  C   UNL     1     113.295 127.716 139.129  0.00  0.00    +0.000 A 
ATOM     18  C   UNL     1     113.656 127.294 140.683  0.00  0.00    +0.000 A 
ATOM     19  C   UNL     1     113.415 128.301 139.698  0.00  0.00    +0.000 A 
ATOM     20  C   UNL     1     113.595 128.090 140.475  0.00  0.00    +0.000 A 
BRANCH  20  21
ATOM     21  O   UNL     1     113.715 128.676 141.044  0.00  0.00    +0.000 OA
ATOM     22  C   UNL     1     113.069 129.063 141.380  0.00  0.00    +0.000 C 
ENDBRANCH  20  21
ENDBRANCH   5  15
TORSDOF 2
ENDMDL
MODEL 10
REMARK VINA RESULT:      -7.9      7.108      8.789
REMARK  Name = 129685429
REMARK  2 active torsions:
REMARK  status: ('A' for Active; 'I' for Inactive)
REMARK    1  A    between atoms: O_5  and  C_21
REMARK    2  A    between atoms: C_6  and  C_10
REMARK                            x       y       z     vdW  Elec       q    Type
REMARK                         _______ _______ _______ _____ _____    ______ ____
ROOT
ATOM      1  O   UNL     1     101.337 132.219 142.032  0.00  0.00    +0.000 OA
ATOM      2  O   UNL     1     103.563 131.959 140.854  0.00  0.00    +0.000 OA
ATOM      3  O   UNL     1     103.612 133.390 140.678  0.00  0.00    +0.000 OA
ATOM      4  O   UNL     1     101.508 135.068 141.640  0.00  0.00    +0.000 OA
ATOM      5  C   UNL     1     102.427 131.343 141.534  0.00  0.00    +0.000 C 
ATOM      6  C   UNL     1     101.672 131.434 141.933  0.00  0.00    +0.000 C 
ATOM      7  C   UNL     1     102.837 132.037 141.239  0.00  0.00    +0.000 C 
ATOM      8  C   UNL     1     102.487 132.815 141.347  0.00  0.00    +0.000 A 
ATOM      9  C   UNL     1     101.762 132.903 141.730  0.00  0.00    +0.000 A 
ATOM     10  C   UNL     1     101.436 133.654 141.828  0.00  0.00    +0.000 A 
ATOM     11  C   UNL     1     102.886 133.478 141.061  0.00  0.00    +0.000 A 
ATOM     12  C   UNL     1     101.834 134.317 141.543  0.00  0.00    +0.000 A 
ATOM     13  C   UNL     1     102.559 134.229 141.159  0.00  0.00    +0.000 A 
ATOM     14  C   UNL     1     100.711 133.742 142.211  0.00  0.00    +0.000 C 
ENDROOT
BRANCH   5  15
ATOM     15  C   UNL     1     102.756 130.593 141.434  0.00  0.00    +0.000 A 
ATOM     16  C   UNL     1     102.587 130.154 140.756  0.00  0.00    +0.000 A 
ATOM     17  C   UNL     1     103.255 130.282 142.013  0.00  0.00    +0.000 A 
ATOM     18  C   UNL     1     102.917 129.404 140.657  0.00  0.00    +0.000 A 
ATOM     19  C   UNL     1     103.585 129.532 141.914  0.00  0.00    +0.000 A 
ATOM     20  C   UNL     1     103.416 129.093 141.236  0.00  0.00    +0.000 A 
BRANCH  20  21
ATOM     21  O   UNL     1     103.746 128.343 141.137  0.00  0.00    +0.000 OA
ATOM     22  C   UNL     1     104.456 128.152 141.511  0.00  0.00    +0.000 C 
ENDBRANCH  20  21
ENDBRANCH   5  15
TORSDOF 2
ENDMDL
