MODEL 1
REMARK VINA RESULT:      -9.3      0.000      0.000
REMARK  Name = 14777889
REMARK  4 active torsions:
REMARK  status: ('A' for Active; 'I' for Inactive)
REMARK    1  A    between atoms: S_1  and  O_3
REMARK    2  A    between atoms: O_3  and  C_14
REMARK    3  A    between atoms: O_7  and  C_25
REMARK    4  A    between atoms: C_12  and  C_16
REMARK                            x       y       z     vdW  Elec       q    Type
REMARK                         _______ _______ _______ _____ _____    ______ ____
ROOT
ATOM      1  O   UNL     1     105.622 124.393 147.646  0.00  0.00    +0.000 OA
ATOM      2  O   UNL     1     108.179 125.566 146.985  0.00  0.00    +0.000 OA
ATOM      3  O   UNL     1     107.092 125.565 146.036  0.00  0.00    +0.000 OA
ATOM      4  O   UNL     1     107.770 124.357 149.612  0.00  0.00    +0.000 OA
ATOM      5  C   UNL     1     106.887 124.973 147.320  0.00  0.00    +0.000 A 
ATOM      6  C   UNL     1     105.337 124.595 146.898  0.00  0.00    +0.000 A 
ATOM      7  C   UNL     1     106.397 124.582 147.856  0.00  0.00    +0.000 A 
ATOM      8  C   UNL     1     105.827 124.986 146.361  0.00  0.00    +0.000 A 
ATOM      9  C   UNL     1     106.602 125.175 146.573  0.00  0.00    +0.000 A 
ATOM     10  C   UNL     1     107.697 125.175 147.528  0.00  0.00    +0.000 A 
ATOM     11  C   UNL     1     106.683 124.366 148.638  0.00  0.00    +0.000 A 
ATOM     12  C   UNL     1     107.999 124.967 148.304  0.00  0.00    +0.000 A 
ATOM     13  C   UNL     1     107.489 124.560 148.863  0.00  0.00    +0.000 A 
ENDROOT
BRANCH   6  14
ATOM     14  C   UNL     1     104.562 124.406 146.688  0.00  0.00    +0.000 A 
ATOM     15  C   UNL     1     103.947 124.924 146.874  0.00  0.00    +0.000 A 
ATOM     16  C   UNL     1     104.402 123.700 146.292  0.00  0.00    +0.000 A 
ATOM     17  C   UNL     1     103.172 124.735 146.663  0.00  0.00    +0.000 A 
ATOM     18  C   UNL     1     103.627 123.513 146.082  0.00  0.00    +0.000 A 
ATOM     19  C   UNL     1     103.012 124.029 146.268  0.00  0.00    +0.000 A 
BRANCH  19  20
ATOM     20  O   UNL     1     102.236 123.842 146.058  0.00  0.00    +0.000 OA
ATOM     21  C   UNL     1     101.954 123.074 146.168  0.00  0.00    +0.000 C 
ENDBRANCH  19  20
ENDBRANCH   6  14
BRANCH   8  22
ATOM     22  O   UNL     1     105.542 125.188 145.615  0.00  0.00    +0.000 OA
BRANCH  22  23
ATOM     23  S   UNL     1     106.064 125.447 145.030  0.00  0.00    +0.000 S 
ATOM     24  O   UNL     1     106.586 125.705 144.446  0.00  0.00    +0.000 OA
ATOM     25  O   UNL     1     106.269 124.664 144.866  0.00  0.00    +0.000 OA
ATOM     26  O   UNL     1     105.860 126.229 145.194  0.00  0.00    +0.000 OA
ENDBRANCH  22  23
ENDBRANCH   8  22
TORSDOF 4
ENDMDL
MODEL 2
REMARK VINA RESULT:      -8.6      7.321      8.375
REMARK  Name = 14777889
REMARK  4 active torsions:
REMARK  status: ('A' for Active; 'I' for Inactive)
REMARK    1  A    between atoms: S_1  and  O_3
REMARK    2  A    between atoms: O_3  and  C_14
REMARK    3  A    between atoms: O_7  and  C_25
REMARK    4  A    between atoms: C_12  and  C_16
REMARK                            x       y       z     vdW  Elec       q    Type
REMARK                         _______ _______ _______ _____ _____    ______ ____
ROOT
ATOM      1  O   UNL     1     103.303 130.261 142.362  0.00  0.00    +0.000 OA
ATOM      2  O   UNL     1     104.247 127.907 140.977  0.00  0.00    +0.000 OA
ATOM      3  O   UNL     1     103.248 128.766 140.390  0.00  0.00    +0.000 OA
ATOM      4  O   UNL     1     105.322 128.574 143.610  0.00  0.00    +0.000 OA
ATOM      5  C   UNL     1     103.770 129.097 141.678  0.00  0.00    +0.000 A 
ATOM      6  C   UNL     1     102.798 130.429 141.730  0.00  0.00    +0.000 A 
ATOM      7  C   UNL     1     103.789 129.595 142.335  0.00  0.00    +0.000 A 
ATOM      8  C   UNL     1     102.780 129.930 141.073  0.00  0.00    +0.000 A 
ATOM      9  C   UNL     1     103.266 129.264 141.047  0.00  0.00    +0.000 A 
ATOM     10  C   UNL     1     104.272 128.400 141.638  0.00  0.00    +0.000 A 
ATOM     11  C   UNL     1     104.310 129.431 142.998  0.00  0.00    +0.000 A 
ATOM     12  C   UNL     1     104.800 128.220 142.292  0.00  0.00    +0.000 A 
ATOM     13  C   UNL     1     104.818 128.739 142.977  0.00  0.00    +0.000 A 
ENDROOT
BRANCH   6  14
ATOM     14  C   UNL     1     102.312 131.095 141.757  0.00  0.00    +0.000 A 
ATOM     15  C   UNL     1     102.611 131.832 141.536  0.00  0.00    +0.000 A 
ATOM     16  C   UNL     1     101.528 131.025 142.005  0.00  0.00    +0.000 A 
ATOM     17  C   UNL     1     102.125 132.498 141.563  0.00  0.00    +0.000 A 
ATOM     18  C   UNL     1     101.043 131.692 142.032  0.00  0.00    +0.000 A 
ATOM     19  C   UNL     1     101.341 132.428 141.811  0.00  0.00    +0.000 A 
BRANCH  19  20
ATOM     20  O   UNL     1     100.856 133.095 141.837  0.00  0.00    +0.000 OA
ATOM     21  C   UNL     1     100.916 133.623 142.468  0.00  0.00    +0.000 C 
ENDBRANCH  19  20
ENDBRANCH   6  14
BRANCH   8  22
ATOM     22  O   UNL     1     102.276 130.098 140.443  0.00  0.00    +0.000 OA
BRANCH  22  23
ATOM     23  S   UNL     1     102.392 129.732 139.713  0.00  0.00    +0.000 S 
ATOM     24  O   UNL     1     102.509 129.366 138.983  0.00  0.00    +0.000 OA
ATOM     25  O   UNL     1     101.819 129.171 139.902  0.00  0.00    +0.000 OA
ATOM     26  O   UNL     1     102.966 130.294 139.523  0.00  0.00    +0.000 OA
ENDBRANCH  22  23
ENDBRANCH   8  22
TORSDOF 4
ENDMDL
MODEL 3
REMARK VINA RESULT:      -8.3      1.365      4.116
REMARK  Name = 14777889
REMARK  4 active torsions:
REMARK  status: ('A' for Active; 'I' for Inactive)
REMARK    1  A    between atoms: S_1  and  O_3
REMARK    2  A    between atoms: O_3  and  C_14
REMARK    3  A    between atoms: O_7  and  C_25
REMARK    4  A    between atoms: C_12  and  C_16
REMARK                            x       y       z     vdW  Elec       q    Type
REMARK                         _______ _______ _______ _____ _____    ______ ____
ROOT
ATOM      1  O   UNL     1     103.789 124.798 147.939  0.00  0.00    +0.000 OA
ATOM      2  O   UNL     1     101.950 123.860 145.917  0.00  0.00    +0.000 OA
ATOM      3  O   UNL     1     103.365 123.946 145.654  0.00  0.00    +0.000 OA
ATOM      4  O   UNL     1     100.944 124.651 148.543  0.00  0.00    +0.000 OA
ATOM      5  C   UNL     1     102.879 124.334 146.939  0.00  0.00    +0.000 A 
ATOM      6  C   UNL     1     104.418 124.693 147.414  0.00  0.00    +0.000 A 
ATOM      7  C   UNL     1     103.020 124.618 147.701  0.00  0.00    +0.000 A 
ATOM      8  C   UNL     1     104.276 124.410 146.652  0.00  0.00    +0.000 A 
ATOM      9  C   UNL     1     103.507 124.230 146.415  0.00  0.00    +0.000 A 
ATOM     10  C   UNL     1     102.081 124.143 146.681  0.00  0.00    +0.000 A 
ATOM     11  C   UNL     1     102.374 124.731 148.257  0.00  0.00    +0.000 A 
ATOM     12  C   UNL     1     101.423 124.250 147.222  0.00  0.00    +0.000 A 
ATOM     13  C   UNL     1     101.570 124.545 148.015  0.00  0.00    +0.000 A 
ENDROOT
BRANCH   6  14
ATOM     14  C   UNL     1     105.187 124.873 147.651  0.00  0.00    +0.000 A 
ATOM     15  C   UNL     1     105.484 125.636 147.544  0.00  0.00    +0.000 A 
ATOM     16  C   UNL     1     105.659 124.292 147.997  0.00  0.00    +0.000 A 
ATOM     17  C   UNL     1     106.253 125.816 147.781  0.00  0.00    +0.000 A 
ATOM     18  C   UNL     1     106.428 124.473 148.234  0.00  0.00    +0.000 A 
ATOM     19  C   UNL     1     106.725 125.234 148.127  0.00  0.00    +0.000 A 
BRANCH  19  20
ATOM     20  O   UNL     1     107.494 125.415 148.364  0.00  0.00    +0.000 OA
ATOM     21  C   UNL     1     108.136 125.048 147.998  0.00  0.00    +0.000 C 
ENDBRANCH  19  20
ENDBRANCH   6  14
BRANCH   8  22
ATOM     22  O   UNL     1     104.904 124.306 146.128  0.00  0.00    +0.000 OA
BRANCH  22  23
ATOM     23  S   UNL     1     104.756 124.109 145.341  0.00  0.00    +0.000 S 
ATOM     24  O   UNL     1     104.608 123.912 144.553  0.00  0.00    +0.000 OA
ATOM     25  O   UNL     1     104.829 123.308 145.527  0.00  0.00    +0.000 OA
ATOM     26  O   UNL     1     104.684 124.909 145.154  0.00  0.00    +0.000 OA
ENDBRANCH  22  23
ENDBRANCH   8  22
TORSDOF 4
ENDMDL
MODEL 4
REMARK VINA RESULT:      -8.2     12.107     12.780
REMARK  Name = 14777889
REMARK  4 active torsions:
REMARK  status: ('A' for Active; 'I' for Inactive)
REMARK    1  A    between atoms: S_1  and  O_3
REMARK    2  A    between atoms: O_3  and  C_14
REMARK    3  A    between atoms: O_7  and  C_25
REMARK    4  A    between atoms: C_12  and  C_16
REMARK                            x       y       z     vdW  Elec       q    Type
REMARK                         _______ _______ _______ _____ _____    ______ ____
ROOT
ATOM      1  O   UNL     1     112.977 126.649 136.599  0.00  0.00    +0.000 OA
ATOM      2  O   UNL     1     112.277 123.854 136.378  0.00  0.00    +0.000 OA
ATOM      3  O   UNL     1     111.343 124.887 136.004  0.00  0.00    +0.000 OA
ATOM      4  O   UNL     1     114.915 124.618 137.373  0.00  0.00    +0.000 OA
ATOM      5  C   UNL     1     112.632 125.266 136.490  0.00  0.00    +0.000 A 
ATOM      6  C   UNL     1     112.232 126.857 136.311  0.00  0.00    +0.000 A 
ATOM      7  C   UNL     1     113.176 125.853 136.688  0.00  0.00    +0.000 A 
ATOM      8  C   UNL     1     111.687 126.270 136.112  0.00  0.00    +0.000 A 
ATOM      9  C   UNL     1     111.888 125.474 136.202  0.00  0.00    +0.000 A 
ATOM     10  C   UNL     1     112.829 124.434 136.579  0.00  0.00    +0.000 A 
ATOM     11  C   UNL     1     113.955 125.649 136.989  0.00  0.00    +0.000 A 
ATOM     12  C   UNL     1     113.602 124.211 136.878  0.00  0.00    +0.000 A 
ATOM     13  C   UNL     1     114.169 124.822 137.085  0.00  0.00    +0.000 A 
ENDROOT
BRANCH   6  14
ATOM     14  C   UNL     1     112.033 127.652 136.221  0.00  0.00    +0.000 A 
ATOM     15  C   UNL     1     111.636 128.048 136.828  0.00  0.00    +0.000 A 
ATOM     16  C   UNL     1     112.229 128.052 135.527  0.00  0.00    +0.000 A 
ATOM     17  C   UNL     1     111.437 128.844 136.738  0.00  0.00    +0.000 A 
ATOM     18  C   UNL     1     112.029 128.848 135.439  0.00  0.00    +0.000 A 
ATOM     19  C   UNL     1     111.633 129.243 136.044  0.00  0.00    +0.000 A 
BRANCH  19  20
ATOM     20  O   UNL     1     111.433 130.039 135.956  0.00  0.00    +0.000 OA
ATOM     21  C   UNL     1     110.657 130.251 135.773  0.00  0.00    +0.000 C 
ENDBRANCH  19  20
ENDBRANCH   6  14
BRANCH   8  22
ATOM     22  O   UNL     1     110.943 126.478 135.824  0.00  0.00    +0.000 OA
BRANCH  22  23
ATOM     23  S   UNL     1     110.469 125.911 135.459  0.00  0.00    +0.000 S 
ATOM     24  O   UNL     1     109.995 125.343 135.093  0.00  0.00    +0.000 OA
ATOM     25  O   UNL     1     110.887 126.015 134.755  0.00  0.00    +0.000 OA
ATOM     26  O   UNL     1     110.051 125.807 136.163  0.00  0.00    +0.000 OA
ENDBRANCH  22  23
ENDBRANCH   8  22
TORSDOF 4
ENDMDL
MODEL 5
REMARK VINA RESULT:      -8.0     10.439     11.653
REMARK  Name = 14777889
REMARK  4 active torsions:
REMARK  status: ('A' for Active; 'I' for Inactive)
REMARK    1  A    between atoms: S_1  and  O_3
REMARK    2  A    between atoms: O_3  and  C_14
REMARK    3  A    between atoms: O_7  and  C_25
REMARK    4  A    between atoms: C_12  and  C_16
REMARK                            x       y       z     vdW  Elec       q    Type
REMARK                         _______ _______ _______ _____ _____    ______ ____
ROOT
ATOM      1  O   UNL     1     111.955 126.415 138.215  0.00  0.00    +0.000 OA
ATOM      2  O   UNL     1     114.490 126.314 139.599  0.00  0.00    +0.000 OA
ATOM      3  O   UNL     1     114.345 125.773 138.270  0.00  0.00    +0.000 OA
ATOM      4  O   UNL     1     112.172 127.527 140.898  0.00  0.00    +0.000 OA
ATOM      5  C   UNL     1     113.208 126.366 138.900  0.00  0.00    +0.000 A 
ATOM      6  C   UNL     1     112.296 126.036 137.565  0.00  0.00    +0.000 A 
ATOM      7  C   UNL     1     112.412 126.580 138.882  0.00  0.00    +0.000 A 
ATOM      8  C   UNL     1     113.092 125.822 137.584  0.00  0.00    +0.000 A 
ATOM      9  C   UNL     1     113.548 125.987 138.251  0.00  0.00    +0.000 A 
ATOM     10  C   UNL     1     113.694 126.532 139.590  0.00  0.00    +0.000 A 
ATOM     11  C   UNL     1     112.046 126.975 139.552  0.00  0.00    +0.000 A 
ATOM     12  C   UNL     1     113.345 126.926 140.269  0.00  0.00    +0.000 A 
ATOM     13  C   UNL     1     112.516 127.148 140.250  0.00  0.00    +0.000 A 
ENDROOT
BRANCH   6  14
ATOM     14  C   UNL     1     111.839 125.872 136.898  0.00  0.00    +0.000 A 
ATOM     15  C   UNL     1     111.798 126.420 136.282  0.00  0.00    +0.000 A 
ATOM     16  C   UNL     1     111.424 125.161 136.847  0.00  0.00    +0.000 A 
ATOM     17  C   UNL     1     111.341 126.256 135.615  0.00  0.00    +0.000 A 
ATOM     18  C   UNL     1     110.968 124.998 136.179  0.00  0.00    +0.000 A 
ATOM     19  C   UNL     1     110.926 125.545 135.563  0.00  0.00    +0.000 A 
BRANCH  19  20
ATOM     20  O   UNL     1     110.470 125.382 134.896  0.00  0.00    +0.000 OA
ATOM     21  C   UNL     1     109.777 125.807 134.756  0.00  0.00    +0.000 C 
ENDBRANCH  19  20
ENDBRANCH   6  14
BRANCH   8  22
ATOM     22  O   UNL     1     113.432 125.444 136.935  0.00  0.00    +0.000 OA
BRANCH  22  23
ATOM     23  S   UNL     1     114.190 125.123 136.995  0.00  0.00    +0.000 S 
ATOM     24  O   UNL     1     114.948 124.803 137.055  0.00  0.00    +0.000 OA
ATOM     25  O   UNL     1     113.873 124.436 137.322  0.00  0.00    +0.000 OA
ATOM     26  O   UNL     1     114.507 125.811 136.668  0.00  0.00    +0.000 OA
ENDBRANCH  22  23
ENDBRANCH   8  22
TORSDOF 4
ENDMDL
MODEL 6
REMARK VINA RESULT:      -8.0      9.160     10.622
REMARK  Name = 14777889
REMARK  4 active torsions:
REMARK  status: ('A' for Active; 'I' for Inactive)
REMARK    1  A    between atoms: S_1  and  O_3
REMARK    2  A    between atoms: O_3  and  C_14
REMARK    3  A    between atoms: O_7  and  C_25
REMARK    4  A    between atoms: C_12  and  C_16
REMARK                            x       y       z     vdW  Elec       q    Type
REMARK                         _______ _______ _______ _____ _____    ______ ____
ROOT
ATOM      1  O   UNL     1     111.489 131.816 145.284  0.00  0.00    +0.000 OA
ATOM      2  O   UNL     1     111.959 132.473 142.510  0.00  0.00    +0.000 OA
ATOM      3  O   UNL     1     111.784 133.506 143.501  0.00  0.00    +0.000 OA
ATOM      4  O   UNL     1     111.834 129.675 143.340  0.00  0.00    +0.000 OA
ATOM      5  C   UNL     1     111.722 132.140 143.912  0.00  0.00    +0.000 A 
ATOM      6  C   UNL     1     111.453 132.620 145.467  0.00  0.00    +0.000 A 
ATOM      7  C   UNL     1     111.624 131.576 144.506  0.00  0.00    +0.000 A 
ATOM      8  C   UNL     1     111.551 133.183 144.873  0.00  0.00    +0.000 A 
ATOM      9  C   UNL     1     111.686 132.943 144.095  0.00  0.00    +0.000 A 
ATOM     10  C   UNL     1     111.862 131.902 143.098  0.00  0.00    +0.000 A 
ATOM     11  C   UNL     1     111.659 130.736 144.328  0.00  0.00    +0.000 A 
ATOM     12  C   UNL     1     111.901 131.067 142.901  0.00  0.00    +0.000 A 
ATOM     13  C   UNL     1     111.799 130.480 143.520  0.00  0.00    +0.000 A 
ENDROOT
BRANCH   6  14
ATOM     14  C   UNL     1     111.319 132.859 146.245  0.00  0.00    +0.000 A 
ATOM     15  C   UNL     1     111.947 132.891 146.781  0.00  0.00    +0.000 A 
ATOM     16  C   UNL     1     110.558 133.067 146.488  0.00  0.00    +0.000 A 
ATOM     17  C   UNL     1     111.812 133.130 147.559  0.00  0.00    +0.000 A 
ATOM     18  C   UNL     1     110.425 133.307 147.266  0.00  0.00    +0.000 A 
ATOM     19  C   UNL     1     111.052 133.338 147.802  0.00  0.00    +0.000 A 
BRANCH  19  20
ATOM     20  O   UNL     1     110.919 133.577 148.580  0.00  0.00    +0.000 OA
ATOM     21  C   UNL     1     111.469 133.394 149.167  0.00  0.00    +0.000 C 
ENDBRANCH  19  20
ENDBRANCH   6  14
BRANCH   8  22
ATOM     22  O   UNL     1     111.515 133.986 145.056  0.00  0.00    +0.000 OA
BRANCH  22  23
ATOM     23  S   UNL     1     111.772 134.547 144.508  0.00  0.00    +0.000 S 
ATOM     24  O   UNL     1     112.029 135.107 143.959  0.00  0.00    +0.000 OA
ATOM     25  O   UNL     1     110.992 134.677 144.275  0.00  0.00    +0.000 OA
ATOM     26  O   UNL     1     112.553 134.416 144.741  0.00  0.00    +0.000 OA
ENDBRANCH  22  23
ENDBRANCH   8  22
TORSDOF 4
ENDMDL
MODEL 7
REMARK VINA RESULT:      -8.0     12.236     13.309
REMARK  Name = 14777889
REMARK  4 active torsions:
REMARK  status: ('A' for Active; 'I' for Inactive)
REMARK    1  A    between atoms: S_1  and  O_3
REMARK    2  A    between atoms: O_3  and  C_14
REMARK    3  A    between atoms: O_7  and  C_25
REMARK    4  A    between atoms: C_12  and  C_16
REMARK                            x       y       z     vdW  Elec       q    Type
REMARK                         _______ _______ _______ _____ _____    ______ ____
ROOT
ATOM      1  O   UNL     1     111.868 127.284 135.845  0.00  0.00    +0.000 OA
ATOM      2  O   UNL     1     111.624 124.436 136.269  0.00  0.00    +0.000 OA
ATOM      3  O   UNL     1     112.724 125.181 136.831  0.00  0.00    +0.000 OA
ATOM      4  O   UNL     1     109.620 125.847 134.681  0.00  0.00    +0.000 OA
ATOM      5  C   UNL     1     111.747 125.876 136.055  0.00  0.00    +0.000 A 
ATOM      6  C   UNL     1     112.561 127.291 136.294  0.00  0.00    +0.000 A 
ATOM      7  C   UNL     1     111.461 126.577 135.726  0.00  0.00    +0.000 A 
ATOM      8  C   UNL     1     112.847 126.590 136.622  0.00  0.00    +0.000 A 
ATOM      9  C   UNL     1     112.439 125.882 136.502  0.00  0.00    +0.000 A 
ATOM     10  C   UNL     1     111.331 125.132 135.937  0.00  0.00    +0.000 A 
ATOM     11  C   UNL     1     110.741 126.583 135.257  0.00  0.00    +0.000 A 
ATOM     12  C   UNL     1     110.609 125.120 135.471  0.00  0.00    +0.000 A 
ATOM     13  C   UNL     1     110.312 125.849 135.129  0.00  0.00    +0.000 A 
ENDROOT
BRANCH   6  14
ATOM     14  C   UNL     1     112.968 127.998 136.413  0.00  0.00    +0.000 A 
ATOM     15  C   UNL     1     112.827 128.445 137.093  0.00  0.00    +0.000 A 
ATOM     16  C   UNL     1     113.516 128.259 135.854  0.00  0.00    +0.000 A 
ATOM     17  C   UNL     1     113.234 129.153 137.212  0.00  0.00    +0.000 A 
ATOM     18  C   UNL     1     113.922 128.967 135.974  0.00  0.00    +0.000 A 
ATOM     19  C   UNL     1     113.781 129.414 136.653  0.00  0.00    +0.000 A 
BRANCH  19  20
ATOM     20  O   UNL     1     114.188 130.122 136.773  0.00  0.00    +0.000 OA
ATOM     21  C   UNL     1     113.774 130.835 136.796  0.00  0.00    +0.000 C 
ENDBRANCH  19  20
ENDBRANCH   6  14
BRANCH   8  22
ATOM     22  O   UNL     1     113.539 126.596 137.070  0.00  0.00    +0.000 OA
BRANCH  22  23
ATOM     23  S   UNL     1     113.906 125.886 137.272  0.00  0.00    +0.000 S 
ATOM     24  O   UNL     1     114.273 125.175 137.474  0.00  0.00    +0.000 OA
ATOM     25  O   UNL     1     114.280 125.870 136.537  0.00  0.00    +0.000 OA
ATOM     26  O   UNL     1     113.532 125.901 138.007  0.00  0.00    +0.000 OA
ENDBRANCH  22  23
ENDBRANCH   8  22
TORSDOF 4
ENDMDL
MODEL 8
REMARK VINA RESULT:      -7.9      1.725      3.761
REMARK  Name = 14777889
REMARK  4 active torsions:
REMARK  status: ('A' for Active; 'I' for Inactive)
REMARK    1  A    between atoms: S_1  and  O_3
REMARK    2  A    between atoms: O_3  and  C_14
REMARK    3  A    between atoms: O_7  and  C_25
REMARK    4  A    between atoms: C_12  and  C_16
REMARK                            x       y       z     vdW  Elec       q    Type
REMARK                         _______ _______ _______ _____ _____    ______ ____
ROOT
ATOM      1  O   UNL     1     103.711 124.852 147.075  0.00  0.00    +0.000 OA
ATOM      2  O   UNL     1     104.181 122.823 145.072  0.00  0.00    +0.000 OA
ATOM      3  O   UNL     1     105.132 123.885 145.294  0.00  0.00    +0.000 OA
ATOM      4  O   UNL     1     101.746 122.739 146.684  0.00  0.00    +0.000 OA
ATOM      5  C   UNL     1     103.943 123.848 146.085  0.00  0.00    +0.000 A 
ATOM      6  C   UNL     1     104.428 125.212 146.878  0.00  0.00    +0.000 A 
ATOM      7  C   UNL     1     103.469 124.171 146.678  0.00  0.00    +0.000 A 
ATOM      8  C   UNL     1     104.901 124.889 146.284  0.00  0.00    +0.000 A 
ATOM      9  C   UNL     1     104.658 124.208 145.888  0.00  0.00    +0.000 A 
ATOM     10  C   UNL     1     103.701 123.138 145.665  0.00  0.00    +0.000 A 
ATOM     11  C   UNL     1     102.721 123.806 146.893  0.00  0.00    +0.000 A 
ATOM     12  C   UNL     1     102.957 122.760 145.866  0.00  0.00    +0.000 A 
ATOM     13  C   UNL     1     102.463 123.096 146.484  0.00  0.00    +0.000 A 
ENDROOT
BRANCH   6  14
ATOM     14  C   UNL     1     104.670 125.893 147.274  0.00  0.00    +0.000 A 
ATOM     15  C   UNL     1     105.164 125.833 147.933  0.00  0.00    +0.000 A 
ATOM     16  C   UNL     1     104.419 126.635 147.013  0.00  0.00    +0.000 A 
ATOM     17  C   UNL     1     105.405 126.515 148.330  0.00  0.00    +0.000 A 
ATOM     18  C   UNL     1     104.661 127.316 147.411  0.00  0.00    +0.000 A 
ATOM     19  C   UNL     1     105.154 127.256 148.069  0.00  0.00    +0.000 A 
BRANCH  19  20
ATOM     20  O   UNL     1     105.397 127.937 148.466  0.00  0.00    +0.000 OA
ATOM     21  C   UNL     1     104.836 128.442 148.800  0.00  0.00    +0.000 C 
ENDBRANCH  19  20
ENDBRANCH   6  14
BRANCH   8  22
ATOM     22  O   UNL     1     105.617 125.248 146.087  0.00  0.00    +0.000 OA
BRANCH  22  23
ATOM     23  S   UNL     1     105.969 125.094 145.357  0.00  0.00    +0.000 S 
ATOM     24  O   UNL     1     106.321 124.939 144.627  0.00  0.00    +0.000 OA
ATOM     25  O   UNL     1     106.528 124.614 145.729  0.00  0.00    +0.000 OA
ATOM     26  O   UNL     1     105.410 125.573 144.986  0.00  0.00    +0.000 OA
ENDBRANCH  22  23
ENDBRANCH   8  22
TORSDOF 4
ENDMDL
MODEL 9
REMARK VINA RESULT:      -7.9     10.840     12.399
REMARK  Name = 14777889
REMARK  4 active torsions:
REMARK  status: ('A' for Active; 'I' for Inactive)
REMARK    1  A    between atoms: S_1  and  O_3
REMARK    2  A    between atoms: O_3  and  C_14
REMARK    3  A    between atoms: O_7  and  C_25
REMARK    4  A    between atoms: C_12  and  C_16
REMARK                            x       y       z     vdW  Elec       q    Type
REMARK                         _______ _______ _______ _____ _____    ______ ____
ROOT
ATOM      1  O   UNL     1     111.851 126.830 136.771  0.00  0.00    +0.000 OA
ATOM      2  O   UNL     1     110.474 125.093 134.917  0.00  0.00    +0.000 OA
ATOM      3  O   UNL     1     111.261 124.554 135.999  0.00  0.00    +0.000 OA
ATOM      4  O   UNL     1     110.279 127.991 134.612  0.00  0.00    +0.000 OA
ATOM      5  C   UNL     1     111.169 125.971 135.854  0.00  0.00    +0.000 A 
ATOM      6  C   UNL     1     112.139 126.169 137.174  0.00  0.00    +0.000 A 
ATOM      7  C   UNL     1     111.366 126.730 136.111  0.00  0.00    +0.000 A 
ATOM      8  C   UNL     1     111.943 125.411 136.916  0.00  0.00    +0.000 A 
ATOM      9  C   UNL     1     111.458 125.312 136.256  0.00  0.00    +0.000 A 
ATOM     10  C   UNL     1     110.665 125.856 135.167  0.00  0.00    +0.000 A 
ATOM     11  C   UNL     1     111.071 127.426 135.700  0.00  0.00    +0.000 A 
ATOM     12  C   UNL     1     110.361 126.539 134.744  0.00  0.00    +0.000 A 
ATOM     13  C   UNL     1     110.566 127.329 135.012  0.00  0.00    +0.000 A 
ENDROOT
BRANCH   6  14
ATOM     14  C   UNL     1     112.624 126.269 137.834  0.00  0.00    +0.000 A 
ATOM     15  C   UNL     1     112.290 126.321 138.587  0.00  0.00    +0.000 A 
ATOM     16  C   UNL     1     113.443 126.317 137.742  0.00  0.00    +0.000 A 
ATOM     17  C   UNL     1     112.775 126.420 139.247  0.00  0.00    +0.000 A 
ATOM     18  C   UNL     1     113.927 126.416 138.402  0.00  0.00    +0.000 A 
ATOM     19  C   UNL     1     113.593 126.468 139.154  0.00  0.00    +0.000 A 
BRANCH  19  20
ATOM     20  O   UNL     1     114.077 126.568 139.815  0.00  0.00    +0.000 OA
ATOM     21  C   UNL     1     113.920 127.173 140.354  0.00  0.00    +0.000 C 
ENDBRANCH  19  20
ENDBRANCH   6  14
BRANCH   8  22
ATOM     22  O   UNL     1     112.231 124.751 137.319  0.00  0.00    +0.000 OA
BRANCH  22  23
ATOM     23  S   UNL     1     112.109 123.995 137.012  0.00  0.00    +0.000 S 
ATOM     24  O   UNL     1     111.987 123.239 136.706  0.00  0.00    +0.000 OA
ATOM     25  O   UNL     1     111.438 123.912 137.485  0.00  0.00    +0.000 OA
ATOM     26  O   UNL     1     112.780 124.079 136.539  0.00  0.00    +0.000 OA
ENDBRANCH  22  23
ENDBRANCH   8  22
TORSDOF 4
ENDMDL
MODEL 10
REMARK VINA RESULT:      -7.8      2.014      3.951
REMARK  Name = 14777889
REMARK  4 active torsions:
REMARK  status: ('A' for Active; 'I' for Inactive)
REMARK    1  A    between atoms: S_1  and  O_3
REMARK    2  A    between atoms: O_3  and  C_14
REMARK    3  A    between atoms: O_7  and  C_25
REMARK    4  A    between atoms: C_12  and  C_16
REMARK                            x       y       z     vdW  Elec       q    Type
REMARK                         _______ _______ _______ _____ _____    ______ ____
ROOT
ATOM      1  O   UNL     1     106.725 126.911 146.555  0.00  0.00    +0.000 OA
ATOM      2  O   UNL     1     105.267 126.863 144.061  0.00  0.00    +0.000 OA
ATOM      3  O   UNL     1     105.481 125.657 144.822  0.00  0.00    +0.000 OA
ATOM      4  O   UNL     1     106.333 129.387 145.073  0.00  0.00    +0.000 OA
ATOM      5  C   UNL     1     106.004 126.889 145.321  0.00  0.00    +0.000 A 
ATOM      6  C   UNL     1     106.616 126.097 146.633  0.00  0.00    +0.000 A 
ATOM      7  C   UNL     1     106.419 127.307 145.899  0.00  0.00    +0.000 A 
ATOM      8  C   UNL     1     106.202 125.679 146.055  0.00  0.00    +0.000 A 
ATOM      9  C   UNL     1     105.896 126.075 145.400  0.00  0.00    +0.000 A 
ATOM     10  C   UNL     1     105.681 127.290 144.633  0.00  0.00    +0.000 A 
ATOM     11  C   UNL     1     106.539 128.155 145.829  0.00  0.00    +0.000 A 
ATOM     12  C   UNL     1     105.791 128.137 144.546  0.00  0.00    +0.000 A 
ATOM     13  C   UNL     1     106.222 128.573 145.148  0.00  0.00    +0.000 A 
ENDROOT
BRANCH   6  14
ATOM     14  C   UNL     1     106.922 125.701 147.289  0.00  0.00    +0.000 A 
ATOM     15  C   UNL     1     107.684 125.385 147.261  0.00  0.00    +0.000 A 
ATOM     16  C   UNL     1     106.468 125.622 147.973  0.00  0.00    +0.000 A 
ATOM     17  C   UNL     1     107.991 124.990 147.917  0.00  0.00    +0.000 A 
ATOM     18  C   UNL     1     106.775 125.227 148.629  0.00  0.00    +0.000 A 
ATOM     19  C   UNL     1     107.536 124.911 148.601  0.00  0.00    +0.000 A 
BRANCH  19  20
ATOM     20  O   UNL     1     107.843 124.515 149.257  0.00  0.00    +0.000 OA
ATOM     21  C   UNL     1     107.411 123.908 149.612  0.00  0.00    +0.000 C 
ENDBRANCH  19  20
ENDBRANCH   6  14
BRANCH   8  22
ATOM     22  O   UNL     1     106.093 124.865 146.134  0.00  0.00    +0.000 OA
BRANCH  22  23
ATOM     23  S   UNL     1     105.661 124.450 145.566  0.00  0.00    +0.000 S 
ATOM     24  O   UNL     1     105.230 124.035 144.999  0.00  0.00    +0.000 OA
ATOM     25  O   UNL     1     106.352 124.322 145.134  0.00  0.00    +0.000 OA
ATOM     26  O   UNL     1     104.970 124.579 145.998  0.00  0.00    +0.000 OA
ENDBRANCH  22  23
ENDBRANCH   8  22
TORSDOF 4
ENDMDL
