MODEL 1
REMARK VINA RESULT:      -9.8      0.000      0.000
REMARK  Name = 14524431
REMARK  4 active torsions:
REMARK  status: ('A' for Active; 'I' for Inactive)
REMARK    1  A    between atoms: O_2  and  C_16
REMARK    2  A    between atoms: O_2  and  C_18
REMARK    3  A    between atoms: C_15  and  C_17
REMARK    4  A    between atoms: C_19  and  C_23
REMARK                            x       y       z     vdW  Elec       q    Type
REMARK                         _______ _______ _______ _____ _____    ______ ____
ROOT
ATOM      1  O   UNL     1     105.646 124.430 147.724  0.00  0.00    +0.000 OA
ATOM      2  O   UNL     1     107.067 125.651 146.107  0.00  0.00    +0.000 OA
ATOM      3  O   UNL     1     108.186 125.611 147.016  0.00  0.00    +0.000 OA
ATOM      4  O   UNL     1     107.861 124.311 149.611  0.00  0.00    +0.000 OA
ATOM      5  C   UNL     1     105.810 125.067 146.456  0.00  0.00    +0.000 A 
ATOM      6  C   UNL     1     105.336 124.660 146.995  0.00  0.00    +0.000 A 
ATOM      7  C   UNL     1     106.593 125.244 146.646  0.00  0.00    +0.000 A 
ATOM      8  C   UNL     1     106.903 125.014 147.375  0.00  0.00    +0.000 A 
ATOM      9  C   UNL     1     106.429 124.607 147.915  0.00  0.00    +0.000 A 
ATOM     10  C   UNL     1     107.719 125.204 147.562  0.00  0.00    +0.000 A 
ATOM     11  C   UNL     1     106.739 124.362 148.677  0.00  0.00    +0.000 A 
ATOM     12  C   UNL     1     108.048 124.967 148.320  0.00  0.00    +0.000 A 
ATOM     13  C   UNL     1     107.554 124.543 148.881  0.00  0.00    +0.000 A 
ENDROOT
BRANCH   6  17
ATOM     14  O   UNL     1     102.539 125.145 147.325  0.00  0.00    +0.000 OA
ATOM     15  O   UNL     1     103.435 123.114 145.525  0.00  0.00    +0.000 OA
ATOM     16  O   UNL     1     102.204 123.952 146.235  0.00  0.00    +0.000 OA
ATOM     17  C   UNL     1     104.553 124.483 146.805  0.00  0.00    +0.000 A 
ATOM     18  C   UNL     1     104.386 123.887 146.260  0.00  0.00    +0.000 A 
ATOM     19  C   UNL     1     103.938 124.903 147.160  0.00  0.00    +0.000 A 
ATOM     20  C   UNL     1     103.155 124.726 146.970  0.00  0.00    +0.000 A 
ATOM     21  C   UNL     1     103.603 123.710 146.070  0.00  0.00    +0.000 A 
ATOM     22  C   UNL     1     102.987 124.129 146.425  0.00  0.00    +0.000 A 
ENDBRANCH   6  17
BRANCH   5  23
ATOM     23  O   UNL     1     105.500 125.297 145.727  0.00  0.00    +0.000 OA
BRANCH  23  30
ATOM     24  O   UNL     1     105.384 126.726 146.052  0.00  0.00    +0.000 OA
ATOM     25  O   UNL     1     105.490 127.759 144.187  0.00  0.00    +0.000 OA
ATOM     26  O   UNL     1     105.609 125.972 144.067  0.00  0.00    +0.000 OA
ATOM     27  C   UNL     1     105.465 127.228 144.817  0.00  0.00    +0.000 C 
ATOM     28  C   UNL     1     105.520 126.407 144.762  0.00  0.00    +0.000 C 
ATOM     29  C   UNL     1     105.381 127.426 145.614  0.00  0.00    +0.000 C 
ATOM     30  C   UNL     1     105.470 126.097 145.526  0.00  0.00    +0.000 C 
BRANCH  29  32
ATOM     31  O   UNL     1     104.979 128.304 146.668  0.00  0.00    +0.000 OA
ATOM     32  C   UNL     1     105.307 128.189 145.920  0.00  0.00    +0.000 C 
ENDBRANCH  29  32
ENDBRANCH  23  30
ENDBRANCH   5  23
TORSDOF 4
ENDMDL
MODEL 2
REMARK VINA RESULT:      -9.2      1.307      4.020
REMARK  Name = 14524431
REMARK  4 active torsions:
REMARK  status: ('A' for Active; 'I' for Inactive)
REMARK    1  A    between atoms: O_2  and  C_16
REMARK    2  A    between atoms: O_2  and  C_18
REMARK    3  A    between atoms: C_15  and  C_17
REMARK    4  A    between atoms: C_19  and  C_23
REMARK                            x       y       z     vdW  Elec       q    Type
REMARK                         _______ _______ _______ _____ _____    ______ ____
ROOT
ATOM      1  O   UNL     1     105.066 124.152 147.131  0.00  0.00    +0.000 OA
ATOM      2  O   UNL     1     103.505 125.801 148.115  0.00  0.00    +0.000 OA
ATOM      3  O   UNL     1     102.386 125.185 147.444  0.00  0.00    +0.000 OA
ATOM      4  O   UNL     1     102.857 122.856 145.745  0.00  0.00    +0.000 OA
ATOM      5  C   UNL     1     104.831 125.291 147.961  0.00  0.00    +0.000 A 
ATOM      6  C   UNL     1     105.352 124.741 147.633  0.00  0.00    +0.000 A 
ATOM      7  C   UNL     1     104.026 125.251 147.787  0.00  0.00    +0.000 A 
ATOM      8  C   UNL     1     103.740 124.662 147.285  0.00  0.00    +0.000 A 
ATOM      9  C   UNL     1     104.261 124.112 146.957  0.00  0.00    +0.000 A 
ATOM     10  C   UNL     1     102.900 124.631 147.111  0.00  0.00    +0.000 A 
ATOM     11  C   UNL     1     103.977 123.493 146.433  0.00  0.00    +0.000 A 
ATOM     12  C   UNL     1     102.597 124.019 146.589  0.00  0.00    +0.000 A 
ATOM     13  C   UNL     1     103.140 123.446 146.248  0.00  0.00    +0.000 A 
ENDROOT
BRANCH   6  17
ATOM     14  O   UNL     1     107.520 124.280 149.436  0.00  0.00    +0.000 OA
ATOM     15  O   UNL     1     108.016 125.442 146.873  0.00  0.00    +0.000 OA
ATOM     16  O   UNL     1     108.573 124.901 148.329  0.00  0.00    +0.000 OA
ATOM     17  C   UNL     1     106.157 124.781 147.807  0.00  0.00    +0.000 A 
ATOM     18  C   UNL     1     106.683 125.091 147.253  0.00  0.00    +0.000 A 
ATOM     19  C   UNL     1     106.435 124.511 148.535  0.00  0.00    +0.000 A 
ATOM     20  C   UNL     1     107.241 124.551 148.709  0.00  0.00    +0.000 A 
ATOM     21  C   UNL     1     107.489 125.131 147.427  0.00  0.00    +0.000 A 
ATOM     22  C   UNL     1     107.768 124.861 148.155  0.00  0.00    +0.000 A 
ENDBRANCH   6  17
BRANCH   5  23
ATOM     23  O   UNL     1     105.116 125.880 148.462  0.00  0.00    +0.000 OA
BRANCH  23  30
ATOM     24  O   UNL     1     104.982 126.977 147.492  0.00  0.00    +0.000 OA
ATOM     25  O   UNL     1     104.797 128.761 148.650  0.00  0.00    +0.000 OA
ATOM     26  O   UNL     1     104.977 127.254 149.609  0.00  0.00    +0.000 OA
ATOM     27  C   UNL     1     104.878 127.999 148.345  0.00  0.00    +0.000 C 
ATOM     28  C   UNL     1     104.961 127.307 148.786  0.00  0.00    +0.000 C 
ATOM     29  C   UNL     1     104.891 127.796 147.546  0.00  0.00    +0.000 C 
ATOM     30  C   UNL     1     105.025 126.675 148.259  0.00  0.00    +0.000 C 
BRANCH  29  32
ATOM     31  O   UNL     1     105.083 128.092 146.161  0.00  0.00    +0.000 OA
ATOM     32  C   UNL     1     104.825 128.319 146.911  0.00  0.00    +0.000 C 
ENDBRANCH  29  32
ENDBRANCH  23  30
ENDBRANCH   5  23
TORSDOF 4
ENDMDL
MODEL 3
REMARK VINA RESULT:      -9.1      1.372      4.043
REMARK  Name = 14524431
REMARK  4 active torsions:
REMARK  status: ('A' for Active; 'I' for Inactive)
REMARK    1  A    between atoms: O_2  and  C_16
REMARK    2  A    between atoms: O_2  and  C_18
REMARK    3  A    between atoms: C_15  and  C_17
REMARK    4  A    between atoms: C_19  and  C_23
REMARK                            x       y       z     vdW  Elec       q    Type
REMARK                         _______ _______ _______ _____ _____    ______ ____
ROOT
ATOM      1  O   UNL     1     103.729 125.664 147.351  0.00  0.00    +0.000 OA
ATOM      2  O   UNL     1     105.624 124.451 146.318  0.00  0.00    +0.000 OA
ATOM      3  O   UNL     1     104.771 123.331 146.002  0.00  0.00    +0.000 OA
ATOM      4  O   UNL     1     101.949 123.441 146.744  0.00  0.00    +0.000 OA
ATOM      5  C   UNL     1     105.109 125.606 146.985  0.00  0.00    +0.000 A 
ATOM      6  C   UNL     1     104.478 126.010 147.329  0.00  0.00    +0.000 A 
ATOM      7  C   UNL     1     104.992 124.856 146.662  0.00  0.00    +0.000 A 
ATOM      8  C   UNL     1     104.243 124.510 146.683  0.00  0.00    +0.000 A 
ATOM      9  C   UNL     1     103.612 124.914 147.028  0.00  0.00    +0.000 A 
ATOM     10  C   UNL     1     104.134 123.728 146.344  0.00  0.00    +0.000 A 
ATOM     11  C   UNL     1     102.828 124.566 147.056  0.00  0.00    +0.000 A 
ATOM     12  C   UNL     1     103.356 123.363 146.363  0.00  0.00    +0.000 A 
ATOM     13  C   UNL     1     102.699 123.785 146.722  0.00  0.00    +0.000 A 
ENDROOT
BRANCH   6  17
ATOM     14  O   UNL     1     104.862 128.821 146.984  0.00  0.00    +0.000 OA
ATOM     15  O   UNL     1     104.798 127.700 149.612  0.00  0.00    +0.000 OA
ATOM     16  O   UNL     1     104.947 129.010 148.621  0.00  0.00    +0.000 OA
ATOM     17  C   UNL     1     104.595 126.760 147.652  0.00  0.00    +0.000 A 
ATOM     18  C   UNL     1     104.638 126.855 148.470  0.00  0.00    +0.000 A 
ATOM     19  C   UNL     1     104.670 127.416 147.156  0.00  0.00    +0.000 A 
ATOM     20  C   UNL     1     104.787 128.166 147.479  0.00  0.00    +0.000 A 
ATOM     21  C   UNL     1     104.755 127.605 148.793  0.00  0.00    +0.000 A 
ATOM     22  C   UNL     1     104.830 128.260 148.298  0.00  0.00    +0.000 A 
ENDBRANCH   6  17
BRANCH   5  23
ATOM     23  O   UNL     1     105.858 125.952 146.964  0.00  0.00    +0.000 OA
BRANCH  23  30
ATOM     24  O   UNL     1     106.438 125.141 148.045  0.00  0.00    +0.000 OA
ATOM     25  O   UNL     1     108.538 125.076 147.663  0.00  0.00    +0.000 OA
ATOM     26  O   UNL     1     107.583 126.019 146.471  0.00  0.00    +0.000 OA
ATOM     27  C   UNL     1     107.721 125.191 147.678  0.00  0.00    +0.000 C 
ATOM     28  C   UNL     1     107.282 125.624 147.130  0.00  0.00    +0.000 C 
ATOM     29  C   UNL     1     107.199 124.892 148.244  0.00  0.00    +0.000 C 
ATOM     30  C   UNL     1     106.489 125.593 147.357  0.00  0.00    +0.000 C 
BRANCH  29  32
ATOM     31  O   UNL     1     106.847 124.274 149.483  0.00  0.00    +0.000 OA
ATOM     32  C   UNL     1     107.403 124.427 148.894  0.00  0.00    +0.000 C 
ENDBRANCH  29  32
ENDBRANCH  23  30
ENDBRANCH   5  23
TORSDOF 4
ENDMDL
MODEL 4
REMARK VINA RESULT:      -9.1     11.254     12.771
REMARK  Name = 14524431
REMARK  4 active torsions:
REMARK  status: ('A' for Active; 'I' for Inactive)
REMARK    1  A    between atoms: O_2  and  C_16
REMARK    2  A    between atoms: O_2  and  C_18
REMARK    3  A    between atoms: C_15  and  C_17
REMARK    4  A    between atoms: C_19  and  C_23
REMARK                            x       y       z     vdW  Elec       q    Type
REMARK                         _______ _______ _______ _____ _____    ______ ____
ROOT
ATOM      1  O   UNL     1     111.835 129.562 135.855  0.00  0.00    +0.000 OA
ATOM      2  O   UNL     1     112.384 131.065 137.744  0.00  0.00    +0.000 OA
ATOM      3  O   UNL     1     113.781 131.052 137.386  0.00  0.00    +0.000 OA
ATOM      4  O   UNL     1     114.640 129.488 135.073  0.00  0.00    +0.000 OA
ATOM      5  C   UNL     1     111.420 130.329 136.987  0.00  0.00    +0.000 A 
ATOM      6  C   UNL     1     111.237 129.828 136.358  0.00  0.00    +0.000 A 
ATOM      7  C   UNL     1     112.201 130.564 137.114  0.00  0.00    +0.000 A 
ATOM      8  C   UNL     1     112.799 130.299 136.611  0.00  0.00    +0.000 A 
ATOM      9  C   UNL     1     112.616 129.797 135.982  0.00  0.00    +0.000 A 
ATOM     10  C   UNL     1     113.608 130.551 136.754  0.00  0.00    +0.000 A 
ATOM     11  C   UNL     1     113.228 129.514 135.451  0.00  0.00    +0.000 A 
ATOM     12  C   UNL     1     114.235 130.277 136.233  0.00  0.00    +0.000 A 
ATOM     13  C   UNL     1     114.043 129.755 135.577  0.00  0.00    +0.000 A 
ENDROOT
BRANCH   6  17
ATOM     14  O   UNL     1     109.003 128.186 137.052  0.00  0.00    +0.000 OA
ATOM     15  O   UNL     1     108.788 130.058 134.903  0.00  0.00    +0.000 OA
ATOM     16  O   UNL     1     108.115 128.887 135.851  0.00  0.00    +0.000 OA
ATOM     17  C   UNL     1     110.457 129.592 136.231  0.00  0.00    +0.000 A 
ATOM     18  C   UNL     1     110.013 129.943 135.631  0.00  0.00    +0.000 A 
ATOM     19  C   UNL     1     110.121 129.007 136.705  0.00  0.00    +0.000 A 
ATOM     20  C   UNL     1     109.340 128.772 136.579  0.00  0.00    +0.000 A 
ATOM     21  C   UNL     1     109.233 129.707 135.504  0.00  0.00    +0.000 A 
ATOM     22  C   UNL     1     108.896 129.122 135.978  0.00  0.00    +0.000 A 
ENDBRANCH   6  17
BRANCH   5  23
ATOM     23  O   UNL     1     110.822 130.594 137.490  0.00  0.00    +0.000 OA
BRANCH  23  30
ATOM     24  O   UNL     1     110.769 131.967 136.967  0.00  0.00    +0.000 OA
ATOM     25  O   UNL     1     110.069 133.179 138.579  0.00  0.00    +0.000 OA
ATOM     26  O   UNL     1     110.227 131.432 138.961  0.00  0.00    +0.000 OA
ATOM     27  C   UNL     1     110.325 132.591 138.061  0.00  0.00    +0.000 C 
ATOM     28  C   UNL     1     110.398 131.788 138.237  0.00  0.00    +0.000 C 
ATOM     29  C   UNL     1     110.554 132.702 137.276  0.00  0.00    +0.000 C 
ATOM     30  C   UNL     1     110.672 131.403 137.560  0.00  0.00    +0.000 C 
BRANCH  29  32
ATOM     31  O   UNL     1     110.332 133.454 136.082  0.00  0.00    +0.000 OA
ATOM     32  C   UNL     1     110.567 133.421 136.872  0.00  0.00    +0.000 C 
ENDBRANCH  29  32
ENDBRANCH  23  30
ENDBRANCH   5  23
TORSDOF 4
ENDMDL
MODEL 5
REMARK VINA RESULT:      -9.0     10.339     12.310
REMARK  Name = 14524431
REMARK  4 active torsions:
REMARK  status: ('A' for Active; 'I' for Inactive)
REMARK    1  A    between atoms: O_2  and  C_16
REMARK    2  A    between atoms: O_2  and  C_18
REMARK    3  A    between atoms: C_15  and  C_17
REMARK    4  A    between atoms: C_19  and  C_23
REMARK                            x       y       z     vdW  Elec       q    Type
REMARK                         _______ _______ _______ _____ _____    ______ ____
ROOT
ATOM      1  O   UNL     1     113.551 127.183 136.492  0.00  0.00    +0.000 OA
ATOM      2  O   UNL     1     112.283 128.247 138.332  0.00  0.00    +0.000 OA
ATOM      3  O   UNL     1     112.621 129.562 137.843  0.00  0.00    +0.000 OA
ATOM      4  O   UNL     1     114.273 129.804 135.447  0.00  0.00    +0.000 OA
ATOM      5  C   UNL     1     112.743 127.070 137.665  0.00  0.00    +0.000 A 
ATOM      6  C   UNL     1     113.165 126.715 137.052  0.00  0.00    +0.000 A 
ATOM      7  C   UNL     1     112.706 127.892 137.719  0.00  0.00    +0.000 A 
ATOM      8  C   UNL     1     113.091 128.360 137.160  0.00  0.00    +0.000 A 
ATOM      9  C   UNL     1     113.514 128.005 136.546  0.00  0.00    +0.000 A 
ATOM     10  C   UNL     1     113.046 129.215 137.226  0.00  0.00    +0.000 A 
ATOM     11  C   UNL     1     113.920 128.481 135.957  0.00  0.00    +0.000 A 
ATOM     12  C   UNL     1     113.445 129.708 136.647  0.00  0.00    +0.000 A 
ATOM     13  C   UNL     1     113.886 129.338 136.008  0.00  0.00    +0.000 A 
ENDROOT
BRANCH   6  17
ATOM     14  O   UNL     1     114.603 124.273 137.419  0.00  0.00    +0.000 OA
ATOM     15  O   UNL     1     111.948 124.223 136.362  0.00  0.00    +0.000 OA
ATOM     16  O   UNL     1     113.312 123.426 136.836  0.00  0.00    +0.000 OA
ATOM     17  C   UNL     1     113.202 125.893 136.998  0.00  0.00    +0.000 A 
ATOM     18  C   UNL     1     112.557 125.470 136.707  0.00  0.00    +0.000 A 
ATOM     19  C   UNL     1     113.885 125.494 137.235  0.00  0.00    +0.000 A 
ATOM     20  C   UNL     1     113.921 124.672 137.181  0.00  0.00    +0.000 A 
ATOM     21  C   UNL     1     112.594 124.647 136.653  0.00  0.00    +0.000 A 
ATOM     22  C   UNL     1     113.276 124.248 136.890  0.00  0.00    +0.000 A 
ENDBRANCH   6  17
BRANCH   5  23
ATOM     23  O   UNL     1     112.357 126.602 138.224  0.00  0.00    +0.000 OA
BRANCH  23  30
ATOM     24  O   UNL     1     113.289 126.916 139.317  0.00  0.00    +0.000 OA
ATOM     25  O   UNL     1     112.235 126.487 141.124  0.00  0.00    +0.000 OA
ATOM     26  O   UNL     1     111.306 126.184 139.618  0.00  0.00    +0.000 OA
ATOM     27  C   UNL     1     112.507 126.605 140.354  0.00  0.00    +0.000 C 
ATOM     28  C   UNL     1     112.080 126.466 139.662  0.00  0.00    +0.000 C 
ATOM     29  C   UNL     1     113.254 126.883 140.141  0.00  0.00    +0.000 C 
ATOM     30  C   UNL     1     112.563 126.658 139.022  0.00  0.00    +0.000 C 
BRANCH  29  32
ATOM     31  O   UNL     1     114.648 126.965 140.449  0.00  0.00    +0.000 OA
ATOM     32  C   UNL     1     113.861 127.092 140.661  0.00  0.00    +0.000 C 
ENDBRANCH  29  32
ENDBRANCH  23  30
ENDBRANCH   5  23
TORSDOF 4
ENDMDL
MODEL 6
REMARK VINA RESULT:      -8.8     10.430     12.469
REMARK  Name = 14524431
REMARK  4 active torsions:
REMARK  status: ('A' for Active; 'I' for Inactive)
REMARK    1  A    between atoms: O_2  and  C_16
REMARK    2  A    between atoms: O_2  and  C_18
REMARK    3  A    between atoms: C_15  and  C_17
REMARK    4  A    between atoms: C_19  and  C_23
REMARK                            x       y       z     vdW  Elec       q    Type
REMARK                         _______ _______ _______ _____ _____    ______ ____
ROOT
ATOM      1  O   UNL     1     113.436 126.714 136.765  0.00  0.00    +0.000 OA
ATOM      2  O   UNL     1     111.498 125.338 136.072  0.00  0.00    +0.000 OA
ATOM      3  O   UNL     1     112.209 124.125 136.394  0.00  0.00    +0.000 OA
ATOM      4  O   UNL     1     114.931 124.307 137.436  0.00  0.00    +0.000 OA
ATOM      5  C   UNL     1     112.104 126.620 136.256  0.00  0.00    +0.000 A 
ATOM      6  C   UNL     1     112.750 127.079 136.487  0.00  0.00    +0.000 A 
ATOM      7  C   UNL     1     112.144 125.797 136.303  0.00  0.00    +0.000 A 
ATOM      8  C   UNL     1     112.830 125.433 136.582  0.00  0.00    +0.000 A 
ATOM      9  C   UNL     1     113.476 125.892 136.813  0.00  0.00    +0.000 A 
ATOM     10  C   UNL     1     112.859 124.576 136.627  0.00  0.00    +0.000 A 
ATOM     11  C   UNL     1     114.195 125.525 137.105  0.00  0.00    +0.000 A 
ATOM     12  C   UNL     1     113.571 124.190 136.917  0.00  0.00    +0.000 A 
ATOM     13  C   UNL     1     114.244 124.669 137.157  0.00  0.00    +0.000 A 
ENDROOT
BRANCH   6  17
ATOM     14  O   UNL     1     112.452 129.620 137.759  0.00  0.00    +0.000 OA
ATOM     15  O   UNL     1     112.806 129.472 134.927  0.00  0.00    +0.000 OA
ATOM     16  O   UNL     1     112.589 130.369 136.295  0.00  0.00    +0.000 OA
ATOM     17  C   UNL     1     112.710 127.901 136.439  0.00  0.00    +0.000 A 
ATOM     18  C   UNL     1     112.778 128.275 135.707  0.00  0.00    +0.000 A 
ATOM     19  C   UNL     1     112.601 128.349 137.123  0.00  0.00    +0.000 A 
ATOM     20  C   UNL     1     112.561 129.172 137.075  0.00  0.00    +0.000 A 
ATOM     21  C   UNL     1     112.738 129.098 135.659  0.00  0.00    +0.000 A 
ATOM     22  C   UNL     1     112.629 129.546 136.343  0.00  0.00    +0.000 A 
ENDBRANCH   6  17
BRANCH   5  23
ATOM     23  O   UNL     1     111.418 126.984 135.977  0.00  0.00    +0.000 OA
BRANCH  23  30
ATOM     24  O   UNL     1     110.622 126.704 137.180  0.00  0.00    +0.000 OA
ATOM     25  O   UNL     1     108.580 126.808 136.566  0.00  0.00    +0.000 OA
ATOM     26  O   UNL     1     109.776 127.117 135.264  0.00  0.00    +0.000 OA
ATOM     27  C   UNL     1     109.400 126.803 136.650  0.00  0.00    +0.000 C 
ATOM     28  C   UNL     1     109.950 126.945 136.052  0.00  0.00    +0.000 C 
ATOM     29  C   UNL     1     109.815 126.653 137.348  0.00  0.00    +0.000 C 
ATOM     30  C   UNL     1     110.705 126.883 136.380  0.00  0.00    +0.000 C 
BRANCH  29  32
ATOM     31  O   UNL     1     109.911 126.628 138.774  0.00  0.00    +0.000 OA
ATOM     32  C   UNL     1     109.482 126.484 138.084  0.00  0.00    +0.000 C 
ENDBRANCH  29  32
ENDBRANCH  23  30
ENDBRANCH   5  23
TORSDOF 4
ENDMDL
MODEL 7
REMARK VINA RESULT:      -8.8      9.323     11.250
REMARK  Name = 14524431
REMARK  4 active torsions:
REMARK  status: ('A' for Active; 'I' for Inactive)
REMARK    1  A    between atoms: O_2  and  C_16
REMARK    2  A    between atoms: O_2  and  C_18
REMARK    3  A    between atoms: C_15  and  C_17
REMARK    4  A    between atoms: C_19  and  C_23
REMARK                            x       y       z     vdW  Elec       q    Type
REMARK                         _______ _______ _______ _____ _____    ______ ____
ROOT
ATOM      1  O   UNL     1     113.729 126.254 138.220  0.00  0.00    +0.000 OA
ATOM      2  O   UNL     1     111.738 124.819 137.896  0.00  0.00    +0.000 OA
ATOM      3  O   UNL     1     112.366 124.151 136.782  0.00  0.00    +0.000 OA
ATOM      4  O   UNL     1     115.058 124.950 135.980  0.00  0.00    +0.000 OA
ATOM      5  C   UNL     1     112.412 125.859 138.608  0.00  0.00    +0.000 A 
ATOM      6  C   UNL     1     113.075 126.337 138.717  0.00  0.00    +0.000 A 
ATOM      7  C   UNL     1     112.402 125.297 138.004  0.00  0.00    +0.000 A 
ATOM      8  C   UNL     1     113.056 125.213 137.508  0.00  0.00    +0.000 A 
ATOM      9  C   UNL     1     113.720 125.692 137.616  0.00  0.00    +0.000 A 
ATOM     10  C   UNL     1     113.034 124.625 136.882  0.00  0.00    +0.000 A 
ATOM     11  C   UNL     1     114.407 125.615 137.107  0.00  0.00    +0.000 A 
ATOM     12  C   UNL     1     113.712 124.533 136.362  0.00  0.00    +0.000 A 
ATOM     13  C   UNL     1     114.403 125.032 136.476  0.00  0.00    +0.000 A 
ENDROOT
BRANCH   6  17
ATOM     14  O   UNL     1     113.326 126.987 141.488  0.00  0.00    +0.000 OA
ATOM     15  O   UNL     1     112.882 129.058 139.570  0.00  0.00    +0.000 OA
ATOM     16  O   UNL     1     113.114 128.584 141.133  0.00  0.00    +0.000 OA
ATOM     17  C   UNL     1     113.085 126.899 139.321  0.00  0.00    +0.000 A 
ATOM     18  C   UNL     1     112.979 127.697 139.143  0.00  0.00    +0.000 A 
ATOM     19  C   UNL     1     113.201 126.662 140.102  0.00  0.00    +0.000 A 
ATOM     20  C   UNL     1     113.210 127.223 140.707  0.00  0.00    +0.000 A 
ATOM     21  C   UNL     1     112.988 128.259 139.747  0.00  0.00    +0.000 A 
ATOM     22  C   UNL     1     113.104 128.022 140.529  0.00  0.00    +0.000 A 
ENDBRANCH   6  17
BRANCH   5  23
ATOM     23  O   UNL     1     111.758 125.943 139.105  0.00  0.00    +0.000 OA
BRANCH  23  30
ATOM     24  O   UNL     1     110.901 126.603 138.109  0.00  0.00    +0.000 OA
ATOM     25  O   UNL     1     108.892 126.205 138.713  0.00  0.00    +0.000 OA
ATOM     26  O   UNL     1     110.154 125.499 139.776  0.00  0.00    +0.000 OA
ATOM     27  C   UNL     1     109.708 126.273 138.609  0.00  0.00    +0.000 C 
ATOM     28  C   UNL     1     110.287 125.948 139.098  0.00  0.00    +0.000 C 
ATOM     29  C   UNL     1     110.087 126.678 137.998  0.00  0.00    +0.000 C 
ATOM     30  C   UNL     1     111.025 126.152 138.789  0.00  0.00    +0.000 C 
BRANCH  29  32
ATOM     31  O   UNL     1     110.123 127.676 136.976  0.00  0.00    +0.000 OA
ATOM     32  C   UNL     1     109.716 127.085 137.383  0.00  0.00    +0.000 C 
ENDBRANCH  29  32
ENDBRANCH  23  30
ENDBRANCH   5  23
TORSDOF 4
ENDMDL
MODEL 8
REMARK VINA RESULT:      -8.8      0.806      3.425
REMARK  Name = 14524431
REMARK  4 active torsions:
REMARK  status: ('A' for Active; 'I' for Inactive)
REMARK    1  A    between atoms: O_2  and  C_16
REMARK    2  A    between atoms: O_2  and  C_18
REMARK    3  A    between atoms: C_15  and  C_17
REMARK    4  A    between atoms: C_19  and  C_23
REMARK                            x       y       z     vdW  Elec       q    Type
REMARK                         _______ _______ _______ _____ _____    ______ ____
ROOT
ATOM      1  O   UNL     1     106.785 125.554 147.093  0.00  0.00    +0.000 OA
ATOM      2  O   UNL     1     104.797 124.715 148.307  0.00  0.00    +0.000 OA
ATOM      3  O   UNL     1     105.630 124.169 149.351  0.00  0.00    +0.000 OA
ATOM      4  O   UNL     1     108.528 124.478 149.163  0.00  0.00    +0.000 OA
ATOM      5  C   UNL     1     105.367 125.400 147.190  0.00  0.00    +0.000 A 
ATOM      6  C   UNL     1     106.030 125.680 146.785  0.00  0.00    +0.000 A 
ATOM      7  C   UNL     1     105.460 124.995 147.902  0.00  0.00    +0.000 A 
ATOM      8  C   UNL     1     106.215 124.869 148.210  0.00  0.00    +0.000 A 
ATOM      9  C   UNL     1     106.877 125.149 147.806  0.00  0.00    +0.000 A 
ATOM     10  C   UNL     1     106.298 124.445 148.953  0.00  0.00    +0.000 A 
ATOM     11  C   UNL     1     107.669 125.024 148.115  0.00  0.00    +0.000 A 
ATOM     12  C   UNL     1     107.082 124.311 149.279  0.00  0.00    +0.000 A 
ATOM     13  C   UNL     1     107.772 124.603 148.857  0.00  0.00    +0.000 A 
ENDROOT
BRANCH   6  17
ATOM     14  O   UNL     1     106.230 125.754 143.935  0.00  0.00    +0.000 OA
ATOM     15  O   UNL     1     105.275 128.039 145.360  0.00  0.00    +0.000 OA
ATOM     16  O   UNL     1     105.660 127.302 143.935  0.00  0.00    +0.000 OA
ATOM     17  C   UNL     1     105.937 126.085 146.072  0.00  0.00    +0.000 A 
ATOM     18  C   UNL     1     105.653 126.859 146.073  0.00  0.00    +0.000 A 
ATOM     19  C   UNL     1     106.130 125.716 145.360  0.00  0.00    +0.000 A 
ATOM     20  C   UNL     1     106.037 126.122 144.648  0.00  0.00    +0.000 A 
ATOM     21  C   UNL     1     105.560 127.264 145.360  0.00  0.00    +0.000 A 
ATOM     22  C   UNL     1     105.752 126.896 144.648  0.00  0.00    +0.000 A 
ENDBRANCH   6  17
BRANCH   5  23
ATOM     23  O   UNL     1     104.613 125.526 146.881  0.00  0.00    +0.000 OA
BRANCH  23  30
ATOM     24  O   UNL     1     104.378 124.185 146.327  0.00  0.00    +0.000 OA
ATOM     25  O   UNL     1     102.294 123.801 146.591  0.00  0.00    +0.000 OA
ATOM     26  O   UNL     1     102.850 125.398 147.193  0.00  0.00    +0.000 OA
ATOM     27  C   UNL     1     103.066 124.089 146.559  0.00  0.00    +0.000 C 
ATOM     28  C   UNL     1     103.321 124.823 146.836  0.00  0.00    +0.000 C 
ATOM     29  C   UNL     1     103.719 123.694 146.244  0.00  0.00    +0.000 C 
ATOM     30  C   UNL     1     104.132 124.882 146.692  0.00  0.00    +0.000 C 
BRANCH  29  32
ATOM     31  O   UNL     1     104.278 122.739 145.340  0.00  0.00    +0.000 OA
ATOM     32  C   UNL     1     103.714 122.941 145.906  0.00  0.00    +0.000 C 
ENDBRANCH  29  32
ENDBRANCH  23  30
ENDBRANCH   5  23
TORSDOF 4
ENDMDL
MODEL 9
REMARK VINA RESULT:      -8.7     10.888     11.927
REMARK  Name = 14524431
REMARK  4 active torsions:
REMARK  status: ('A' for Active; 'I' for Inactive)
REMARK    1  A    between atoms: O_2  and  C_16
REMARK    2  A    between atoms: O_2  and  C_18
REMARK    3  A    between atoms: C_15  and  C_17
REMARK    4  A    between atoms: C_19  and  C_23
REMARK                            x       y       z     vdW  Elec       q    Type
REMARK                         _______ _______ _______ _____ _____    ______ ____
ROOT
ATOM      1  O   UNL     1     113.526 126.134 138.919  0.00  0.00    +0.000 OA
ATOM      2  O   UNL     1     112.513 128.332 138.402  0.00  0.00    +0.000 OA
ATOM      3  O   UNL     1     113.104 128.915 139.582  0.00  0.00    +0.000 OA
ATOM      4  O   UNL     1     114.752 127.241 141.318  0.00  0.00    +0.000 OA
ATOM      5  C   UNL     1     112.721 126.957 138.073  0.00  0.00    +0.000 A 
ATOM      6  C   UNL     1     113.059 126.224 138.245  0.00  0.00    +0.000 A 
ATOM      7  C   UNL     1     112.850 127.599 138.574  0.00  0.00    +0.000 A 
ATOM      8  C   UNL     1     113.318 127.509 139.248  0.00  0.00    +0.000 A 
ATOM      9  C   UNL     1     113.656 126.776 139.420  0.00  0.00    +0.000 A 
ATOM     10  C   UNL     1     113.446 128.185 139.762  0.00  0.00    +0.000 A 
ATOM     11  C   UNL     1     114.144 126.669 140.118  0.00  0.00    +0.000 A 
ATOM     12  C   UNL     1     113.932 128.097 140.465  0.00  0.00    +0.000 A 
ATOM     13  C   UNL     1     114.283 127.333 140.644  0.00  0.00    +0.000 A 
ENDROOT
BRANCH   6  17
ATOM     14  O   UNL     1     111.348 124.155 137.266  0.00  0.00    +0.000 OA
ATOM     15  O   UNL     1     113.990 124.441 136.216  0.00  0.00    +0.000 OA
ATOM     16  O   UNL     1     112.539 123.656 136.240  0.00  0.00    +0.000 OA
ATOM     17  C   UNL     1     112.929 125.582 137.744  0.00  0.00    +0.000 A 
ATOM     18  C   UNL     1     113.524 125.333 137.231  0.00  0.00    +0.000 A 
ATOM     19  C   UNL     1     112.203 125.190 137.756  0.00  0.00    +0.000 A 
ATOM     20  C   UNL     1     112.073 124.547 137.254  0.00  0.00    +0.000 A 
ATOM     21  C   UNL     1     113.394 124.691 136.729  0.00  0.00    +0.000 A 
ATOM     22  C   UNL     1     112.669 124.298 136.741  0.00  0.00    +0.000 A 
ENDBRANCH   6  17
BRANCH   5  23
ATOM     23  O   UNL     1     112.253 127.047 137.399  0.00  0.00    +0.000 OA
BRANCH  23  30
ATOM     24  O   UNL     1     113.248 127.805 136.627  0.00  0.00    +0.000 OA
ATOM     25  O   UNL     1     112.136 128.959 135.216  0.00  0.00    +0.000 OA
ATOM     26  O   UNL     1     111.143 127.928 136.298  0.00  0.00    +0.000 OA
ATOM     27  C   UNL     1     112.422 128.461 135.808  0.00  0.00    +0.000 C 
ATOM     28  C   UNL     1     111.965 127.987 136.305  0.00  0.00    +0.000 C 
ATOM     29  C   UNL     1     113.215 128.349 136.006  0.00  0.00    +0.000 C 
ATOM     30  C   UNL     1     112.476 127.582 136.811  0.00  0.00    +0.000 C 
BRANCH  29  32
ATOM     31  O   UNL     1     114.583 128.319 135.592  0.00  0.00    +0.000 OA
ATOM     32  C   UNL     1     113.862 128.716 135.647  0.00  0.00    +0.000 C 
ENDBRANCH  29  32
ENDBRANCH  23  30
ENDBRANCH   5  23
TORSDOF 4
ENDMDL
MODEL 10
REMARK VINA RESULT:      -8.7     11.596     13.035
REMARK  Name = 14524431
REMARK  4 active torsions:
REMARK  status: ('A' for Active; 'I' for Inactive)
REMARK    1  A    between atoms: O_2  and  C_16
REMARK    2  A    between atoms: O_2  and  C_18
REMARK    3  A    between atoms: C_15  and  C_17
REMARK    4  A    between atoms: C_19  and  C_23
REMARK                            x       y       z     vdW  Elec       q    Type
REMARK                         _______ _______ _______ _____ _____    ______ ____
ROOT
ATOM      1  O   UNL     1     111.791 125.985 136.063  0.00  0.00    +0.000 OA
ATOM      2  O   UNL     1     111.901 128.321 135.253  0.00  0.00    +0.000 OA
ATOM      3  O   UNL     1     110.615 128.190 134.612  0.00  0.00    +0.000 OA
ATOM      4  O   UNL     1     109.190 125.647 134.795  0.00  0.00    +0.000 OA
ATOM      5  C   UNL     1     112.484 127.231 135.970  0.00  0.00    +0.000 A 
ATOM      6  C   UNL     1     112.447 126.452 136.240  0.00  0.00    +0.000 A 
ATOM      7  C   UNL     1     111.864 127.542 135.523  0.00  0.00    +0.000 A 
ATOM      8  C   UNL     1     111.208 127.075 135.345  0.00  0.00    +0.000 A 
ATOM      9  C   UNL     1     111.171 126.296 135.615  0.00  0.00    +0.000 A 
ATOM     10  C   UNL     1     110.570 127.410 134.878  0.00  0.00    +0.000 A 
ATOM     11  C   UNL     1     110.494 125.799 135.437  0.00  0.00    +0.000 A 
ATOM     12  C   UNL     1     109.884 126.929 134.690  0.00  0.00    +0.000 A 
ATOM     13  C   UNL     1     109.846 126.117 134.971  0.00  0.00    +0.000 A 
ENDROOT
BRANCH   6  17
ATOM     14  O   UNL     1     115.045 125.271 136.387  0.00  0.00    +0.000 OA
ATOM     15  O   UNL     1     113.564 125.767 138.780  0.00  0.00    +0.000 OA
ATOM     16  O   UNL     1     114.923 125.208 138.031  0.00  0.00    +0.000 OA
ATOM     17  C   UNL     1     113.066 126.141 136.688  0.00  0.00    +0.000 A 
ATOM     18  C   UNL     1     113.005 126.110 137.510  0.00  0.00    +0.000 A 
ATOM     19  C   UNL     1     113.746 125.861 136.313  0.00  0.00    +0.000 A 
ATOM     20  C   UNL     1     114.365 125.550 136.761  0.00  0.00    +0.000 A 
ATOM     21  C   UNL     1     113.624 125.799 137.957  0.00  0.00    +0.000 A 
ATOM     22  C   UNL     1     114.304 125.519 137.583  0.00  0.00    +0.000 A 
ENDBRANCH   6  17
BRANCH   5  23
ATOM     23  O   UNL     1     113.140 127.698 136.148  0.00  0.00    +0.000 OA
BRANCH  23  30
ATOM     24  O   UNL     1     112.468 128.551 137.139  0.00  0.00    +0.000 OA
ATOM     25  O   UNL     1     113.513 130.413 137.112  0.00  0.00    +0.000 OA
ATOM     26  O   UNL     1     114.144 129.176 135.974  0.00  0.00    +0.000 OA
ATOM     27  C   UNL     1     113.215 129.650 137.010  0.00  0.00    +0.000 C 
ATOM     28  C   UNL     1     113.505 129.082 136.487  0.00  0.00    +0.000 C 
ATOM     29  C   UNL     1     112.574 129.322 137.413  0.00  0.00    +0.000 C 
ATOM     30  C   UNL     1     113.043 128.403 136.567  0.00  0.00    +0.000 C 
BRANCH  29  32
ATOM     31  O   UNL     1     111.684 129.253 138.530  0.00  0.00    +0.000 OA
ATOM     32  C   UNL     1     112.119 129.700 137.990  0.00  0.00    +0.000 C 
ENDBRANCH  29  32
ENDBRANCH  23  30
ENDBRANCH   5  23
TORSDOF 4
ENDMDL
