MODEL 1
REMARK VINA RESULT:     -11.0      0.000      0.000
REMARK  Name = 44256747
REMARK  10 active torsions:
REMARK  status: ('A' for Active; 'I' for Inactive)
REMARK    1  A    between atoms: O_1  and  C_19
REMARK    2  A    between atoms: O_1  and  C_24
REMARK    3  A    between atoms: O_5  and  C_23
REMARK    4  A    between atoms: O_5  and  C_30
REMARK    5  A    between atoms: O_9  and  C_28
REMARK    6  A    between atoms: O_9  and  C_33
REMARK    7  A    between atoms: C_22  and  C_28
REMARK    8  A    between atoms: C_31  and  C_35
REMARK    9  A    between atoms: C_33  and  C_38
REMARK   10  A    between atoms: C_46  and  C_48
REMARK                            x       y       z     vdW  Elec       q    Type
REMARK                         _______ _______ _______ _____ _____    ______ ____
ROOT
ATOM      1  O   UNL     1     110.041 128.944 136.728  0.00  0.00    +0.000 OA
ATOM      2  O   UNL     1     108.244 130.643 136.826  0.00  0.00    +0.000 OA
ATOM      3  O   UNL     1     108.123 129.373 135.779  0.00  0.00    +0.000 OA
ATOM      4  C   UNL     1     109.502 130.145 137.284  0.00  0.00    +0.000 C 
ATOM      5  C   UNL     1     108.843 130.077 136.793  0.00  0.00    +0.000 C 
ATOM      6  C   UNL     1     108.782 129.442 136.270  0.00  0.00    +0.000 C 
ATOM      7  C   UNL     1     109.381 128.876 136.237  0.00  0.00    +0.000 C 
ATOM      8  C   UNL     1     110.101 129.579 137.251  0.00  0.00    +0.000 C 
ENDROOT
BRANCH   4   9
ATOM      9  O   UNL     1     109.564 130.780 137.808  0.00  0.00    +0.000 OA
BRANCH   9  14
ATOM     10  O   UNL     1     110.060 131.604 136.750  0.00  0.00    +0.000 OA
ATOM     11  O   UNL     1     109.652 132.060 138.845  0.00  0.00    +0.000 OA
ATOM     12  O   UNL     1     110.192 133.523 138.307  0.00  0.00    +0.000 OA
ATOM     13  O   UNL     1     110.644 133.706 136.731  0.00  0.00    +0.000 OA
ATOM     14  C   UNL     1     109.834 131.512 137.538  0.00  0.00    +0.000 C 
ATOM     15  C   UNL     1     109.878 132.152 138.057  0.00  0.00    +0.000 C 
ATOM     16  C   UNL     1     110.148 132.883 137.787  0.00  0.00    +0.000 C 
ATOM     17  C   UNL     1     110.374 132.975 137.000  0.00  0.00    +0.000 C 
ATOM     18  C   UNL     1     110.330 132.335 136.480  0.00  0.00    +0.000 C 
ENDBRANCH   9  14
ENDBRANCH   4   9
BRANCH   8  19
ATOM     19  O   UNL     1     110.762 129.647 137.742  0.00  0.00    +0.000 OA
BRANCH  19  23
ATOM     20  O   UNL     1     112.074 128.208 138.726  0.00  0.00    +0.000 OA
ATOM     21  O   UNL     1     109.324 127.481 139.230  0.00  0.00    +0.000 OA
ATOM     22  O   UNL     1     111.482 125.857 140.339  0.00  0.00    +0.000 OA
ATOM     23  C   UNL     1     111.015 129.000 138.186  0.00  0.00    +0.000 A 
ATOM     24  C   UNL     1     111.821 128.856 138.283  0.00  0.00    +0.000 A 
ATOM     25  C   UNL     1     110.461 128.496 138.533  0.00  0.00    +0.000 A 
ATOM     26  C   UNL     1     110.714 127.848 138.976  0.00  0.00    +0.000 A 
ATOM     27  C   UNL     1     111.521 127.704 139.073  0.00  0.00    +0.000 A 
ATOM     28  C   UNL     1     110.128 127.329 139.333  0.00  0.00    +0.000 A 
ATOM     29  C   UNL     1     111.797 127.033 139.533  0.00  0.00    +0.000 A 
ATOM     30  C   UNL     1     110.386 126.653 139.796  0.00  0.00    +0.000 A 
ATOM     31  C   UNL     1     111.226 126.504 139.896  0.00  0.00    +0.000 A 
BRANCH  24  34
ATOM     32  O   UNL     1     113.500 131.164 138.427  0.00  0.00    +0.000 OA
ATOM     33  O   UNL     1     114.036 130.870 136.894  0.00  0.00    +0.000 OA
ATOM     34  C   UNL     1     112.375 129.360 137.936  0.00  0.00    +0.000 A 
ATOM     35  C   UNL     1     112.661 130.010 138.355  0.00  0.00    +0.000 A 
ATOM     36  C   UNL     1     112.643 129.213 137.170  0.00  0.00    +0.000 A 
ATOM     37  C   UNL     1     113.215 130.514 138.008  0.00  0.00    +0.000 A 
ATOM     38  C   UNL     1     113.196 129.716 136.822  0.00  0.00    +0.000 A 
ATOM     39  C   UNL     1     113.483 130.367 137.242  0.00  0.00    +0.000 A 
ENDBRANCH  24  34
ENDBRANCH  19  23
ENDBRANCH   8  19
BRANCH   7  40
ATOM     40  C   UNL     1     109.321 128.241 135.714  0.00  0.00    +0.000 C 
BRANCH  40  41
ATOM     41  O   UNL     1     109.999 127.828 135.487  0.00  0.00    +0.000 OA
BRANCH  41  43
ATOM     42  O   UNL     1     109.487 126.821 134.612  0.00  0.00    +0.000 OA
ATOM     43  C   UNL     1     109.944 127.036 135.265  0.00  0.00    +0.000 C 
BRANCH  43  44
ATOM     44  C   UNL     1     110.346 126.457 135.696  0.00  0.00    +0.000 C 
ATOM     45  C   UNL     1     111.112 126.242 135.481  0.00  0.00    +0.000 C 
BRANCH  45  48
ATOM     46  O   UNL     1     113.510 125.295 136.715  0.00  0.00    +0.000 OA
ATOM     47  O   UNL     1     112.720 123.931 137.204  0.00  0.00    +0.000 OA
ATOM     48  C   UNL     1     111.514 125.664 135.912  0.00  0.00    +0.000 A 
ATOM     49  C   UNL     1     112.311 125.768 136.098  0.00  0.00    +0.000 A 
ATOM     50  C   UNL     1     111.119 124.982 136.156  0.00  0.00    +0.000 A 
ATOM     51  C   UNL     1     112.713 125.190 136.529  0.00  0.00    +0.000 A 
ATOM     52  C   UNL     1     111.521 124.405 136.586  0.00  0.00    +0.000 A 
ATOM     53  C   UNL     1     112.318 124.508 136.773  0.00  0.00    +0.000 A 
ENDBRANCH  45  48
ENDBRANCH  43  44
ENDBRANCH  41  43
ENDBRANCH  40  41
ENDBRANCH   7  40
TORSDOF 10
ENDMDL
MODEL 2
REMARK VINA RESULT:     -10.5      1.107      2.926
REMARK  Name = 44256747
REMARK  10 active torsions:
REMARK  status: ('A' for Active; 'I' for Inactive)
REMARK    1  A    between atoms: O_1  and  C_19
REMARK    2  A    between atoms: O_1  and  C_24
REMARK    3  A    between atoms: O_5  and  C_23
REMARK    4  A    between atoms: O_5  and  C_30
REMARK    5  A    between atoms: O_9  and  C_28
REMARK    6  A    between atoms: O_9  and  C_33
REMARK    7  A    between atoms: C_22  and  C_28
REMARK    8  A    between atoms: C_31  and  C_35
REMARK    9  A    between atoms: C_33  and  C_38
REMARK   10  A    between atoms: C_46  and  C_48
REMARK                            x       y       z     vdW  Elec       q    Type
REMARK                         _______ _______ _______ _____ _____    ______ ____
ROOT
ATOM      1  O   UNL     1     112.260 129.113 137.352  0.00  0.00    +0.000 OA
ATOM      2  O   UNL     1     113.036 131.223 138.387  0.00  0.00    +0.000 OA
ATOM      3  O   UNL     1     114.123 130.200 137.684  0.00  0.00    +0.000 OA
ATOM      4  C   UNL     1     111.976 130.328 138.048  0.00  0.00    +0.000 C 
ATOM      5  C   UNL     1     112.777 130.520 138.042  0.00  0.00    +0.000 C 
ATOM      6  C   UNL     1     113.322 130.008 137.690  0.00  0.00    +0.000 C 
ATOM      7  C   UNL     1     113.063 129.305 137.345  0.00  0.00    +0.000 C 
ATOM      8  C   UNL     1     111.717 129.625 137.703  0.00  0.00    +0.000 C 
ENDROOT
BRANCH   4   9
ATOM      9  O   UNL     1     111.431 130.839 138.400  0.00  0.00    +0.000 OA
BRANCH   9  14
ATOM     10  O   UNL     1     111.403 131.627 137.207  0.00  0.00    +0.000 OA
ATOM     11  O   UNL     1     110.382 131.890 139.119  0.00  0.00    +0.000 OA
ATOM     12  O   UNL     1     109.829 133.203 138.287  0.00  0.00    +0.000 OA
ATOM     13  O   UNL     1     110.325 133.465 136.735  0.00  0.00    +0.000 OA
ATOM     14  C   UNL     1     111.155 131.496 137.984  0.00  0.00    +0.000 C 
ATOM     15  C   UNL     1     110.630 132.021 138.343  0.00  0.00    +0.000 C 
ATOM     16  C   UNL     1     110.353 132.678 137.927  0.00  0.00    +0.000 C 
ATOM     17  C   UNL     1     110.601 132.809 137.151  0.00  0.00    +0.000 C 
ATOM     18  C   UNL     1     111.126 132.284 136.791  0.00  0.00    +0.000 C 
ENDBRANCH   9  14
ENDBRANCH   4   9
BRANCH   8  19
ATOM     19  O   UNL     1     110.914 129.433 137.709  0.00  0.00    +0.000 OA
BRANCH  19  23
ATOM     20  O   UNL     1     109.823 127.545 137.805  0.00  0.00    +0.000 OA
ATOM     21  O   UNL     1     111.777 127.619 139.932  0.00  0.00    +0.000 OA
ATOM     22  O   UNL     1     110.049 125.286 139.629  0.00  0.00    +0.000 OA
ATOM     23  C   UNL     1     110.670 128.685 137.958  0.00  0.00    +0.000 A 
ATOM     24  C   UNL     1     110.066 128.293 137.557  0.00  0.00    +0.000 A 
ATOM     25  C   UNL     1     111.032 128.329 138.609  0.00  0.00    +0.000 A 
ATOM     26  C   UNL     1     110.789 127.581 138.858  0.00  0.00    +0.000 A 
ATOM     27  C   UNL     1     110.184 127.189 138.456  0.00  0.00    +0.000 A 
ATOM     28  C   UNL     1     111.173 127.220 139.537  0.00  0.00    +0.000 A 
ATOM     29  C   UNL     1     109.921 126.410 138.705  0.00  0.00    +0.000 A 
ATOM     30  C   UNL     1     110.924 126.441 139.800  0.00  0.00    +0.000 A 
ATOM     31  C   UNL     1     110.294 126.034 139.382  0.00  0.00    +0.000 A 
BRANCH  24  34
ATOM     32  O   UNL     1     108.060 130.018 136.475  0.00  0.00    +0.000 OA
ATOM     33  O   UNL     1     108.621 129.715 134.953  0.00  0.00    +0.000 OA
ATOM     34  C   UNL     1     109.704 128.649 136.906  0.00  0.00    +0.000 A 
ATOM     35  C   UNL     1     109.063 129.156 137.016  0.00  0.00    +0.000 A 
ATOM     36  C   UNL     1     109.984 128.497 136.145  0.00  0.00    +0.000 A 
ATOM     37  C   UNL     1     108.701 129.512 136.365  0.00  0.00    +0.000 A 
ATOM     38  C   UNL     1     109.623 128.852 135.494  0.00  0.00    +0.000 A 
ATOM     39  C   UNL     1     108.981 129.360 135.604  0.00  0.00    +0.000 A 
ENDBRANCH  24  34
ENDBRANCH  19  23
ENDBRANCH   8  19
BRANCH   7  40
ATOM     40  C   UNL     1     113.606 128.793 136.994  0.00  0.00    +0.000 C 
BRANCH  40  41
ATOM     41  O   UNL     1     113.345 128.214 136.467  0.00  0.00    +0.000 OA
BRANCH  41  43
ATOM     42  O   UNL     1     114.522 127.597 135.941  0.00  0.00    +0.000 OA
ATOM     43  C   UNL     1     113.801 127.539 136.338  0.00  0.00    +0.000 C 
BRANCH  43  44
ATOM     44  C   UNL     1     113.536 126.804 136.607  0.00  0.00    +0.000 C 
ATOM     45  C   UNL     1     113.116 126.308 136.100  0.00  0.00    +0.000 C 
BRANCH  45  48
ATOM     46  O   UNL     1     111.150 124.233 136.096  0.00  0.00    +0.000 OA
ATOM     47  O   UNL     1     112.056 123.372 137.173  0.00  0.00    +0.000 OA
ATOM     48  C   UNL     1     112.851 125.573 136.368  0.00  0.00    +0.000 A 
ATOM     49  C   UNL     1     112.133 125.270 136.098  0.00  0.00    +0.000 A 
ATOM     50  C   UNL     1     113.304 125.143 136.907  0.00  0.00    +0.000 A 
ATOM     51  C   UNL     1     111.868 124.536 136.367  0.00  0.00    +0.000 A 
ATOM     52  C   UNL     1     113.039 124.410 137.175  0.00  0.00    +0.000 A 
ATOM     53  C   UNL     1     112.321 124.106 136.905  0.00  0.00    +0.000 A 
ENDBRANCH  45  48
ENDBRANCH  43  44
ENDBRANCH  41  43
ENDBRANCH  40  41
ENDBRANCH   7  40
TORSDOF 10
ENDMDL
MODEL 3
REMARK VINA RESULT:     -10.5      1.016      5.662
REMARK  Name = 44256747
REMARK  10 active torsions:
REMARK  status: ('A' for Active; 'I' for Inactive)
REMARK    1  A    between atoms: O_1  and  C_19
REMARK    2  A    between atoms: O_1  and  C_24
REMARK    3  A    between atoms: O_5  and  C_23
REMARK    4  A    between atoms: O_5  and  C_30
REMARK    5  A    between atoms: O_9  and  C_28
REMARK    6  A    between atoms: O_9  and  C_33
REMARK    7  A    between atoms: C_22  and  C_28
REMARK    8  A    between atoms: C_31  and  C_35
REMARK    9  A    between atoms: C_33  and  C_38
REMARK   10  A    between atoms: C_46  and  C_48
REMARK                            x       y       z     vdW  Elec       q    Type
REMARK                         _______ _______ _______ _____ _____    ______ ____
ROOT
ATOM      1  O   UNL     1     110.738 127.779 136.479  0.00  0.00    +0.000 OA
ATOM      2  O   UNL     1     111.042 125.930 134.862  0.00  0.00    +0.000 OA
ATOM      3  O   UNL     1     109.741 126.936 134.730  0.00  0.00    +0.000 OA
ATOM      4  C   UNL     1     111.490 126.660 136.006  0.00  0.00    +0.000 C 
ATOM      5  C   UNL     1     110.941 126.547 135.401  0.00  0.00    +0.000 C 
ATOM      6  C   UNL     1     110.290 127.049 135.334  0.00  0.00    +0.000 C 
ATOM      7  C   UNL     1     110.188 127.666 135.873  0.00  0.00    +0.000 C 
ATOM      8  C   UNL     1     111.388 127.276 136.545  0.00  0.00    +0.000 C 
ENDROOT
BRANCH   4   9
ATOM      9  O   UNL     1     112.141 126.157 136.073  0.00  0.00    +0.000 OA
BRANCH   9  14
ATOM     10  O   UNL     1     111.333 125.206 136.770  0.00  0.00    +0.000 OA
ATOM     11  O   UNL     1     113.432 125.135 136.173  0.00  0.00    +0.000 OA
ATOM     12  O   UNL     1     113.271 123.673 136.921  0.00  0.00    +0.000 OA
ATOM     13  O   UNL     1     111.818 123.233 137.567  0.00  0.00    +0.000 OA
ATOM     14  C   UNL     1     112.060 125.426 136.446  0.00  0.00    +0.000 C 
ATOM     15  C   UNL     1     112.705 124.915 136.497  0.00  0.00    +0.000 C 
ATOM     16  C   UNL     1     112.625 124.184 136.871  0.00  0.00    +0.000 C 
ATOM     17  C   UNL     1     111.899 123.964 137.194  0.00  0.00    +0.000 C 
ATOM     18  C   UNL     1     111.252 124.475 137.143  0.00  0.00    +0.000 C 
ENDBRANCH   9  14
ENDBRANCH   4   9
BRANCH   8  19
ATOM     19  O   UNL     1     111.938 127.390 137.150  0.00  0.00    +0.000 OA
BRANCH  19  23
ATOM     20  O   UNL     1     112.691 129.145 138.206  0.00  0.00    +0.000 OA
ATOM     21  O   UNL     1     112.766 129.645 135.361  0.00  0.00    +0.000 OA
ATOM     22  O   UNL     1     113.677 131.703 137.222  0.00  0.00    +0.000 OA
ATOM     23  C   UNL     1     112.247 128.142 137.291  0.00  0.00    +0.000 A 
ATOM     24  C   UNL     1     112.382 128.393 138.065  0.00  0.00    +0.000 A 
ATOM     25  C   UNL     1     112.420 128.642 136.658  0.00  0.00    +0.000 A 
ATOM     26  C   UNL     1     112.729 129.394 136.799  0.00  0.00    +0.000 A 
ATOM     27  C   UNL     1     112.864 129.646 137.573  0.00  0.00    +0.000 A 
ATOM     28  C   UNL     1     112.905 129.906 136.131  0.00  0.00    +0.000 A 
ATOM     29  C   UNL     1     113.186 130.426 137.733  0.00  0.00    +0.000 A 
ATOM     30  C   UNL     1     113.227 130.690 136.272  0.00  0.00    +0.000 A 
ATOM     31  C   UNL     1     113.368 130.951 137.078  0.00  0.00    +0.000 A 
BRANCH  24  34
ATOM     32  O   UNL     1     113.188 126.369 139.914  0.00  0.00    +0.000 OA
ATOM     33  O   UNL     1     111.687 126.396 140.598  0.00  0.00    +0.000 OA
ATOM     34  C   UNL     1     112.209 127.894 138.698  0.00  0.00    +0.000 A 
ATOM     35  C   UNL     1     112.785 127.381 138.989  0.00  0.00    +0.000 A 
ATOM     36  C   UNL     1     111.458 127.907 139.040  0.00  0.00    +0.000 A 
ATOM     37  C   UNL     1     112.612 126.882 139.623  0.00  0.00    +0.000 A 
ATOM     38  C   UNL     1     111.284 127.408 139.673  0.00  0.00    +0.000 A 
ATOM     39  C   UNL     1     111.861 126.895 139.965  0.00  0.00    +0.000 A 
ENDBRANCH  24  34
ENDBRANCH  19  23
ENDBRANCH   8  19
BRANCH   7  40
ATOM     40  C   UNL     1     109.538 128.169 135.807  0.00  0.00    +0.000 C 
BRANCH  40  41
ATOM     41  O   UNL     1     109.280 128.596 136.465  0.00  0.00    +0.000 OA
BRANCH  41  43
ATOM     42  O   UNL     1     108.109 129.290 136.027  0.00  0.00    +0.000 OA
ATOM     43  C   UNL     1     108.864 129.301 136.360  0.00  0.00    +0.000 C 
BRANCH  43  44
ATOM     44  C   UNL     1     109.203 130.018 136.589  0.00  0.00    +0.000 C 
ATOM     45  C   UNL     1     109.002 130.356 137.314  0.00  0.00    +0.000 C 
BRANCH  45  48
ATOM     46  O   UNL     1     110.310 131.955 139.289  0.00  0.00    +0.000 OA
ATOM     47  O   UNL     1     110.359 133.220 138.232  0.00  0.00    +0.000 OA
ATOM     48  C   UNL     1     109.341 131.072 137.544  0.00  0.00    +0.000 A 
ATOM     49  C   UNL     1     109.656 131.155 138.302  0.00  0.00    +0.000 A 
ATOM     50  C   UNL     1     109.366 131.705 137.015  0.00  0.00    +0.000 A 
ATOM     51  C   UNL     1     109.996 131.872 138.531  0.00  0.00    +0.000 A 
ATOM     52  C   UNL     1     109.705 132.421 137.244  0.00  0.00    +0.000 A 
ATOM     53  C   UNL     1     110.020 132.505 138.002  0.00  0.00    +0.000 A 
ENDBRANCH  45  48
ENDBRANCH  43  44
ENDBRANCH  41  43
ENDBRANCH  40  41
ENDBRANCH   7  40
TORSDOF 10
ENDMDL
MODEL 4
REMARK VINA RESULT:     -10.2      1.923      4.173
REMARK  Name = 44256747
REMARK  10 active torsions:
REMARK  status: ('A' for Active; 'I' for Inactive)
REMARK    1  A    between atoms: O_1  and  C_19
REMARK    2  A    between atoms: O_1  and  C_24
REMARK    3  A    between atoms: O_5  and  C_23
REMARK    4  A    between atoms: O_5  and  C_30
REMARK    5  A    between atoms: O_9  and  C_28
REMARK    6  A    between atoms: O_9  and  C_33
REMARK    7  A    between atoms: C_22  and  C_28
REMARK    8  A    between atoms: C_31  and  C_35
REMARK    9  A    between atoms: C_33  and  C_38
REMARK   10  A    between atoms: C_46  and  C_48
REMARK                            x       y       z     vdW  Elec       q    Type
REMARK                         _______ _______ _______ _____ _____    ______ ____
ROOT
ATOM      1  O   UNL     1     113.318 127.407 139.277  0.00  0.00    +0.000 OA
ATOM      2  O   UNL     1     114.549 127.828 141.383  0.00  0.00    +0.000 OA
ATOM      3  O   UNL     1     114.965 126.550 140.426  0.00  0.00    +0.000 OA
ATOM      4  C   UNL     1     113.521 128.186 140.458  0.00  0.00    +0.000 C 
ATOM      5  C   UNL     1     114.139 127.688 140.681  0.00  0.00    +0.000 C 
ATOM      6  C   UNL     1     114.347 127.048 140.203  0.00  0.00    +0.000 C 
ATOM      7  C   UNL     1     113.937 126.908 139.501  0.00  0.00    +0.000 C 
ATOM      8  C   UNL     1     113.111 128.045 139.756  0.00  0.00    +0.000 C 
ENDROOT
BRANCH   4   9
ATOM      9  O   UNL     1     113.312 128.825 140.937  0.00  0.00    +0.000 OA
BRANCH   9  14
ATOM     10  O   UNL     1     114.393 129.585 140.391  0.00  0.00    +0.000 OA
ATOM     11  O   UNL     1     112.925 130.086 141.928  0.00  0.00    +0.000 OA
ATOM     12  O   UNL     1     113.812 131.477 141.877  0.00  0.00    +0.000 OA
ATOM     13  O   UNL     1     115.085 131.606 140.837  0.00  0.00    +0.000 OA
ATOM     14  C   UNL     1     113.755 129.520 140.912  0.00  0.00    +0.000 C 
ATOM     15  C   UNL     1     113.562 130.151 141.407  0.00  0.00    +0.000 C 
ATOM     16  C   UNL     1     114.006 130.846 141.382  0.00  0.00    +0.000 C 
ATOM     17  C   UNL     1     114.642 130.911 140.862  0.00  0.00    +0.000 C 
ATOM     18  C   UNL     1     114.836 130.280 140.366  0.00  0.00    +0.000 C 
ENDBRANCH   9  14
ENDBRANCH   4   9
BRANCH   8  19
ATOM     19  O   UNL     1     112.492 128.544 139.533  0.00  0.00    +0.000 OA
BRANCH  19  23
ATOM     20  O   UNL     1     110.652 128.266 138.393  0.00  0.00    +0.000 OA
ATOM     21  O   UNL     1     110.878 126.158 140.356  0.00  0.00    +0.000 OA
ATOM     22  O   UNL     1     108.573 126.233 138.566  0.00  0.00    +0.000 OA
ATOM     23  C   UNL     1     111.778 128.224 139.271  0.00  0.00    +0.000 A 
ATOM     24  C   UNL     1     111.366 128.585 138.655  0.00  0.00    +0.000 A 
ATOM     25  C   UNL     1     111.477 127.543 139.626  0.00  0.00    +0.000 A 
ATOM     26  C   UNL     1     110.763 127.223 139.364  0.00  0.00    +0.000 A 
ATOM     27  C   UNL     1     110.350 127.584 138.747  0.00  0.00    +0.000 A 
ATOM     28  C   UNL     1     110.459 126.512 139.741  0.00  0.00    +0.000 A 
ATOM     29  C   UNL     1     109.606 127.261 138.465  0.00  0.00    +0.000 A 
ATOM     30  C   UNL     1     109.716 126.175 139.472  0.00  0.00    +0.000 A 
ATOM     31  C   UNL     1     109.287 126.551 138.831  0.00  0.00    +0.000 A 
BRANCH  24  34
ATOM     32  O   UNL     1     112.980 129.827 136.650  0.00  0.00    +0.000 OA
ATOM     33  O   UNL     1     112.568 131.313 137.238  0.00  0.00    +0.000 OA
ATOM     34  C   UNL     1     111.667 129.267 138.300  0.00  0.00    +0.000 A 
ATOM     35  C   UNL     1     112.173 129.206 137.652  0.00  0.00    +0.000 A 
ATOM     36  C   UNL     1     111.461 130.010 138.594  0.00  0.00    +0.000 A 
ATOM     37  C   UNL     1     112.474 129.888 137.298  0.00  0.00    +0.000 A 
ATOM     38  C   UNL     1     111.761 130.692 138.240  0.00  0.00    +0.000 A 
ATOM     39  C   UNL     1     112.268 130.631 137.592  0.00  0.00    +0.000 A 
ENDBRANCH  24  34
ENDBRANCH  19  23
ENDBRANCH   8  19
BRANCH   7  40
ATOM     40  C   UNL     1     114.145 126.270 139.022  0.00  0.00    +0.000 C 
BRANCH  40  41
ATOM     41  O   UNL     1     114.028 126.312 138.205  0.00  0.00    +0.000 OA
BRANCH  41  43
ATOM     42  O   UNL     1     114.524 125.074 137.692  0.00  0.00    +0.000 OA
ATOM     43  C   UNL     1     113.912 125.621 137.770  0.00  0.00    +0.000 C 
BRANCH  43  44
ATOM     44  C   UNL     1     113.182 125.478 137.412  0.00  0.00    +0.000 C 
ATOM     45  C   UNL     1     113.031 125.766 136.654  0.00  0.00    +0.000 C 
BRANCH  45  48
ATOM     46  O   UNL     1     110.878 126.637 134.988  0.00  0.00    +0.000 OA
ATOM     47  O   UNL     1     110.113 125.194 135.223  0.00  0.00    +0.000 OA
ATOM     48  C   UNL     1     112.301 125.623 136.296  0.00  0.00    +0.000 A 
ATOM     49  C   UNL     1     111.955 126.202 135.821  0.00  0.00    +0.000 A 
ATOM     50  C   UNL     1     111.918 124.902 136.413  0.00  0.00    +0.000 A 
ATOM     51  C   UNL     1     111.225 126.058 135.463  0.00  0.00    +0.000 A 
ATOM     52  C   UNL     1     111.190 124.759 136.056  0.00  0.00    +0.000 A 
ATOM     53  C   UNL     1     110.842 125.337 135.580  0.00  0.00    +0.000 A 
ENDBRANCH  45  48
ENDBRANCH  43  44
ENDBRANCH  41  43
ENDBRANCH  40  41
ENDBRANCH   7  40
TORSDOF 10
ENDMDL
MODEL 5
REMARK VINA RESULT:     -10.2      1.574      4.007
REMARK  Name = 44256747
REMARK  10 active torsions:
REMARK  status: ('A' for Active; 'I' for Inactive)
REMARK    1  A    between atoms: O_1  and  C_19
REMARK    2  A    between atoms: O_1  and  C_24
REMARK    3  A    between atoms: O_5  and  C_23
REMARK    4  A    between atoms: O_5  and  C_30
REMARK    5  A    between atoms: O_9  and  C_28
REMARK    6  A    between atoms: O_9  and  C_33
REMARK    7  A    between atoms: C_22  and  C_28
REMARK    8  A    between atoms: C_31  and  C_35
REMARK    9  A    between atoms: C_33  and  C_38
REMARK   10  A    between atoms: C_46  and  C_48
REMARK                            x       y       z     vdW  Elec       q    Type
REMARK                         _______ _______ _______ _____ _____    ______ ____
ROOT
ATOM      1  O   UNL     1     112.155 128.972 138.776  0.00  0.00    +0.000 OA
ATOM      2  O   UNL     1     111.774 131.005 140.135  0.00  0.00    +0.000 OA
ATOM      3  O   UNL     1     112.570 129.715 140.786  0.00  0.00    +0.000 OA
ATOM      4  C   UNL     1     111.630 130.295 138.904  0.00  0.00    +0.000 C 
ATOM      5  C   UNL     1     111.901 130.327 139.682  0.00  0.00    +0.000 C 
ATOM      6  C   UNL     1     112.299 129.682 140.008  0.00  0.00    +0.000 C 
ATOM      7  C   UNL     1     112.426 129.005 139.555  0.00  0.00    +0.000 C 
ATOM      8  C   UNL     1     111.757 129.617 138.451  0.00  0.00    +0.000 C 
ENDROOT
BRANCH   4   9
ATOM      9  O   UNL     1     111.231 130.940 138.578  0.00  0.00    +0.000 OA
BRANCH   9  14
ATOM     10  O   UNL     1     110.014 130.491 139.179  0.00  0.00    +0.000 OA
ATOM     11  O   UNL     1     110.446 132.258 137.972  0.00  0.00    +0.000 OA
ATOM     12  O   UNL     1     108.837 132.469 138.270  0.00  0.00    +0.000 OA
ATOM     13  O   UNL     1     108.013 131.362 139.174  0.00  0.00    +0.000 OA
ATOM     14  C   UNL     1     110.427 131.045 138.727  0.00  0.00    +0.000 C 
ATOM     15  C   UNL     1     110.034 131.704 138.424  0.00  0.00    +0.000 C 
ATOM     16  C   UNL     1     109.229 131.810 138.573  0.00  0.00    +0.000 C 
ATOM     17  C   UNL     1     108.818 131.256 139.025  0.00  0.00    +0.000 C 
ATOM     18  C   UNL     1     109.210 130.597 139.328  0.00  0.00    +0.000 C 
ENDBRANCH   9  14
ENDBRANCH   4   9
BRANCH   8  19
ATOM     19  O   UNL     1     111.485 129.584 137.672  0.00  0.00    +0.000 OA
BRANCH  19  23
ATOM     20  O   UNL     1     112.240 128.668 135.842  0.00  0.00    +0.000 OA
ATOM     21  O   UNL     1     114.375 130.141 137.113  0.00  0.00    +0.000 OA
ATOM     22  O   UNL     1     114.880 128.723 134.612  0.00  0.00    +0.000 OA
ATOM     23  C   UNL     1     111.999 129.363 137.065  0.00  0.00    +0.000 A 
ATOM     24  C   UNL     1     111.727 128.889 136.448  0.00  0.00    +0.000 A 
ATOM     25  C   UNL     1     112.784 129.617 137.077  0.00  0.00    +0.000 A 
ATOM     26  C   UNL     1     113.297 129.396 136.470  0.00  0.00    +0.000 A 
ATOM     27  C   UNL     1     113.025 128.921 135.852  0.00  0.00    +0.000 A 
ATOM     28  C   UNL     1     114.113 129.667 136.492  0.00  0.00    +0.000 A 
ATOM     29  C   UNL     1     113.550 128.684 135.214  0.00  0.00    +0.000 A 
ATOM     30  C   UNL     1     114.652 129.440 135.863  0.00  0.00    +0.000 A 
ATOM     31  C   UNL     1     114.369 128.946 135.220  0.00  0.00    +0.000 A 
BRANCH  24  34
ATOM     32  O   UNL     1     109.007 129.283 135.663  0.00  0.00    +0.000 OA
ATOM     33  O   UNL     1     108.588 127.870 136.404  0.00  0.00    +0.000 OA
ATOM     34  C   UNL     1     110.942 128.634 136.437  0.00  0.00    +0.000 A 
ATOM     35  C   UNL     1     110.367 129.086 136.056  0.00  0.00    +0.000 A 
ATOM     36  C   UNL     1     110.733 127.928 136.807  0.00  0.00    +0.000 A 
ATOM     37  C   UNL     1     109.582 128.832 136.044  0.00  0.00    +0.000 A 
ATOM     38  C   UNL     1     109.948 127.672 136.797  0.00  0.00    +0.000 A 
ATOM     39  C   UNL     1     109.373 128.125 136.415  0.00  0.00    +0.000 A 
ENDBRANCH  24  34
ENDBRANCH  19  23
ENDBRANCH   8  19
BRANCH   7  40
ATOM     40  C   UNL     1     112.824 128.359 139.880  0.00  0.00    +0.000 C 
BRANCH  40  41
ATOM     41  O   UNL     1     112.617 127.592 139.657  0.00  0.00    +0.000 OA
BRANCH  41  43
ATOM     42  O   UNL     1     113.444 126.700 140.407  0.00  0.00    +0.000 OA
ATOM     43  C   UNL     1     113.180 126.990 139.681  0.00  0.00    +0.000 C 
BRANCH  43  44
ATOM     44  C   UNL     1     113.480 126.678 138.978  0.00  0.00    +0.000 C 
ATOM     45  C   UNL     1     113.178 125.970 138.680  0.00  0.00    +0.000 C 
BRANCH  45  48
ATOM     46  O   UNL     1     112.774 124.551 136.232  0.00  0.00    +0.000 OA
ATOM     47  O   UNL     1     114.375 124.721 135.869  0.00  0.00    +0.000 OA
ATOM     48  C   UNL     1     113.477 125.658 137.976  0.00  0.00    +0.000 A 
ATOM     49  C   UNL     1     112.976 125.261 137.456  0.00  0.00    +0.000 A 
ATOM     50  C   UNL     1     114.278 125.743 137.795  0.00  0.00    +0.000 A 
ATOM     51  C   UNL     1     113.276 124.948 136.753  0.00  0.00    +0.000 A 
ATOM     52  C   UNL     1     114.576 125.431 137.093  0.00  0.00    +0.000 A 
ATOM     53  C   UNL     1     114.076 125.033 136.571  0.00  0.00    +0.000 A 
ENDBRANCH  45  48
ENDBRANCH  43  44
ENDBRANCH  41  43
ENDBRANCH  40  41
ENDBRANCH   7  40
TORSDOF 10
ENDMDL
MODEL 6
REMARK VINA RESULT:     -10.2      1.690      3.695
REMARK  Name = 44256747
REMARK  10 active torsions:
REMARK  status: ('A' for Active; 'I' for Inactive)
REMARK    1  A    between atoms: O_1  and  C_19
REMARK    2  A    between atoms: O_1  and  C_24
REMARK    3  A    between atoms: O_5  and  C_23
REMARK    4  A    between atoms: O_5  and  C_30
REMARK    5  A    between atoms: O_9  and  C_28
REMARK    6  A    between atoms: O_9  and  C_33
REMARK    7  A    between atoms: C_22  and  C_28
REMARK    8  A    between atoms: C_31  and  C_35
REMARK    9  A    between atoms: C_33  and  C_38
REMARK   10  A    between atoms: C_46  and  C_48
REMARK                            x       y       z     vdW  Elec       q    Type
REMARK                         _______ _______ _______ _____ _____    ______ ____
ROOT
ATOM      1  O   UNL     1     111.358 128.784 136.991  0.00  0.00    +0.000 OA
ATOM      2  O   UNL     1     110.714 129.600 134.745  0.00  0.00    +0.000 OA
ATOM      3  O   UNL     1     111.358 128.092 134.921  0.00  0.00    +0.000 OA
ATOM      4  C   UNL     1     110.821 129.811 136.154  0.00  0.00    +0.000 C 
ATOM      5  C   UNL     1     110.929 129.328 135.494  0.00  0.00    +0.000 C 
ATOM      6  C   UNL     1     111.251 128.574 135.581  0.00  0.00    +0.000 C 
ATOM      7  C   UNL     1     111.466 128.302 136.330  0.00  0.00    +0.000 C 
ATOM      8  C   UNL     1     111.036 129.539 136.903  0.00  0.00    +0.000 C 
ENDROOT
BRANCH   4   9
ATOM      9  O   UNL     1     110.499 130.565 136.067  0.00  0.00    +0.000 OA
BRANCH   9  14
ATOM     10  O   UNL     1     109.185 130.003 136.066  0.00  0.00    +0.000 OA
ATOM     11  O   UNL     1     109.856 132.068 135.842  0.00  0.00    +0.000 OA
ATOM     12  O   UNL     1     108.221 132.258 135.730  0.00  0.00    +0.000 OA
ATOM     13  O   UNL     1     107.229 130.944 135.842  0.00  0.00    +0.000 OA
ATOM     14  C   UNL     1     109.682 130.660 136.010  0.00  0.00    +0.000 C 
ATOM     15  C   UNL     1     109.360 131.411 135.898  0.00  0.00    +0.000 C 
ATOM     16  C   UNL     1     108.542 131.506 135.842  0.00  0.00    +0.000 C 
ATOM     17  C   UNL     1     108.046 130.849 135.898  0.00  0.00    +0.000 C 
ATOM     18  C   UNL     1     108.367 130.097 136.010  0.00  0.00    +0.000 C 
ENDBRANCH   9  14
ENDBRANCH   4   9
BRANCH   8  19
ATOM     19  O   UNL     1     110.929 130.021 137.564  0.00  0.00    +0.000 OA
BRANCH  19  23
ATOM     20  O   UNL     1     111.993 130.254 139.454  0.00  0.00    +0.000 OA
ATOM     21  O   UNL     1     113.895 130.328 137.281  0.00  0.00    +0.000 OA
ATOM     22  O   UNL     1     114.826 130.599 140.035  0.00  0.00    +0.000 OA
ATOM     23  C   UNL     1     111.543 130.122 138.106  0.00  0.00    +0.000 A 
ATOM     24  C   UNL     1     111.379 130.153 138.913  0.00  0.00    +0.000 A 
ATOM     25  C   UNL     1     112.321 130.190 137.839  0.00  0.00    +0.000 A 
ATOM     26  C   UNL     1     112.935 130.291 138.380  0.00  0.00    +0.000 A 
ATOM     27  C   UNL     1     112.771 130.322 139.189  0.00  0.00    +0.000 A 
ATOM     28  C   UNL     1     113.742 130.361 138.091  0.00  0.00    +0.000 A 
ATOM     29  C   UNL     1     113.402 130.427 139.763  0.00  0.00    +0.000 A 
ATOM     30  C   UNL     1     114.385 130.466 138.650  0.00  0.00    +0.000 A 
ATOM     31  C   UNL     1     114.214 130.499 139.491  0.00  0.00    +0.000 A 
BRANCH  24  34
ATOM     32  O   UNL     1     108.885 131.362 139.611  0.00  0.00    +0.000 OA
ATOM     33  O   UNL     1     108.269 129.877 139.981  0.00  0.00    +0.000 OA
ATOM     34  C   UNL     1     110.601 130.085 139.180  0.00  0.00    +0.000 A 
ATOM     35  C   UNL     1     110.132 130.758 139.262  0.00  0.00    +0.000 A 
ATOM     36  C   UNL     1     110.293 129.342 139.365  0.00  0.00    +0.000 A 
ATOM     37  C   UNL     1     109.354 130.689 139.529  0.00  0.00    +0.000 A 
ATOM     38  C   UNL     1     109.516 129.272 139.632  0.00  0.00    +0.000 A 
ATOM     39  C   UNL     1     109.046 129.947 139.714  0.00  0.00    +0.000 A 
ENDBRANCH  24  34
ENDBRANCH  19  23
ENDBRANCH   8  19
BRANCH   7  40
ATOM     40  C   UNL     1     111.788 127.548 136.419  0.00  0.00    +0.000 C 
BRANCH  40  41
ATOM     41  O   UNL     1     111.657 127.123 137.114  0.00  0.00    +0.000 OA
BRANCH  41  43
ATOM     42  O   UNL     1     112.221 125.816 136.984  0.00  0.00    +0.000 OA
ATOM     43  C   UNL     1     112.201 126.552 137.357  0.00  0.00    +0.000 C 
BRANCH  43  44
ATOM     44  C   UNL     1     112.725 126.717 137.973  0.00  0.00    +0.000 C 
ATOM     45  C   UNL     1     112.573 126.431 138.731  0.00  0.00    +0.000 C 
BRANCH  45  48
ATOM     46  O   UNL     1     113.041 127.176 141.450  0.00  0.00    +0.000 OA
ATOM     47  O   UNL     1     114.668 127.092 141.193  0.00  0.00    +0.000 OA
ATOM     48  C   UNL     1     113.097 126.597 139.347  0.00  0.00    +0.000 A 
ATOM     49  C   UNL     1     112.807 126.804 140.091  0.00  0.00    +0.000 A 
ATOM     50  C   UNL     1     113.911 126.554 139.219  0.00  0.00    +0.000 A 
ATOM     51  C   UNL     1     113.331 126.969 140.707  0.00  0.00    +0.000 A 
ATOM     52  C   UNL     1     114.434 126.719 139.834  0.00  0.00    +0.000 A 
ATOM     53  C   UNL     1     114.145 126.927 140.578  0.00  0.00    +0.000 A 
ENDBRANCH  45  48
ENDBRANCH  43  44
ENDBRANCH  41  43
ENDBRANCH  40  41
ENDBRANCH   7  40
TORSDOF 10
ENDMDL
MODEL 7
REMARK VINA RESULT:     -10.1      1.371      2.810
REMARK  Name = 44256747
REMARK  10 active torsions:
REMARK  status: ('A' for Active; 'I' for Inactive)
REMARK    1  A    between atoms: O_1  and  C_19
REMARK    2  A    between atoms: O_1  and  C_24
REMARK    3  A    between atoms: O_5  and  C_23
REMARK    4  A    between atoms: O_5  and  C_30
REMARK    5  A    between atoms: O_9  and  C_28
REMARK    6  A    between atoms: O_9  and  C_33
REMARK    7  A    between atoms: C_22  and  C_28
REMARK    8  A    between atoms: C_31  and  C_35
REMARK    9  A    between atoms: C_33  and  C_38
REMARK   10  A    between atoms: C_46  and  C_48
REMARK                            x       y       z     vdW  Elec       q    Type
REMARK                         _______ _______ _______ _____ _____    ______ ____
ROOT
ATOM      1  O   UNL     1     110.459 128.474 136.996  0.00  0.00    +0.000 OA
ATOM      2  O   UNL     1     108.772 130.284 136.915  0.00  0.00    +0.000 OA
ATOM      3  O   UNL     1     108.424 128.803 136.277  0.00  0.00    +0.000 OA
ATOM      4  C   UNL     1     110.070 129.818 137.287  0.00  0.00    +0.000 C 
ATOM      5  C   UNL     1     109.334 129.681 136.942  0.00  0.00    +0.000 C 
ATOM      6  C   UNL     1     109.159 128.940 136.623  0.00  0.00    +0.000 C 
ATOM      7  C   UNL     1     109.722 128.337 136.650  0.00  0.00    +0.000 C 
ATOM      8  C   UNL     1     110.632 129.215 137.314  0.00  0.00    +0.000 C 
ENDROOT
BRANCH   4   9
ATOM      9  O   UNL     1     110.245 130.559 137.606  0.00  0.00    +0.000 OA
BRANCH   9  14
ATOM     10  O   UNL     1     109.568 130.199 138.812  0.00  0.00    +0.000 OA
ATOM     11  O   UNL     1     110.651 132.015 138.269  0.00  0.00    +0.000 OA
ATOM     12  O   UNL     1     110.177 132.383 139.806  0.00  0.00    +0.000 OA
ATOM     13  O   UNL     1     109.297 131.295 140.680  0.00  0.00    +0.000 OA
ATOM     14  C   UNL     1     110.008 130.743 138.375  0.00  0.00    +0.000 C 
ATOM     15  C   UNL     1     110.211 131.471 138.706  0.00  0.00    +0.000 C 
ATOM     16  C   UNL     1     109.974 131.654 139.475  0.00  0.00    +0.000 C 
ATOM     17  C   UNL     1     109.534 131.111 139.912  0.00  0.00    +0.000 C 
ATOM     18  C   UNL     1     109.331 130.383 139.581  0.00  0.00    +0.000 C 
ENDBRANCH   9  14
ENDBRANCH   4   9
BRANCH   8  19
ATOM     19  O   UNL     1     111.369 129.352 137.661  0.00  0.00    +0.000 OA
BRANCH  19  23
ATOM     20  O   UNL     1     113.406 128.720 137.199  0.00  0.00    +0.000 OA
ATOM     21  O   UNL     1     112.145 129.687 134.786  0.00  0.00    +0.000 OA
ATOM     22  O   UNL     1     114.898 128.718 134.698  0.00  0.00    +0.000 OA
ATOM     23  C   UNL     1     112.060 129.195 137.237  0.00  0.00    +0.000 A 
ATOM     24  C   UNL     1     112.716 128.877 137.623  0.00  0.00    +0.000 A 
ATOM     25  C   UNL     1     112.093 129.355 136.429  0.00  0.00    +0.000 A 
ATOM     26  C   UNL     1     112.783 129.198 136.005  0.00  0.00    +0.000 A 
ATOM     27  C   UNL     1     113.440 128.880 136.391  0.00  0.00    +0.000 A 
ATOM     28  C   UNL     1     112.806 129.369 135.163  0.00  0.00    +0.000 A 
ATOM     29  C   UNL     1     114.165 128.712 135.961  0.00  0.00    +0.000 A 
ATOM     30  C   UNL     1     113.523 129.207 134.717  0.00  0.00    +0.000 A 
ATOM     31  C   UNL     1     114.206 128.876 135.119  0.00  0.00    +0.000 A 
BRANCH  24  34
ATOM     32  O   UNL     1     113.088 129.713 140.330  0.00  0.00    +0.000 OA
ATOM     33  O   UNL     1     112.582 128.233 140.856  0.00  0.00    +0.000 OA
ATOM     34  C   UNL     1     112.682 128.717 138.431  0.00  0.00    +0.000 A 
ATOM     35  C   UNL     1     112.902 129.295 138.976  0.00  0.00    +0.000 A 
ATOM     36  C   UNL     1     112.429 127.977 138.694  0.00  0.00    +0.000 A 
ATOM     37  C   UNL     1     112.869 129.135 139.785  0.00  0.00    +0.000 A 
ATOM     38  C   UNL     1     112.396 127.816 139.503  0.00  0.00    +0.000 A 
ATOM     39  C   UNL     1     112.616 128.395 140.048  0.00  0.00    +0.000 A 
ENDBRANCH  24  34
ENDBRANCH  19  23
ENDBRANCH   8  19
BRANCH   7  40
ATOM     40  C   UNL     1     109.548 127.596 136.331  0.00  0.00    +0.000 C 
BRANCH  40  41
ATOM     41  O   UNL     1     110.108 127.206 135.866  0.00  0.00    +0.000 OA
BRANCH  41  43
ATOM     42  O   UNL     1     109.504 126.002 135.388  0.00  0.00    +0.000 OA
ATOM     43  C   UNL     1     110.099 126.383 135.815  0.00  0.00    +0.000 C 
BRANCH  43  44
ATOM     44  C   UNL     1     110.685 125.940 136.191  0.00  0.00    +0.000 C 
ATOM     45  C   UNL     1     111.206 125.483 135.744  0.00  0.00    +0.000 C 
BRANCH  45  48
ATOM     46  O   UNL     1     112.042 123.078 137.042  0.00  0.00    +0.000 OA
ATOM     47  O   UNL     1     113.551 123.712 137.247  0.00  0.00    +0.000 OA
ATOM     48  C   UNL     1     111.793 125.040 136.120  0.00  0.00    +0.000 A 
ATOM     49  C   UNL     1     111.624 124.280 136.393  0.00  0.00    +0.000 A 
ATOM     50  C   UNL     1     112.548 125.357 136.222  0.00  0.00    +0.000 A 
ATOM     51  C   UNL     1     112.211 123.837 136.769  0.00  0.00    +0.000 A 
ATOM     52  C   UNL     1     113.133 124.915 136.598  0.00  0.00    +0.000 A 
ATOM     53  C   UNL     1     112.965 124.155 136.871  0.00  0.00    +0.000 A 
ENDBRANCH  45  48
ENDBRANCH  43  44
ENDBRANCH  41  43
ENDBRANCH  40  41
ENDBRANCH   7  40
TORSDOF 10
ENDMDL
MODEL 8
REMARK VINA RESULT:     -10.1      1.724      4.054
REMARK  Name = 44256747
REMARK  10 active torsions:
REMARK  status: ('A' for Active; 'I' for Inactive)
REMARK    1  A    between atoms: O_1  and  C_19
REMARK    2  A    between atoms: O_1  and  C_24
REMARK    3  A    between atoms: O_5  and  C_23
REMARK    4  A    between atoms: O_5  and  C_30
REMARK    5  A    between atoms: O_9  and  C_28
REMARK    6  A    between atoms: O_9  and  C_33
REMARK    7  A    between atoms: C_22  and  C_28
REMARK    8  A    between atoms: C_31  and  C_35
REMARK    9  A    between atoms: C_33  and  C_38
REMARK   10  A    between atoms: C_46  and  C_48
REMARK                            x       y       z     vdW  Elec       q    Type
REMARK                         _______ _______ _______ _____ _____    ______ ____
ROOT
ATOM      1  O   UNL     1     110.884 130.286 137.791  0.00  0.00    +0.000 OA
ATOM      2  O   UNL     1     109.997 132.591 137.621  0.00  0.00    +0.000 OA
ATOM      3  O   UNL     1     110.602 132.043 139.055  0.00  0.00    +0.000 OA
ATOM      4  C   UNL     1     110.286 131.329 137.018  0.00  0.00    +0.000 C 
ATOM      5  C   UNL     1     110.292 131.822 137.678  0.00  0.00    +0.000 C 
ATOM      6  C   UNL     1     110.595 131.549 138.395  0.00  0.00    +0.000 C 
ATOM      7  C   UNL     1     110.890 130.781 138.452  0.00  0.00    +0.000 C 
ATOM      8  C   UNL     1     110.581 130.560 137.075  0.00  0.00    +0.000 C 
ENDROOT
BRANCH   4   9
ATOM      9  O   UNL     1     109.983 131.602 136.300  0.00  0.00    +0.000 OA
BRANCH   9  14
ATOM     10  O   UNL     1     108.657 131.319 136.753  0.00  0.00    +0.000 OA
ATOM     11  O   UNL     1     109.376 132.166 134.873  0.00  0.00    +0.000 OA
ATOM     12  O   UNL     1     107.747 132.165 134.612  0.00  0.00    +0.000 OA
ATOM     13  O   UNL     1     106.725 131.600 135.778  0.00  0.00    +0.000 OA
ATOM     14  C   UNL     1     109.169 131.601 136.170  0.00  0.00    +0.000 C 
ATOM     15  C   UNL     1     108.865 131.883 135.457  0.00  0.00    +0.000 C 
ATOM     16  C   UNL     1     108.050 131.883 135.326  0.00  0.00    +0.000 C 
ATOM     17  C   UNL     1     107.539 131.601 135.909  0.00  0.00    +0.000 C 
ATOM     18  C   UNL     1     107.842 131.319 136.622  0.00  0.00    +0.000 C 
ENDBRANCH   9  14
ENDBRANCH   4   9
BRANCH   8  19
ATOM     19  O   UNL     1     110.575 130.065 136.414  0.00  0.00    +0.000 OA
BRANCH  19  23
ATOM     20  O   UNL     1     111.849 128.410 135.785  0.00  0.00    +0.000 OA
ATOM     21  O   UNL     1     113.497 130.718 136.335  0.00  0.00    +0.000 OA
ATOM     22  O   UNL     1     114.737 128.226 135.454  0.00  0.00    +0.000 OA
ATOM     23  C   UNL     1     111.248 129.631 136.217  0.00  0.00    +0.000 A 
ATOM     24  C   UNL     1     111.176 128.844 135.983  0.00  0.00    +0.000 A 
ATOM     25  C   UNL     1     111.992 129.985 136.254  0.00  0.00    +0.000 A 
ATOM     26  C   UNL     1     112.665 129.551 136.057  0.00  0.00    +0.000 A 
ATOM     27  C   UNL     1     112.594 128.762 135.823  0.00  0.00    +0.000 A 
ATOM     28  C   UNL     1     113.436 129.930 136.100  0.00  0.00    +0.000 A 
ATOM     29  C   UNL     1     113.287 128.300 135.615  0.00  0.00    +0.000 A 
ATOM     30  C   UNL     1     114.140 129.483 135.896  0.00  0.00    +0.000 A 
ATOM     31  C   UNL     1     114.066 128.662 135.652  0.00  0.00    +0.000 A 
BRANCH  24  34
ATOM     32  O   UNL     1     109.088 127.333 137.217  0.00  0.00    +0.000 OA
ATOM     33  O   UNL     1     108.199 127.429 135.830  0.00  0.00    +0.000 OA
ATOM     34  C   UNL     1     110.432 128.490 135.945  0.00  0.00    +0.000 A 
ATOM     35  C   UNL     1     110.132 128.089 136.600  0.00  0.00    +0.000 A 
ATOM     36  C   UNL     1     109.987 128.537 135.252  0.00  0.00    +0.000 A 
ATOM     37  C   UNL     1     109.387 127.734 136.562  0.00  0.00    +0.000 A 
ATOM     38  C   UNL     1     109.243 128.184 135.213  0.00  0.00    +0.000 A 
ATOM     39  C   UNL     1     108.943 127.782 135.869  0.00  0.00    +0.000 A 
ENDBRANCH  24  34
ENDBRANCH  19  23
ENDBRANCH   8  19
BRANCH   7  40
ATOM     40  C   UNL     1     111.193 130.507 139.169  0.00  0.00    +0.000 C 
BRANCH  40  41
ATOM     41  O   UNL     1     111.032 129.736 139.416  0.00  0.00    +0.000 OA
BRANCH  41  43
ATOM     42  O   UNL     1     111.548 129.502 140.728  0.00  0.00    +0.000 OA
ATOM     43  C   UNL     1     111.558 129.346 139.918  0.00  0.00    +0.000 C 
BRANCH  43  44
ATOM     44  C   UNL     1     112.095 128.800 139.610  0.00  0.00    +0.000 C 
ATOM     45  C   UNL     1     112.002 127.996 139.768  0.00  0.00    +0.000 C 
BRANCH  45  48
ATOM     46  O   UNL     1     112.547 125.704 138.150  0.00  0.00    +0.000 OA
ATOM     47  O   UNL     1     114.148 125.814 138.534  0.00  0.00    +0.000 OA
ATOM     48  C   UNL     1     112.539 127.450 139.460  0.00  0.00    +0.000 A 
ATOM     49  C   UNL     1     112.274 126.850 138.959  0.00  0.00    +0.000 A 
ATOM     50  C   UNL     1     113.339 127.505 139.652  0.00  0.00    +0.000 A 
ATOM     51  C   UNL     1     112.811 126.304 138.651  0.00  0.00    +0.000 A 
ATOM     52  C   UNL     1     113.875 126.960 139.344  0.00  0.00    +0.000 A 
ATOM     53  C   UNL     1     113.612 126.359 138.843  0.00  0.00    +0.000 A 
ENDBRANCH  45  48
ENDBRANCH  43  44
ENDBRANCH  41  43
ENDBRANCH  40  41
ENDBRANCH   7  40
TORSDOF 10
ENDMDL
MODEL 9
REMARK VINA RESULT:     -10.1      2.541      4.693
REMARK  Name = 44256747
REMARK  10 active torsions:
REMARK  status: ('A' for Active; 'I' for Inactive)
REMARK    1  A    between atoms: O_1  and  C_19
REMARK    2  A    between atoms: O_1  and  C_24
REMARK    3  A    between atoms: O_5  and  C_23
REMARK    4  A    between atoms: O_5  and  C_30
REMARK    5  A    between atoms: O_9  and  C_28
REMARK    6  A    between atoms: O_9  and  C_33
REMARK    7  A    between atoms: C_22  and  C_28
REMARK    8  A    between atoms: C_31  and  C_35
REMARK    9  A    between atoms: C_33  and  C_38
REMARK   10  A    between atoms: C_46  and  C_48
REMARK                            x       y       z     vdW  Elec       q    Type
REMARK                         _______ _______ _______ _____ _____    ______ ____
ROOT
ATOM      1  O   UNL     1     111.089 127.146 137.677  0.00  0.00    +0.000 OA
ATOM      2  O   UNL     1     108.800 126.346 138.175  0.00  0.00    +0.000 OA
ATOM      3  O   UNL     1     109.097 127.182 136.784  0.00  0.00    +0.000 OA
ATOM      4  C   UNL     1     110.177 126.461 138.538  0.00  0.00    +0.000 C 
ATOM      5  C   UNL     1     109.563 126.612 138.009  0.00  0.00    +0.000 C 
ATOM      6  C   UNL     1     109.711 127.030 137.313  0.00  0.00    +0.000 C 
ATOM      7  C   UNL     1     110.474 127.297 137.147  0.00  0.00    +0.000 C 
ATOM      8  C   UNL     1     110.940 126.728 138.372  0.00  0.00    +0.000 C 
ENDROOT
BRANCH   4   9
ATOM      9  O   UNL     1     110.029 126.043 139.234  0.00  0.00    +0.000 OA
BRANCH   9  14
ATOM     10  O   UNL     1     109.582 127.245 139.865  0.00  0.00    +0.000 OA
ATOM     11  O   UNL     1     109.585 125.178 140.568  0.00  0.00    +0.000 OA
ATOM     12  O   UNL     1     108.916 125.948 141.865  0.00  0.00    +0.000 OA
ATOM     13  O   UNL     1     108.691 127.582 141.828  0.00  0.00    +0.000 OA
ATOM     14  C   UNL     1     109.695 126.428 139.883  0.00  0.00    +0.000 C 
ATOM     15  C   UNL     1     109.472 125.996 140.550  0.00  0.00    +0.000 C 
ATOM     16  C   UNL     1     109.138 126.381 141.198  0.00  0.00    +0.000 C 
ATOM     17  C   UNL     1     109.025 127.197 141.180  0.00  0.00    +0.000 C 
ATOM     18  C   UNL     1     109.247 127.630 140.513  0.00  0.00    +0.000 C 
ENDBRANCH   9  14
ENDBRANCH   4   9
BRANCH   8  19
ATOM     19  O   UNL     1     111.555 126.576 138.902  0.00  0.00    +0.000 OA
BRANCH  19  23
ATOM     20  O   UNL     1     113.701 126.256 138.673  0.00  0.00    +0.000 OA
ATOM     21  O   UNL     1     112.286 124.561 136.810  0.00  0.00    +0.000 OA
ATOM     22  O   UNL     1     115.204 124.504 136.898  0.00  0.00    +0.000 OA
ATOM     23  C   UNL     1     112.274 126.281 138.626  0.00  0.00    +0.000 A 
ATOM     24  C   UNL     1     112.982 126.552 138.949  0.00  0.00    +0.000 A 
ATOM     25  C   UNL     1     112.283 125.713 138.027  0.00  0.00    +0.000 A 
ATOM     26  C   UNL     1     113.002 125.417 137.751  0.00  0.00    +0.000 A 
ATOM     27  C   UNL     1     113.712 125.689 138.074  0.00  0.00    +0.000 A 
ATOM     28  C   UNL     1     113.000 124.826 137.127  0.00  0.00    +0.000 A 
ATOM     29  C   UNL     1     114.467 125.389 137.795  0.00  0.00    +0.000 A 
ATOM     30  C   UNL     1     113.746 124.515 136.835  0.00  0.00    +0.000 A 
ATOM     31  C   UNL     1     114.483 124.798 137.172  0.00  0.00    +0.000 A 
BRANCH  24  34
ATOM     32  O   UNL     1     112.866 127.221 141.725  0.00  0.00    +0.000 OA
ATOM     33  O   UNL     1     112.945 128.824 141.342  0.00  0.00    +0.000 OA
ATOM     34  C   UNL     1     112.973 127.120 139.548  0.00  0.00    +0.000 A 
ATOM     35  C   UNL     1     112.924 126.887 140.337  0.00  0.00    +0.000 A 
ATOM     36  C   UNL     1     113.012 127.921 139.356  0.00  0.00    +0.000 A 
ATOM     37  C   UNL     1     112.915 127.454 140.936  0.00  0.00    +0.000 A 
ATOM     38  C   UNL     1     113.003 128.490 139.954  0.00  0.00    +0.000 A 
ATOM     39  C   UNL     1     112.954 128.256 140.744  0.00  0.00    +0.000 A 
ENDBRANCH  24  34
ENDBRANCH  19  23
ENDBRANCH   8  19
BRANCH   7  40
ATOM     40  C   UNL     1     110.623 127.715 136.452  0.00  0.00    +0.000 C 
BRANCH  40  41
ATOM     41  O   UNL     1     111.244 128.258 136.423  0.00  0.00    +0.000 OA
BRANCH  41  43
ATOM     42  O   UNL     1     111.328 128.086 135.007  0.00  0.00    +0.000 OA
ATOM     43  C   UNL     1     111.607 128.431 135.702  0.00  0.00    +0.000 C 
BRANCH  43  44
ATOM     44  C   UNL     1     112.249 128.950 135.678  0.00  0.00    +0.000 C 
ATOM     45  C   UNL     1     113.018 128.652 135.675  0.00  0.00    +0.000 C 
BRANCH  45  48
ATOM     46  O   UNL     1     114.680 130.596 136.951  0.00  0.00    +0.000 OA
ATOM     47  O   UNL     1     115.584 130.726 135.577  0.00  0.00    +0.000 OA
ATOM     48  C   UNL     1     113.660 129.171 135.650  0.00  0.00    +0.000 A 
ATOM     49  C   UNL     1     113.849 129.624 136.313  0.00  0.00    +0.000 A 
ATOM     50  C   UNL     1     114.112 129.236 134.963  0.00  0.00    +0.000 A 
ATOM     51  C   UNL     1     114.491 130.143 136.288  0.00  0.00    +0.000 A 
ATOM     52  C   UNL     1     114.753 129.754 134.939  0.00  0.00    +0.000 A 
ATOM     53  C   UNL     1     114.943 130.208 135.601  0.00  0.00    +0.000 A 
ENDBRANCH  45  48
ENDBRANCH  43  44
ENDBRANCH  41  43
ENDBRANCH  40  41
ENDBRANCH   7  40
TORSDOF 10
ENDMDL
MODEL 10
REMARK VINA RESULT:     -10.0      1.443      5.135
REMARK  Name = 44256747
REMARK  10 active torsions:
REMARK  status: ('A' for Active; 'I' for Inactive)
REMARK    1  A    between atoms: O_1  and  C_19
REMARK    2  A    between atoms: O_1  and  C_24
REMARK    3  A    between atoms: O_5  and  C_23
REMARK    4  A    between atoms: O_5  and  C_30
REMARK    5  A    between atoms: O_9  and  C_28
REMARK    6  A    between atoms: O_9  and  C_33
REMARK    7  A    between atoms: C_22  and  C_28
REMARK    8  A    between atoms: C_31  and  C_35
REMARK    9  A    between atoms: C_33  and  C_38
REMARK   10  A    between atoms: C_46  and  C_48
REMARK                            x       y       z     vdW  Elec       q    Type
REMARK                         _______ _______ _______ _____ _____    ______ ____
ROOT
ATOM      1  O   UNL     1     110.187 128.225 136.606  0.00  0.00    +0.000 OA
ATOM      2  O   UNL     1     109.005 126.079 136.957  0.00  0.00    +0.000 OA
ATOM      3  O   UNL     1     108.284 127.286 136.093  0.00  0.00    +0.000 OA
ATOM      4  C   UNL     1     110.152 126.906 137.155  0.00  0.00    +0.000 C 
ATOM      5  C   UNL     1     109.399 126.794 136.840  0.00  0.00    +0.000 C 
ATOM      6  C   UNL     1     109.038 127.397 136.408  0.00  0.00    +0.000 C 
ATOM      7  C   UNL     1     109.432 128.113 136.291  0.00  0.00    +0.000 C 
ATOM      8  C   UNL     1     110.546 127.621 137.038  0.00  0.00    +0.000 C 
ENDROOT
BRANCH   4   9
ATOM      9  O   UNL     1     110.513 126.302 137.587  0.00  0.00    +0.000 OA
BRANCH   9  14
ATOM     10  O   UNL     1     110.946 125.688 136.371  0.00  0.00    +0.000 OA
ATOM     11  O   UNL     1     111.100 125.021 138.445  0.00  0.00    +0.000 OA
ATOM     12  O   UNL     1     111.827 123.765 137.658  0.00  0.00    +0.000 OA
ATOM     13  O   UNL     1     111.966 123.791 136.014  0.00  0.00    +0.000 OA
ATOM     14  C   UNL     1     110.877 125.675 137.194  0.00  0.00    +0.000 C 
ATOM     15  C   UNL     1     111.170 125.034 137.622  0.00  0.00    +0.000 C 
ATOM     16  C   UNL     1     111.534 124.406 137.229  0.00  0.00    +0.000 C 
ATOM     17  C   UNL     1     111.603 124.419 136.407  0.00  0.00    +0.000 C 
ATOM     18  C   UNL     1     111.310 125.060 135.978  0.00  0.00    +0.000 C 
ENDBRANCH   9  14
ENDBRANCH   4   9
BRANCH   8  19
ATOM     19  O   UNL     1     111.301 127.733 137.353  0.00  0.00    +0.000 OA
BRANCH  19  23
ATOM     20  O   UNL     1     112.280 129.421 138.330  0.00  0.00    +0.000 OA
ATOM     21  O   UNL     1     109.751 128.912 139.629  0.00  0.00    +0.000 OA
ATOM     22  O   UNL     1     111.455 131.086 140.572  0.00  0.00    +0.000 OA
ATOM     23  C   UNL     1     111.443 128.358 137.873  0.00  0.00    +0.000 A 
ATOM     24  C   UNL     1     112.139 128.796 137.811  0.00  0.00    +0.000 A 
ATOM     25  C   UNL     1     110.888 128.545 138.454  0.00  0.00    +0.000 A 
ATOM     26  C   UNL     1     111.029 129.170 138.973  0.00  0.00    +0.000 A 
ATOM     27  C   UNL     1     111.726 129.608 138.912  0.00  0.00    +0.000 A 
ATOM     28  C   UNL     1     110.444 129.355 139.575  0.00  0.00    +0.000 A 
ATOM     29  C   UNL     1     111.885 130.261 139.447  0.00  0.00    +0.000 A 
ATOM     30  C   UNL     1     110.586 130.005 140.119  0.00  0.00    +0.000 A 
ATOM     31  C   UNL     1     111.311 130.461 140.054  0.00  0.00    +0.000 A 
BRANCH  24  34
ATOM     32  O   UNL     1     113.269 129.257 135.226  0.00  0.00    +0.000 OA
ATOM     33  O   UNL     1     114.360 128.048 135.488  0.00  0.00    +0.000 OA
ATOM     34  C   UNL     1     112.694 128.609 137.229  0.00  0.00    +0.000 A 
ATOM     35  C   UNL     1     112.704 129.027 136.518  0.00  0.00    +0.000 A 
ATOM     36  C   UNL     1     113.240 128.005 137.360  0.00  0.00    +0.000 A 
ATOM     37  C   UNL     1     113.259 128.840 135.937  0.00  0.00    +0.000 A 
ATOM     38  C   UNL     1     113.795 127.817 136.780  0.00  0.00    +0.000 A 
ATOM     39  C   UNL     1     113.805 128.235 136.068  0.00  0.00    +0.000 A 
ENDBRANCH  24  34
ENDBRANCH  19  23
ENDBRANCH   8  19
BRANCH   7  40
ATOM     40  C   UNL     1     109.072 128.717 135.859  0.00  0.00    +0.000 C 
BRANCH  40  41
ATOM     41  O   UNL     1     109.528 129.336 135.558  0.00  0.00    +0.000 OA
BRANCH  41  43
ATOM     42  O   UNL     1     108.766 130.287 134.811  0.00  0.00    +0.000 OA
ATOM     43  C   UNL     1     109.201 130.090 135.484  0.00  0.00    +0.000 C 
BRANCH  43  44
ATOM     44  C   UNL     1     109.309 130.647 136.084  0.00  0.00    +0.000 C 
ATOM     45  C   UNL     1     109.795 131.300 135.956  0.00  0.00    +0.000 C 
BRANCH  45  48
ATOM     46  O   UNL     1     108.851 132.617 138.311  0.00  0.00    +0.000 OA
ATOM     47  O   UNL     1     110.227 133.527 138.353  0.00  0.00    +0.000 OA
ATOM     48  C   UNL     1     109.904 131.857 136.556  0.00  0.00    +0.000 A 
ATOM     49  C   UNL     1     109.323 131.958 137.133  0.00  0.00    +0.000 A 
ATOM     50  C   UNL     1     110.591 132.312 136.577  0.00  0.00    +0.000 A 
ATOM     51  C   UNL     1     109.432 132.516 137.733  0.00  0.00    +0.000 A 
ATOM     52  C   UNL     1     110.699 132.868 137.176  0.00  0.00    +0.000 A 
ATOM     53  C   UNL     1     110.119 132.971 137.754  0.00  0.00    +0.000 A 
ENDBRANCH  45  48
ENDBRANCH  43  44
ENDBRANCH  41  43
ENDBRANCH  40  41
ENDBRANCH   7  40
TORSDOF 10
ENDMDL
