MODEL 1
REMARK VINA RESULT:     -10.4      0.000      0.000
REMARK  Name = 42607951
REMARK  7 active torsions:
REMARK  status: ('A' for Active; 'I' for Inactive)
REMARK    1  A    between atoms: O_1  and  C_15
REMARK    2  A    between atoms: O_1  and  C_18
REMARK    3  A    between atoms: O_6  and  C_24
REMARK    4  A    between atoms: O_6  and  C_27
REMARK    5  A    between atoms: O_14  and  C_41
REMARK    6  A    between atoms: C_23  and  C_26
REMARK    7  A    between atoms: C_32  and  C_36
REMARK                            x       y       z     vdW  Elec       q    Type
REMARK                         _______ _______ _______ _____ _____    ______ ____
ROOT
ATOM      1  O   UNL     1     111.170 127.402 134.945  0.00  0.00    +0.000 OA
ENDROOT
BRANCH   1   5
ATOM      2  O   UNL     1     112.222 126.674 137.561  0.00  0.00    +0.000 OA
ATOM      3  O   UNL     1     111.044 124.639 135.882  0.00  0.00    +0.000 OA
ATOM      4  O   UNL     1     111.575 124.315 137.184  0.00  0.00    +0.000 OA
ATOM      5  C   UNL     1     111.320 126.833 135.523  0.00  0.00    +0.000 A 
ATOM      6  C   UNL     1     111.703 127.054 136.260  0.00  0.00    +0.000 A 
ATOM      7  C   UNL     1     111.096 126.014 135.392  0.00  0.00    +0.000 A 
ATOM      8  C   UNL     1     111.855 126.454 136.856  0.00  0.00    +0.000 A 
ATOM      9  C   UNL     1     111.639 125.668 136.730  0.00  0.00    +0.000 A 
ATOM     10  C   UNL     1     112.374 126.107 138.141  0.00  0.00    +0.000 C 
ATOM     11  C   UNL     1     111.256 125.428 135.999  0.00  0.00    +0.000 A 
ATOM     12  C   UNL     1     112.159 125.321 138.015  0.00  0.00    +0.000 C 
ATOM     13  C   UNL     1     111.791 125.101 137.310  0.00  0.00    +0.000 C 
BRANCH  10  14
ATOM     14  C   UNL     1     112.741 126.326 138.846  0.00  0.00    +0.000 A 
ATOM     15  C   UNL     1     113.565 126.354 138.892  0.00  0.00    +0.000 A 
ATOM     16  C   UNL     1     112.285 126.517 139.507  0.00  0.00    +0.000 A 
ATOM     17  C   UNL     1     113.932 126.573 139.597  0.00  0.00    +0.000 A 
ATOM     18  C   UNL     1     112.652 126.736 140.212  0.00  0.00    +0.000 A 
ATOM     19  C   UNL     1     113.476 126.764 140.257  0.00  0.00    +0.000 A 
BRANCH  19  20
ATOM     20  O   UNL     1     113.842 126.983 140.963  0.00  0.00    +0.000 OA
ATOM     21  C   UNL     1     114.613 127.277 140.954  0.00  0.00    +0.000 C 
ENDBRANCH  19  20
ENDBRANCH  10  14
ENDBRANCH   1   5
BRANCH   1  29
ATOM     22  O   UNL     1     109.824 127.694 135.323  0.00  0.00    +0.000 OA
ATOM     23  O   UNL     1     110.202 130.088 134.824  0.00  0.00    +0.000 OA
ATOM     24  O   UNL     1     111.423 128.998 134.612  0.00  0.00    +0.000 OA
ATOM     25  C   UNL     1     109.339 129.037 135.263  0.00  0.00    +0.000 C 
ATOM     26  C   UNL     1     110.077 129.290 134.990  0.00  0.00    +0.000 C 
ATOM     27  C   UNL     1     109.214 128.239 135.429  0.00  0.00    +0.000 C 
ATOM     28  C   UNL     1     110.687 128.745 134.884  0.00  0.00    +0.000 C 
ATOM     29  C   UNL     1     110.560 127.947 135.051  0.00  0.00    +0.000 C 
ATOM     30  C   UNL     1     108.477 127.986 135.702  0.00  0.00    +0.000 C 
BRANCH  25  31
ATOM     31  O   UNL     1     108.729 129.582 135.369  0.00  0.00    +0.000 OA
BRANCH  31  36
ATOM     32  O   UNL     1     109.109 129.789 136.731  0.00  0.00    +0.000 OA
ATOM     33  O   UNL     1     107.818 130.957 135.414  0.00  0.00    +0.000 OA
ATOM     34  O   UNL     1     107.741 131.851 136.799  0.00  0.00    +0.000 OA
ATOM     35  O   UNL     1     108.577 131.371 138.137  0.00  0.00    +0.000 OA
ATOM     36  C   UNL     1     108.691 130.029 136.061  0.00  0.00    +0.000 C 
ATOM     37  C   UNL     1     108.235 130.716 136.083  0.00  0.00    +0.000 C 
ATOM     38  C   UNL     1     108.197 131.164 136.776  0.00  0.00    +0.000 C 
ATOM     39  C   UNL     1     108.615 130.923 137.445  0.00  0.00    +0.000 C 
ATOM     40  C   UNL     1     109.071 130.236 137.423  0.00  0.00    +0.000 C 
BRANCH  40  42
ATOM     41  O   UNL     1     109.234 129.342 138.525  0.00  0.00    +0.000 OA
ATOM     42  C   UNL     1     109.488 129.996 138.092  0.00  0.00    +0.000 C 
ENDBRANCH  40  42
ENDBRANCH  31  36
ENDBRANCH  25  31
ENDBRANCH   1  29
TORSDOF 7
ENDMDL
MODEL 2
REMARK VINA RESULT:      -9.8      1.797      3.576
REMARK  Name = 42607951
REMARK  7 active torsions:
REMARK  status: ('A' for Active; 'I' for Inactive)
REMARK    1  A    between atoms: O_1  and  C_15
REMARK    2  A    between atoms: O_1  and  C_18
REMARK    3  A    between atoms: O_6  and  C_24
REMARK    4  A    between atoms: O_6  and  C_27
REMARK    5  A    between atoms: O_14  and  C_41
REMARK    6  A    between atoms: C_23  and  C_26
REMARK    7  A    between atoms: C_32  and  C_36
REMARK                            x       y       z     vdW  Elec       q    Type
REMARK                         _______ _______ _______ _____ _____    ______ ____
ROOT
ATOM      1  O   UNL     1     112.967 130.391 138.561  0.00  0.00    +0.000 OA
ENDROOT
BRANCH   1   5
ATOM      2  O   UNL     1     113.198 127.498 138.322  0.00  0.00    +0.000 OA
ATOM      3  O   UNL     1     113.585 128.750 140.896  0.00  0.00    +0.000 OA
ATOM      4  O   UNL     1     113.692 127.320 140.741  0.00  0.00    +0.000 OA
ATOM      5  C   UNL     1     113.105 129.653 138.903  0.00  0.00    +0.000 A 
ATOM      6  C   UNL     1     113.079 128.941 138.423  0.00  0.00    +0.000 A 
ATOM      7  C   UNL     1     113.277 129.592 139.743  0.00  0.00    +0.000 A 
ATOM      8  C   UNL     1     113.225 128.177 138.789  0.00  0.00    +0.000 A 
ATOM      9  C   UNL     1     113.390 128.119 139.595  0.00  0.00    +0.000 A 
ATOM     10  C   UNL     1     113.336 126.759 138.662  0.00  0.00    +0.000 C 
ATOM     11  C   UNL     1     113.420 128.819 140.091  0.00  0.00    +0.000 A 
ATOM     12  C   UNL     1     113.501 126.699 139.467  0.00  0.00    +0.000 C 
ATOM     13  C   UNL     1     113.528 127.379 139.935  0.00  0.00    +0.000 C 
BRANCH  10  14
ATOM     14  C   UNL     1     113.310 126.079 138.195  0.00  0.00    +0.000 A 
ATOM     15  C   UNL     1     112.584 125.733 138.010  0.00  0.00    +0.000 A 
ATOM     16  C   UNL     1     114.010 125.744 137.914  0.00  0.00    +0.000 A 
ATOM     17  C   UNL     1     112.557 125.054 137.544  0.00  0.00    +0.000 A 
ATOM     18  C   UNL     1     113.983 125.064 137.448  0.00  0.00    +0.000 A 
ATOM     19  C   UNL     1     113.257 124.719 137.263  0.00  0.00    +0.000 A 
BRANCH  19  20
ATOM     20  O   UNL     1     113.231 124.039 136.796  0.00  0.00    +0.000 OA
ATOM     21  C   UNL     1     112.550 123.573 136.783  0.00  0.00    +0.000 C 
ENDBRANCH  19  20
ENDBRANCH  10  14
ENDBRANCH   1   5
BRANCH   1  29
ATOM     22  O   UNL     1     111.574 130.507 138.853  0.00  0.00    +0.000 OA
ATOM     23  O   UNL     1     111.176 131.428 136.590  0.00  0.00    +0.000 OA
ATOM     24  O   UNL     1     112.703 131.005 137.052  0.00  0.00    +0.000 OA
ATOM     25  C   UNL     1     110.678 131.025 137.867  0.00  0.00    +0.000 C 
ATOM     26  C   UNL     1     111.309 131.121 137.344  0.00  0.00    +0.000 C 
ATOM     27  C   UNL     1     110.811 130.719 138.621  0.00  0.00    +0.000 C 
ATOM     28  C   UNL     1     112.072 130.909 137.575  0.00  0.00    +0.000 C 
ATOM     29  C   UNL     1     112.204 130.602 138.330  0.00  0.00    +0.000 C 
ATOM     30  C   UNL     1     110.179 130.623 139.145  0.00  0.00    +0.000 C 
BRANCH  25  31
ATOM     31  O   UNL     1     109.915 131.237 137.636  0.00  0.00    +0.000 OA
BRANCH  31  36
ATOM     32  O   UNL     1     109.682 129.925 137.118  0.00  0.00    +0.000 OA
ATOM     33  O   UNL     1     108.573 131.786 136.847  0.00  0.00    +0.000 OA
ATOM     34  O   UNL     1     107.671 130.749 135.935  0.00  0.00    +0.000 OA
ATOM     35  O   UNL     1     108.109 129.164 135.811  0.00  0.00    +0.000 OA
ATOM     36  C   UNL     1     109.464 130.719 137.180  0.00  0.00    +0.000 C 
ATOM     37  C   UNL     1     108.793 130.993 136.786  0.00  0.00    +0.000 C 
ATOM     38  C   UNL     1     108.341 130.474 136.329  0.00  0.00    +0.000 C 
ATOM     39  C   UNL     1     108.561 129.682 136.268  0.00  0.00    +0.000 C 
ATOM     40  C   UNL     1     109.232 129.407 136.662  0.00  0.00    +0.000 C 
BRANCH  40  42
ATOM     41  O   UNL     1     109.324 128.100 137.233  0.00  0.00    +0.000 OA
ATOM     42  C   UNL     1     109.451 128.615 136.600  0.00  0.00    +0.000 C 
ENDBRANCH  40  42
ENDBRANCH  31  36
ENDBRANCH  25  31
ENDBRANCH   1  29
TORSDOF 7
ENDMDL
MODEL 3
REMARK VINA RESULT:      -9.8      2.084      4.748
REMARK  Name = 42607951
REMARK  7 active torsions:
REMARK  status: ('A' for Active; 'I' for Inactive)
REMARK    1  A    between atoms: O_1  and  C_15
REMARK    2  A    between atoms: O_1  and  C_18
REMARK    3  A    between atoms: O_6  and  C_24
REMARK    4  A    between atoms: O_6  and  C_27
REMARK    5  A    between atoms: O_14  and  C_41
REMARK    6  A    between atoms: C_23  and  C_26
REMARK    7  A    between atoms: C_32  and  C_36
REMARK                            x       y       z     vdW  Elec       q    Type
REMARK                         _______ _______ _______ _____ _____    ______ ____
ROOT
ATOM      1  O   UNL     1     110.661 130.373 136.508  0.00  0.00    +0.000 OA
ENDROOT
BRANCH   1   5
ATOM      2  O   UNL     1     110.574 127.470 136.286  0.00  0.00    +0.000 OA
ATOM      3  O   UNL     1     108.141 128.998 135.971  0.00  0.00    +0.000 OA
ATOM      4  O   UNL     1     108.135 127.559 135.867  0.00  0.00    +0.000 OA
ATOM      5  C   UNL     1     110.236 129.677 136.385  0.00  0.00    +0.000 A 
ATOM      6  C   UNL     1     110.635 128.916 136.400  0.00  0.00    +0.000 A 
ATOM      7  C   UNL     1     109.389 129.708 136.239  0.00  0.00    +0.000 A 
ATOM      8  C   UNL     1     110.183 128.197 136.270  0.00  0.00    +0.000 A 
ATOM      9  C   UNL     1     109.371 128.227 136.130  0.00  0.00    +0.000 A 
ATOM     10  C   UNL     1     110.150 126.773 136.163  0.00  0.00    +0.000 C 
ATOM     11  C   UNL     1     108.954 128.978 136.111  0.00  0.00    +0.000 A 
ATOM     12  C   UNL     1     109.338 126.802 136.023  0.00  0.00    +0.000 C 
ATOM     13  C   UNL     1     108.948 127.529 136.007  0.00  0.00    +0.000 C 
BRANCH  10  14
ATOM     14  C   UNL     1     110.540 126.046 136.179  0.00  0.00    +0.000 A 
ATOM     15  C   UNL     1     110.796 125.730 136.897  0.00  0.00    +0.000 A 
ATOM     16  C   UNL     1     110.673 125.634 135.477  0.00  0.00    +0.000 A 
ATOM     17  C   UNL     1     111.185 125.004 136.913  0.00  0.00    +0.000 A 
ATOM     18  C   UNL     1     111.062 124.906 135.493  0.00  0.00    +0.000 A 
ATOM     19  C   UNL     1     111.318 124.592 136.211  0.00  0.00    +0.000 A 
BRANCH  19  20
ATOM     20  O   UNL     1     111.707 123.864 136.226  0.00  0.00    +0.000 OA
ATOM     21  C   UNL     1     111.973 123.554 136.943  0.00  0.00    +0.000 C 
ENDBRANCH  19  20
ENDBRANCH  10  14
ENDBRANCH   1   5
BRANCH   1  29
ATOM     22  O   UNL     1     110.743 130.371 137.934  0.00  0.00    +0.000 OA
ATOM     23  O   UNL     1     113.143 130.960 137.797  0.00  0.00    +0.000 OA
ATOM     24  O   UNL     1     112.261 130.765 136.416  0.00  0.00    +0.000 OA
ATOM     25  C   UNL     1     111.984 130.665 138.579  0.00  0.00    +0.000 C 
ATOM     26  C   UNL     1     112.344 130.764 137.842  0.00  0.00    +0.000 C 
ATOM     27  C   UNL     1     111.185 130.469 138.625  0.00  0.00    +0.000 C 
ATOM     28  C   UNL     1     111.902 130.666 137.152  0.00  0.00    +0.000 C 
ATOM     29  C   UNL     1     111.102 130.470 137.199  0.00  0.00    +0.000 C 
ATOM     30  C   UNL     1     110.826 130.370 139.361  0.00  0.00    +0.000 C 
BRANCH  25  31
ATOM     31  O   UNL     1     112.426 130.762 139.270  0.00  0.00    +0.000 OA
BRANCH  31  36
ATOM     32  O   UNL     1     112.710 129.363 139.314  0.00  0.00    +0.000 OA
ATOM     33  O   UNL     1     113.601 131.037 140.395  0.00  0.00    +0.000 OA
ATOM     34  O   UNL     1     114.472 129.774 141.002  0.00  0.00    +0.000 OA
ATOM     35  O   UNL     1     114.169 128.238 140.483  0.00  0.00    +0.000 OA
ATOM     36  C   UNL     1     112.861 130.131 139.573  0.00  0.00    +0.000 C 
ATOM     37  C   UNL     1     113.449 130.269 140.135  0.00  0.00    +0.000 C 
ATOM     38  C   UNL     1     113.885 129.637 140.439  0.00  0.00    +0.000 C 
ATOM     39  C   UNL     1     113.733 128.869 140.180  0.00  0.00    +0.000 C 
ATOM     40  C   UNL     1     113.145 128.732 139.617  0.00  0.00    +0.000 C 
BRANCH  40  42
ATOM     41  O   UNL     1     113.210 127.735 138.595  0.00  0.00    +0.000 OA
ATOM     42  C   UNL     1     112.994 127.964 139.358  0.00  0.00    +0.000 C 
ENDBRANCH  40  42
ENDBRANCH  31  36
ENDBRANCH  25  31
ENDBRANCH   1  29
TORSDOF 7
ENDMDL
MODEL 4
REMARK VINA RESULT:      -9.7      7.901     10.984
REMARK  Name = 42607951
REMARK  7 active torsions:
REMARK  status: ('A' for Active; 'I' for Inactive)
REMARK    1  A    between atoms: O_1  and  C_15
REMARK    2  A    between atoms: O_1  and  C_18
REMARK    3  A    between atoms: O_6  and  C_24
REMARK    4  A    between atoms: O_6  and  C_27
REMARK    5  A    between atoms: O_14  and  C_41
REMARK    6  A    between atoms: C_23  and  C_26
REMARK    7  A    between atoms: C_32  and  C_36
REMARK                            x       y       z     vdW  Elec       q    Type
REMARK                         _______ _______ _______ _____ _____    ______ ____
ROOT
ATOM      1  O   UNL     1     105.068 127.220 142.612  0.00  0.00    +0.000 OA
ENDROOT
BRANCH   1   5
ATOM      2  O   UNL     1     103.567 129.699 142.324  0.00  0.00    +0.000 OA
ATOM      3  O   UNL     1     106.333 129.602 141.493  0.00  0.00    +0.000 OA
ATOM      4  O   UNL     1     105.559 130.813 141.365  0.00  0.00    +0.000 OA
ATOM      5  C   UNL     1     105.030 128.011 142.382  0.00  0.00    +0.000 A 
ATOM      6  C   UNL     1     104.301 128.455 142.474  0.00  0.00    +0.000 A 
ATOM      7  C   UNL     1     105.722 128.398 142.049  0.00  0.00    +0.000 A 
ATOM      8  C   UNL     1     104.272 129.279 142.232  0.00  0.00    +0.000 A 
ATOM      9  C   UNL     1     104.936 129.650 141.913  0.00  0.00    +0.000 A 
ATOM     10  C   UNL     1     103.528 130.491 142.095  0.00  0.00    +0.000 C 
ATOM     11  C   UNL     1     105.674 129.222 141.813  0.00  0.00    +0.000 A 
ATOM     12  C   UNL     1     104.191 130.862 141.776  0.00  0.00    +0.000 C 
ATOM     13  C   UNL     1     104.895 130.442 141.684  0.00  0.00    +0.000 C 
BRANCH  10  14
ATOM     14  C   UNL     1     102.824 130.911 142.186  0.00  0.00    +0.000 A 
ATOM     15  C   UNL     1     102.260 130.910 141.583  0.00  0.00    +0.000 A 
ATOM     16  C   UNL     1     102.682 131.334 142.881  0.00  0.00    +0.000 A 
ATOM     17  C   UNL     1     101.558 131.330 141.674  0.00  0.00    +0.000 A 
ATOM     18  C   UNL     1     101.979 131.754 142.972  0.00  0.00    +0.000 A 
ATOM     19  C   UNL     1     101.416 131.753 142.368  0.00  0.00    +0.000 A 
BRANCH  19  20
ATOM     20  O   UNL     1     100.713 132.174 142.460  0.00  0.00    +0.000 OA
ATOM     21  C   UNL     1     100.734 132.988 142.595  0.00  0.00    +0.000 C 
ENDBRANCH  19  20
ENDBRANCH  10  14
ENDBRANCH   1   5
BRANCH   1  29
ATOM     22  O   UNL     1     105.401 127.485 143.975  0.00  0.00    +0.000 OA
ATOM     23  O   UNL     1     106.766 125.422 144.044  0.00  0.00    +0.000 OA
ATOM     24  O   UNL     1     105.977 125.844 142.658  0.00  0.00    +0.000 OA
ATOM     25  C   UNL     1     106.250 126.587 144.692  0.00  0.00    +0.000 C 
ATOM     26  C   UNL     1     106.311 126.110 144.021  0.00  0.00    +0.000 C 
ATOM     27  C   UNL     1     105.795 127.275 144.668  0.00  0.00    +0.000 C 
ATOM     28  C   UNL     1     105.917 126.321 143.327  0.00  0.00    +0.000 C 
ATOM     29  C   UNL     1     105.462 127.009 143.305  0.00  0.00    +0.000 C 
ATOM     30  C   UNL     1     105.734 127.752 145.339  0.00  0.00    +0.000 C 
BRANCH  25  31
ATOM     31  O   UNL     1     106.644 126.376 145.385  0.00  0.00    +0.000 OA
BRANCH  31  36
ATOM     32  O   UNL     1     105.493 125.673 145.857  0.00  0.00    +0.000 OA
ATOM     33  O   UNL     1     107.568 125.635 146.534  0.00  0.00    +0.000 OA
ATOM     34  O   UNL     1     106.879 124.562 147.581  0.00  0.00    +0.000 OA
ATOM     35  O   UNL     1     105.267 124.230 147.478  0.00  0.00    +0.000 OA
ATOM     36  C   UNL     1     106.300 125.840 145.908  0.00  0.00    +0.000 C 
ATOM     37  C   UNL     1     106.762 125.469 146.482  0.00  0.00    +0.000 C 
ATOM     38  C   UNL     1     106.417 124.932 147.006  0.00  0.00    +0.000 C 
ATOM     39  C   UNL     1     105.611 124.766 146.955  0.00  0.00    +0.000 C 
ATOM     40  C   UNL     1     105.149 125.137 146.380  0.00  0.00    +0.000 C 
BRANCH  40  42
ATOM     41  O   UNL     1     104.057 124.492 145.721  0.00  0.00    +0.000 OA
ATOM     42  C   UNL     1     104.343 124.971 146.329  0.00  0.00    +0.000 C 
ENDBRANCH  40  42
ENDBRANCH  31  36
ENDBRANCH  25  31
ENDBRANCH   1  29
TORSDOF 7
ENDMDL
MODEL 5
REMARK VINA RESULT:      -9.7      1.745      2.528
REMARK  Name = 42607951
REMARK  7 active torsions:
REMARK  status: ('A' for Active; 'I' for Inactive)
REMARK    1  A    between atoms: O_1  and  C_15
REMARK    2  A    between atoms: O_1  and  C_18
REMARK    3  A    between atoms: O_6  and  C_24
REMARK    4  A    between atoms: O_6  and  C_27
REMARK    5  A    between atoms: O_14  and  C_41
REMARK    6  A    between atoms: C_23  and  C_26
REMARK    7  A    between atoms: C_32  and  C_36
REMARK                            x       y       z     vdW  Elec       q    Type
REMARK                         _______ _______ _______ _____ _____    ______ ____
ROOT
ATOM      1  O   UNL     1     109.245 127.848 135.767  0.00  0.00    +0.000 OA
ENDROOT
BRANCH   1   5
ATOM      2  O   UNL     1     111.540 126.267 136.614  0.00  0.00    +0.000 OA
ATOM      3  O   UNL     1     109.189 126.378 138.290  0.00  0.00    +0.000 OA
ATOM      4  O   UNL     1     110.344 125.605 138.678  0.00  0.00    +0.000 OA
ATOM      5  C   UNL     1     109.609 127.351 136.316  0.00  0.00    +0.000 A 
ATOM      6  C   UNL     1     110.405 127.060 136.177  0.00  0.00    +0.000 A 
ATOM      7  C   UNL     1     109.193 127.121 137.033  0.00  0.00    +0.000 A 
ATOM      8  C   UNL     1     110.775 126.543 136.755  0.00  0.00    +0.000 A 
ATOM      9  C   UNL     1     110.376 126.323 137.443  0.00  0.00    +0.000 A 
ATOM     10  C   UNL     1     111.905 125.771 137.162  0.00  0.00    +0.000 C 
ATOM     11  C   UNL     1     109.579 126.604 137.599  0.00  0.00    +0.000 A 
ATOM     12  C   UNL     1     111.507 125.550 137.849  0.00  0.00    +0.000 C 
ATOM     13  C   UNL     1     110.743 125.826 137.990  0.00  0.00    +0.000 C 
BRANCH  10  14
ATOM     14  C   UNL     1     112.670 125.494 137.022  0.00  0.00    +0.000 A 
ATOM     15  C   UNL     1     113.321 125.956 137.231  0.00  0.00    +0.000 A 
ATOM     16  C   UNL     1     112.784 124.756 136.672  0.00  0.00    +0.000 A 
ATOM     17  C   UNL     1     114.085 125.680 137.092  0.00  0.00    +0.000 A 
ATOM     18  C   UNL     1     113.549 124.479 136.533  0.00  0.00    +0.000 A 
ATOM     19  C   UNL     1     114.199 124.942 136.742  0.00  0.00    +0.000 A 
BRANCH  19  20
ATOM     20  O   UNL     1     114.964 124.665 136.602  0.00  0.00    +0.000 OA
ATOM     21  C   UNL     1     115.456 125.062 136.072  0.00  0.00    +0.000 C 
ENDBRANCH  19  20
ENDBRANCH  10  14
ENDBRANCH   1   5
BRANCH   1  29
ATOM     22  O   UNL     1     110.091 128.992 135.885  0.00  0.00    +0.000 OA
ATOM     23  O   UNL     1     108.102 130.465 135.880  0.00  0.00    +0.000 OA
ATOM     24  O   UNL     1     107.919 128.829 135.763  0.00  0.00    +0.000 OA
ATOM     25  C   UNL     1     109.521 130.301 135.942  0.00  0.00    +0.000 C 
ATOM     26  C   UNL     1     108.765 129.974 135.881  0.00  0.00    +0.000 C 
ATOM     27  C   UNL     1     110.183 129.810 135.943  0.00  0.00    +0.000 C 
ATOM     28  C   UNL     1     108.673 129.156 135.823  0.00  0.00    +0.000 C 
ATOM     29  C   UNL     1     109.337 128.665 135.825  0.00  0.00    +0.000 C 
ATOM     30  C   UNL     1     110.939 130.137 136.004  0.00  0.00    +0.000 C 
BRANCH  25  31
ATOM     31  O   UNL     1     109.613 131.119 136.000  0.00  0.00    +0.000 OA
BRANCH  31  36
ATOM     32  O   UNL     1     109.511 131.042 137.423  0.00  0.00    +0.000 OA
ATOM     33  O   UNL     1     110.084 132.696 136.118  0.00  0.00    +0.000 OA
ATOM     34  O   UNL     1     110.219 133.407 137.601  0.00  0.00    +0.000 OA
ATOM     35  O   UNL     1     109.882 132.543 138.964  0.00  0.00    +0.000 OA
ATOM     36  C   UNL     1     109.680 131.474 136.740  0.00  0.00    +0.000 C 
ATOM     37  C   UNL     1     109.916 132.263 136.800  0.00  0.00    +0.000 C 
ATOM     38  C   UNL     1     109.983 132.619 137.541  0.00  0.00    +0.000 C 
ATOM     39  C   UNL     1     109.814 132.186 138.223  0.00  0.00    +0.000 C 
ATOM     40  C   UNL     1     109.579 131.398 138.164  0.00  0.00    +0.000 C 
BRANCH  40  42
ATOM     41  O   UNL     1     108.630 130.765 139.025  0.00  0.00    +0.000 OA
ATOM     42  C   UNL     1     109.410 130.966 138.845  0.00  0.00    +0.000 C 
ENDBRANCH  40  42
ENDBRANCH  31  36
ENDBRANCH  25  31
ENDBRANCH   1  29
TORSDOF 7
ENDMDL
MODEL 6
REMARK VINA RESULT:      -9.6      8.255     11.141
REMARK  Name = 42607951
REMARK  7 active torsions:
REMARK  status: ('A' for Active; 'I' for Inactive)
REMARK    1  A    between atoms: O_1  and  C_15
REMARK    2  A    between atoms: O_1  and  C_18
REMARK    3  A    between atoms: O_6  and  C_24
REMARK    4  A    between atoms: O_6  and  C_27
REMARK    5  A    between atoms: O_14  and  C_41
REMARK    6  A    between atoms: C_23  and  C_26
REMARK    7  A    between atoms: C_32  and  C_36
REMARK                            x       y       z     vdW  Elec       q    Type
REMARK                         _______ _______ _______ _____ _____    ______ ____
ROOT
ATOM      1  O   UNL     1     106.220 125.592 143.872  0.00  0.00    +0.000 OA
ENDROOT
BRANCH   1   5
ATOM      2  O   UNL     1     104.922 127.878 142.620  0.00  0.00    +0.000 OA
ATOM      3  O   UNL     1     107.806 127.789 142.783  0.00  0.00    +0.000 OA
ATOM      4  O   UNL     1     107.129 128.906 142.169  0.00  0.00    +0.000 OA
ATOM      5  C   UNL     1     106.268 126.322 143.491  0.00  0.00    +0.000 A 
ATOM      6  C   UNL     1     105.553 126.731 143.247  0.00  0.00    +0.000 A 
ATOM      7  C   UNL     1     107.034 126.678 143.335  0.00  0.00    +0.000 A 
ATOM      8  C   UNL     1     105.613 127.491 142.851  0.00  0.00    +0.000 A 
ATOM      9  C   UNL     1     106.349 127.833 142.701  0.00  0.00    +0.000 A 
ATOM     10  C   UNL     1     104.968 128.608 142.239  0.00  0.00    +0.000 C 
ATOM     11  C   UNL     1     107.075 127.439 142.937  0.00  0.00    +0.000 A 
ATOM     12  C   UNL     1     105.702 128.951 142.088  0.00  0.00    +0.000 C 
ATOM     13  C   UNL     1     106.393 128.564 142.319  0.00  0.00    +0.000 C 
BRANCH  10  14
ATOM     14  C   UNL     1     104.277 128.996 142.007  0.00  0.00    +0.000 A 
ATOM     15  C   UNL     1     103.915 129.535 142.517  0.00  0.00    +0.000 A 
ATOM     16  C   UNL     1     103.948 128.846 141.266  0.00  0.00    +0.000 A 
ATOM     17  C   UNL     1     103.226 129.923 142.286  0.00  0.00    +0.000 A 
ATOM     18  C   UNL     1     103.258 129.234 141.034  0.00  0.00    +0.000 A 
ATOM     19  C   UNL     1     102.897 129.772 141.544  0.00  0.00    +0.000 A 
BRANCH  19  20
ATOM     20  O   UNL     1     102.206 130.160 141.312  0.00  0.00    +0.000 OA
ATOM     21  C   UNL     1     102.237 130.950 141.075  0.00  0.00    +0.000 C 
ENDBRANCH  19  20
ENDBRANCH  10  14
ENDBRANCH   1   5
BRANCH   1  29
ATOM     22  O   UNL     1     106.075 126.241 145.136  0.00  0.00    +0.000 OA
ATOM     23  O   UNL     1     105.452 124.083 146.175  0.00  0.00    +0.000 OA
ATOM     24  O   UNL     1     105.805 124.153 144.564  0.00  0.00    +0.000 OA
ATOM     25  C   UNL     1     105.690 125.487 146.288  0.00  0.00    +0.000 C 
ATOM     26  C   UNL     1     105.659 124.802 145.828  0.00  0.00    +0.000 C 
ATOM     27  C   UNL     1     105.898 126.207 145.941  0.00  0.00    +0.000 C 
ATOM     28  C   UNL     1     105.836 124.837 145.023  0.00  0.00    +0.000 C 
ATOM     29  C   UNL     1     106.044 125.557 144.677  0.00  0.00    +0.000 C 
ATOM     30  C   UNL     1     105.929 126.892 146.401  0.00  0.00    +0.000 C 
BRANCH  25  31
ATOM     31  O   UNL     1     105.513 125.453 147.093  0.00  0.00    +0.000 OA
BRANCH  31  36
ATOM     32  O   UNL     1     106.880 125.218 147.439  0.00  0.00    +0.000 OA
ATOM     33  O   UNL     1     105.038 124.817 148.539  0.00  0.00    +0.000 OA
ATOM     34  O   UNL     1     106.167 124.265 149.609  0.00  0.00    +0.000 OA
ATOM     35  O   UNL     1     107.770 124.349 149.231  0.00  0.00    +0.000 OA
ATOM     36  C   UNL     1     106.078 125.177 147.627  0.00  0.00    +0.000 C 
ATOM     37  C   UNL     1     105.840 124.859 148.350  0.00  0.00    +0.000 C 
ATOM     38  C   UNL     1     106.405 124.583 148.885  0.00  0.00    +0.000 C 
ATOM     39  C   UNL     1     107.207 124.625 148.696  0.00  0.00    +0.000 C 
ATOM     40  C   UNL     1     107.444 124.943 147.973  0.00  0.00    +0.000 C 
BRANCH  40  42
ATOM     41  O   UNL     1     108.559 125.676 147.462  0.00  0.00    +0.000 OA
ATOM     42  C   UNL     1     108.246 124.984 147.784  0.00  0.00    +0.000 C 
ENDBRANCH  40  42
ENDBRANCH  31  36
ENDBRANCH  25  31
ENDBRANCH   1  29
TORSDOF 7
ENDMDL
MODEL 7
REMARK VINA RESULT:      -9.6      2.068      3.477
REMARK  Name = 42607951
REMARK  7 active torsions:
REMARK  status: ('A' for Active; 'I' for Inactive)
REMARK    1  A    between atoms: O_1  and  C_15
REMARK    2  A    between atoms: O_1  and  C_18
REMARK    3  A    between atoms: O_6  and  C_24
REMARK    4  A    between atoms: O_6  and  C_27
REMARK    5  A    between atoms: O_14  and  C_41
REMARK    6  A    between atoms: C_23  and  C_26
REMARK    7  A    between atoms: C_32  and  C_36
REMARK                            x       y       z     vdW  Elec       q    Type
REMARK                         _______ _______ _______ _____ _____    ______ ____
ROOT
ATOM      1  O   UNL     1     112.355 130.126 138.150  0.00  0.00    +0.000 OA
ENDROOT
BRANCH   1   5
ATOM      2  O   UNL     1     113.042 127.464 137.188  0.00  0.00    +0.000 OA
ATOM      3  O   UNL     1     114.009 129.787 135.767  0.00  0.00    +0.000 OA
ATOM      4  O   UNL     1     114.330 128.453 135.319  0.00  0.00    +0.000 OA
ATOM      5  C   UNL     1     112.737 129.638 137.605  0.00  0.00    +0.000 A 
ATOM      6  C   UNL     1     112.690 128.783 137.681  0.00  0.00    +0.000 A 
ATOM      7  C   UNL     1     113.184 129.981 136.956  0.00  0.00    +0.000 A 
ATOM      8  C   UNL     1     113.091 128.284 137.108  0.00  0.00    +0.000 A 
ATOM      9  C   UNL     1     113.520 128.614 136.486  0.00  0.00    +0.000 A 
ATOM     10  C   UNL     1     113.423 126.974 136.644  0.00  0.00    +0.000 C 
ATOM     11  C   UNL     1     113.578 129.466 136.393  0.00  0.00    +0.000 A 
ATOM     12  C   UNL     1     113.852 127.303 136.021  0.00  0.00    +0.000 C 
ATOM     13  C   UNL     1     113.901 128.123 135.942  0.00  0.00    +0.000 C 
BRANCH  10  14
ATOM     14  C   UNL     1     113.374 126.155 136.723  0.00  0.00    +0.000 A 
ATOM     15  C   UNL     1     112.705 125.752 136.454  0.00  0.00    +0.000 A 
ATOM     16  C   UNL     1     113.995 125.736 137.070  0.00  0.00    +0.000 A 
ATOM     17  C   UNL     1     112.657 124.933 136.533  0.00  0.00    +0.000 A 
ATOM     18  C   UNL     1     113.947 124.916 137.149  0.00  0.00    +0.000 A 
ATOM     19  C   UNL     1     113.278 124.515 136.880  0.00  0.00    +0.000 A 
BRANCH  19  20
ATOM     20  O   UNL     1     113.230 123.695 136.960  0.00  0.00    +0.000 OA
ATOM     21  C   UNL     1     112.499 123.335 137.089  0.00  0.00    +0.000 C 
ENDBRANCH  19  20
ENDBRANCH  10  14
ENDBRANCH   1   5
BRANCH   1  29
ATOM     22  O   UNL     1     110.986 129.760 137.975  0.00  0.00    +0.000 OA
ATOM     23  O   UNL     1     110.372 132.150 137.785  0.00  0.00    +0.000 OA
ATOM     24  O   UNL     1     111.947 131.719 138.023  0.00  0.00    +0.000 OA
ATOM     25  C   UNL     1     109.993 130.773 137.793  0.00  0.00    +0.000 C 
ATOM     26  C   UNL     1     110.577 131.354 137.849  0.00  0.00    +0.000 C 
ATOM     27  C   UNL     1     110.198 129.976 137.857  0.00  0.00    +0.000 C 
ATOM     28  C   UNL     1     111.364 131.138 137.968  0.00  0.00    +0.000 C 
ATOM     29  C   UNL     1     111.568 130.341 138.031  0.00  0.00    +0.000 C 
ATOM     30  C   UNL     1     109.615 129.395 137.801  0.00  0.00    +0.000 C 
BRANCH  25  31
ATOM     31  O   UNL     1     109.206 130.988 137.674  0.00  0.00    +0.000 OA
BRANCH  31  36
ATOM     32  O   UNL     1     109.388 130.898 136.260  0.00  0.00    +0.000 OA
ATOM     33  O   UNL     1     107.699 131.618 137.441  0.00  0.00    +0.000 OA
ATOM     34  O   UNL     1     107.127 131.842 135.909  0.00  0.00    +0.000 OA
ATOM     35  O   UNL     1     108.062 131.437 134.613  0.00  0.00    +0.000 OA
ATOM     36  C   UNL     1     108.920 131.100 136.909  0.00  0.00    +0.000 C 
ATOM     37  C   UNL     1     108.167 131.415 136.792  0.00  0.00    +0.000 C 
ATOM     38  C   UNL     1     107.880 131.527 136.026  0.00  0.00    +0.000 C 
ATOM     39  C   UNL     1     108.348 131.325 135.378  0.00  0.00    +0.000 C 
ATOM     40  C   UNL     1     109.102 131.010 135.495  0.00  0.00    +0.000 C 
BRANCH  40  42
ATOM     41  O   UNL     1     109.640 130.018 134.618  0.00  0.00    +0.000 OA
ATOM     42  C   UNL     1     109.569 130.808 134.846  0.00  0.00    +0.000 C 
ENDBRANCH  40  42
ENDBRANCH  31  36
ENDBRANCH  25  31
ENDBRANCH   1  29
TORSDOF 7
ENDMDL
MODEL 8
REMARK VINA RESULT:      -9.6      1.581      5.473
REMARK  Name = 42607951
REMARK  7 active torsions:
REMARK  status: ('A' for Active; 'I' for Inactive)
REMARK    1  A    between atoms: O_1  and  C_15
REMARK    2  A    between atoms: O_1  and  C_18
REMARK    3  A    between atoms: O_6  and  C_24
REMARK    4  A    between atoms: O_6  and  C_27
REMARK    5  A    between atoms: O_14  and  C_41
REMARK    6  A    between atoms: C_23  and  C_26
REMARK    7  A    between atoms: C_32  and  C_36
REMARK                            x       y       z     vdW  Elec       q    Type
REMARK                         _______ _______ _______ _____ _____    ______ ____
ROOT
ATOM      1  O   UNL     1     111.143 125.510 138.374  0.00  0.00    +0.000 OA
ENDROOT
BRANCH   1   5
ATOM      2  O   UNL     1     110.117 127.427 136.437  0.00  0.00    +0.000 OA
ATOM      3  O   UNL     1     110.960 124.812 135.544  0.00  0.00    +0.000 OA
ATOM      4  O   UNL     1     110.447 125.786 134.612  0.00  0.00    +0.000 OA
ATOM      5  C   UNL     1     110.946 125.708 137.597  0.00  0.00    +0.000 A 
ATOM      6  C   UNL     1     110.626 126.484 137.416  0.00  0.00    +0.000 A 
ATOM      7  C   UNL     1     111.061 125.138 136.964  0.00  0.00    +0.000 A 
ATOM      8  C   UNL     1     110.424 126.680 136.604  0.00  0.00    +0.000 A 
ATOM      9  C   UNL     1     110.535 126.133 135.996  0.00  0.00    +0.000 A 
ATOM     10  C   UNL     1     109.920 127.627 135.661  0.00  0.00    +0.000 C 
ATOM     11  C   UNL     1     110.854 125.352 136.159  0.00  0.00    +0.000 A 
ATOM     12  C   UNL     1     110.030 127.081 135.053  0.00  0.00    +0.000 C 
ATOM     13  C   UNL     1     110.337 126.333 135.220  0.00  0.00    +0.000 C 
BRANCH  10  14
ATOM     14  C   UNL     1     109.613 128.374 135.493  0.00  0.00    +0.000 A 
ATOM     15  C   UNL     1     110.005 128.873 134.965  0.00  0.00    +0.000 A 
ATOM     16  C   UNL     1     108.913 128.622 135.852  0.00  0.00    +0.000 A 
ATOM     17  C   UNL     1     109.698 129.619 134.797  0.00  0.00    +0.000 A 
ATOM     18  C   UNL     1     108.605 129.369 135.684  0.00  0.00    +0.000 A 
ATOM     19  C   UNL     1     108.998 129.868 135.156  0.00  0.00    +0.000 A 
BRANCH  19  20
ATOM     20  O   UNL     1     108.690 130.615 134.989  0.00  0.00    +0.000 OA
ATOM     21  C   UNL     1     109.196 131.263 134.918  0.00  0.00    +0.000 C 
ENDBRANCH  19  20
ENDBRANCH  10  14
ENDBRANCH   1   5
BRANCH   1  29
ATOM     22  O   UNL     1     112.467 126.045 138.386  0.00  0.00    +0.000 OA
ATOM     23  O   UNL     1     112.110 126.878 140.689  0.00  0.00    +0.000 OA
ATOM     24  O   UNL     1     110.904 126.065 139.909  0.00  0.00    +0.000 OA
ATOM     25  C   UNL     1     112.951 126.730 139.544  0.00  0.00    +0.000 C 
ATOM     26  C   UNL     1     112.228 126.600 139.922  0.00  0.00    +0.000 C 
ATOM     27  C   UNL     1     113.069 126.452 138.776  0.00  0.00    +0.000 C 
ATOM     28  C   UNL     1     111.626 126.194 139.532  0.00  0.00    +0.000 C 
ATOM     29  C   UNL     1     111.745 125.916 138.764  0.00  0.00    +0.000 C 
ATOM     30  C   UNL     1     113.792 126.582 138.398  0.00  0.00    +0.000 C 
BRANCH  25  31
ATOM     31  O   UNL     1     113.554 127.136 139.934  0.00  0.00    +0.000 OA
BRANCH  31  36
ATOM     32  O   UNL     1     113.102 128.372 139.375  0.00  0.00    +0.000 OA
ATOM     33  O   UNL     1     114.551 127.962 140.956  0.00  0.00    +0.000 OA
ATOM     34  O   UNL     1     114.598 129.611 140.910  0.00  0.00    +0.000 OA
ATOM     35  O   UNL     1     113.649 130.433 139.840  0.00  0.00    +0.000 OA
ATOM     36  C   UNL     1     113.577 127.960 139.910  0.00  0.00    +0.000 C 
ATOM     37  C   UNL     1     114.076 128.373 140.421  0.00  0.00    +0.000 C 
ATOM     38  C   UNL     1     114.099 129.198 140.398  0.00  0.00    +0.000 C 
ATOM     39  C   UNL     1     113.624 129.609 139.863  0.00  0.00    +0.000 C 
ATOM     40  C   UNL     1     113.126 129.196 139.352  0.00  0.00    +0.000 C 
BRANCH  40  42
ATOM     41  O   UNL     1     111.840 129.672 138.950  0.00  0.00    +0.000 OA
ATOM     42  C   UNL     1     112.652 129.607 138.817  0.00  0.00    +0.000 C 
ENDBRANCH  40  42
ENDBRANCH  31  36
ENDBRANCH  25  31
ENDBRANCH   1  29
TORSDOF 7
ENDMDL
MODEL 9
REMARK VINA RESULT:      -9.6      1.951      5.375
REMARK  Name = 42607951
REMARK  7 active torsions:
REMARK  status: ('A' for Active; 'I' for Inactive)
REMARK    1  A    between atoms: O_1  and  C_15
REMARK    2  A    between atoms: O_1  and  C_18
REMARK    3  A    between atoms: O_6  and  C_24
REMARK    4  A    between atoms: O_6  and  C_27
REMARK    5  A    between atoms: O_14  and  C_41
REMARK    6  A    between atoms: C_23  and  C_26
REMARK    7  A    between atoms: C_32  and  C_36
REMARK                            x       y       z     vdW  Elec       q    Type
REMARK                         _______ _______ _______ _____ _____    ______ ____
ROOT
ATOM      1  O   UNL     1     112.628 126.235 137.080  0.00  0.00    +0.000 OA
ENDROOT
BRANCH   1   5
ATOM      2  O   UNL     1     111.321 128.604 136.002  0.00  0.00    +0.000 OA
ATOM      3  O   UNL     1     114.184 128.313 135.741  0.00  0.00    +0.000 OA
ATOM      4  O   UNL     1     113.503 129.473 135.219  0.00  0.00    +0.000 OA
ATOM      5  C   UNL     1     112.669 126.959 136.686  0.00  0.00    +0.000 A 
ATOM      6  C   UNL     1     111.957 127.417 136.545  0.00  0.00    +0.000 A 
ATOM      7  C   UNL     1     113.427 127.261 136.414  0.00  0.00    +0.000 A 
ATOM      8  C   UNL     1     112.010 128.170 136.134  0.00  0.00    +0.000 A 
ATOM      9  C   UNL     1     112.737 128.459 135.873  0.00  0.00    +0.000 A 
ATOM     10  C   UNL     1     111.360 129.328 135.609  0.00  0.00    +0.000 C 
ATOM     11  C   UNL     1     113.461 128.015 136.005  0.00  0.00    +0.000 A 
ATOM     12  C   UNL     1     112.087 129.618 135.348  0.00  0.00    +0.000 C 
ATOM     13  C   UNL     1     112.775 129.184 135.480  0.00  0.00    +0.000 C 
BRANCH  10  14
ATOM     14  C   UNL     1     110.672 129.763 135.476  0.00  0.00    +0.000 A 
ATOM     15  C   UNL     1     110.280 129.706 134.752  0.00  0.00    +0.000 A 
ATOM     16  C   UNL     1     110.374 130.256 136.068  0.00  0.00    +0.000 A 
ATOM     17  C   UNL     1     109.592 130.141 134.620  0.00  0.00    +0.000 A 
ATOM     18  C   UNL     1     109.686 130.691 135.935  0.00  0.00    +0.000 A 
ATOM     19  C   UNL     1     109.295 130.633 135.211  0.00  0.00    +0.000 A 
BRANCH  19  20
ATOM     20  O   UNL     1     108.606 131.068 135.079  0.00  0.00    +0.000 OA
ATOM     21  C   UNL     1     108.631 131.748 134.612  0.00  0.00    +0.000 C 
ENDBRANCH  19  20
ENDBRANCH  10  14
ENDBRANCH   1   5
BRANCH   1  29
ATOM     22  O   UNL     1     112.622 126.675 138.439  0.00  0.00    +0.000 OA
ATOM     23  O   UNL     1     110.758 125.124 138.933  0.00  0.00    +0.000 OA
ATOM     24  O   UNL     1     111.385 125.201 137.409  0.00  0.00    +0.000 OA
ATOM     25  C   UNL     1     111.687 126.120 139.366  0.00  0.00    +0.000 C 
ATOM     26  C   UNL     1     111.379 125.641 138.768  0.00  0.00    +0.000 C 
ATOM     27  C   UNL     1     112.308 126.637 139.201  0.00  0.00    +0.000 C 
ATOM     28  C   UNL     1     111.693 125.680 138.006  0.00  0.00    +0.000 C 
ATOM     29  C   UNL     1     112.315 126.197 137.842  0.00  0.00    +0.000 C 
ATOM     30  C   UNL     1     112.616 127.115 139.799  0.00  0.00    +0.000 C 
BRANCH  25  31
ATOM     31  O   UNL     1     111.373 126.081 140.128  0.00  0.00    +0.000 OA
BRANCH  31  36
ATOM     32  O   UNL     1     110.487 127.169 139.855  0.00  0.00    +0.000 OA
ATOM     33  O   UNL     1     110.469 125.675 141.447  0.00  0.00    +0.000 OA
ATOM     34  O   UNL     1     109.131 126.559 141.834  0.00  0.00    +0.000 OA
ATOM     35  O   UNL     1     108.697 127.849 140.902  0.00  0.00    +0.000 OA
ATOM     36  C   UNL     1     110.705 126.523 140.321  0.00  0.00    +0.000 C 
ATOM     37  C   UNL     1     110.253 126.320 140.981  0.00  0.00    +0.000 C 
ATOM     38  C   UNL     1     109.583 126.762 141.174  0.00  0.00    +0.000 C 
ATOM     39  C   UNL     1     109.366 127.408 140.708  0.00  0.00    +0.000 C 
ATOM     40  C   UNL     1     109.819 127.611 140.049  0.00  0.00    +0.000 C 
BRANCH  40  42
ATOM     41  O   UNL     1     109.310 128.135 138.821  0.00  0.00    +0.000 OA
ATOM     42  C   UNL     1     109.602 128.255 139.583  0.00  0.00    +0.000 C 
ENDBRANCH  40  42
ENDBRANCH  31  36
ENDBRANCH  25  31
ENDBRANCH   1  29
TORSDOF 7
ENDMDL
MODEL 10
REMARK VINA RESULT:      -9.5      8.361     10.515
REMARK  Name = 42607951
REMARK  7 active torsions:
REMARK  status: ('A' for Active; 'I' for Inactive)
REMARK    1  A    between atoms: O_1  and  C_15
REMARK    2  A    between atoms: O_1  and  C_18
REMARK    3  A    between atoms: O_6  and  C_24
REMARK    4  A    between atoms: O_6  and  C_27
REMARK    5  A    between atoms: O_14  and  C_41
REMARK    6  A    between atoms: C_23  and  C_26
REMARK    7  A    between atoms: C_32  and  C_36
REMARK                            x       y       z     vdW  Elec       q    Type
REMARK                         _______ _______ _______ _____ _____    ______ ____
ROOT
ATOM      1  O   UNL     1     105.982 126.522 143.640  0.00  0.00    +0.000 OA
ENDROOT
BRANCH   1   5
ATOM      2  O   UNL     1     105.322 125.208 141.126  0.00  0.00    +0.000 OA
ATOM      3  O   UNL     1     108.067 125.913 141.689  0.00  0.00    +0.000 OA
ATOM      4  O   UNL     1     107.704 125.262 140.454  0.00  0.00    +0.000 OA
ATOM      5  C   UNL     1     106.215 126.209 142.914  0.00  0.00    +0.000 A 
ATOM      6  C   UNL     1     105.634 125.863 142.384  0.00  0.00    +0.000 A 
ATOM      7  C   UNL     1     107.042 126.228 142.680  0.00  0.00    +0.000 A 
ATOM      8  C   UNL     1     105.886 125.540 141.629  0.00  0.00    +0.000 A 
ATOM      9  C   UNL     1     106.680 125.557 141.406  0.00  0.00    +0.000 A 
ATOM     10  C   UNL     1     105.553 124.895 140.399  0.00  0.00    +0.000 C 
ATOM     11  C   UNL     1     107.276 125.900 141.922  0.00  0.00    +0.000 A 
ATOM     12  C   UNL     1     106.347 124.913 140.175  0.00  0.00    +0.000 C 
ATOM     13  C   UNL     1     106.910 125.244 140.678  0.00  0.00    +0.000 C 
BRANCH  10  14
ATOM     14  C   UNL     1     104.990 124.564 139.895  0.00  0.00    +0.000 A 
ATOM     15  C   UNL     1     104.634 125.027 139.312  0.00  0.00    +0.000 A 
ATOM     16  C   UNL     1     104.782 123.769 139.975  0.00  0.00    +0.000 A 
ATOM     17  C   UNL     1     104.072 124.696 138.809  0.00  0.00    +0.000 A 
ATOM     18  C   UNL     1     104.219 123.438 139.471  0.00  0.00    +0.000 A 
ATOM     19  C   UNL     1     103.864 123.901 138.888  0.00  0.00    +0.000 A 
BRANCH  19  20
ATOM     20  O   UNL     1     103.301 123.569 138.385  0.00  0.00    +0.000 OA
ATOM     21  C   UNL     1     102.499 123.615 138.575  0.00  0.00    +0.000 C 
ENDBRANCH  19  20
ENDBRANCH  10  14
ENDBRANCH   1   5
BRANCH   1  29
ATOM     22  O   UNL     1     105.649 125.330 144.353  0.00  0.00    +0.000 OA
ATOM     23  O   UNL     1     106.930 126.140 146.309  0.00  0.00    +0.000 OA
ATOM     24  O   UNL     1     106.836 127.063 144.945  0.00  0.00    +0.000 OA
ATOM     25  C   UNL     1     106.123 125.138 145.687  0.00  0.00    +0.000 C 
ATOM     26  C   UNL     1     106.503 125.870 145.657  0.00  0.00    +0.000 C 
ATOM     27  C   UNL     1     105.696 124.868 145.035  0.00  0.00    +0.000 C 
ATOM     28  C   UNL     1     106.456 126.332 144.975  0.00  0.00    +0.000 C 
ATOM     29  C   UNL     1     106.029 126.061 144.323  0.00  0.00    +0.000 C 
ATOM     30  C   UNL     1     105.316 124.136 145.065  0.00  0.00    +0.000 C 
BRANCH  25  31
ATOM     31  O   UNL     1     106.170 124.677 146.370  0.00  0.00    +0.000 OA
BRANCH  31  36
ATOM     32  O   UNL     1     104.963 125.227 146.902  0.00  0.00    +0.000 OA
ATOM     33  O   UNL     1     106.647 124.253 147.891  0.00  0.00    +0.000 OA
ATOM     34  O   UNL     1     105.680 124.591 149.184  0.00  0.00    +0.000 OA
ATOM     35  O   UNL     1     104.235 125.354 148.955  0.00  0.00    +0.000 OA
ATOM     36  C   UNL     1     105.686 124.846 147.016  0.00  0.00    +0.000 C 
ATOM     37  C   UNL     1     105.925 124.634 147.776  0.00  0.00    +0.000 C 
ATOM     38  C   UNL     1     105.441 124.803 148.423  0.00  0.00    +0.000 C 
ATOM     39  C   UNL     1     104.718 125.185 148.309  0.00  0.00    +0.000 C 
ATOM     40  C   UNL     1     104.480 125.397 147.548  0.00  0.00    +0.000 C 
BRANCH  40  42
ATOM     41  O   UNL     1     103.119 125.365 147.113  0.00  0.00    +0.000 OA
ATOM     42  C   UNL     1     103.758 125.778 147.434  0.00  0.00    +0.000 C 
ENDBRANCH  40  42
ENDBRANCH  31  36
ENDBRANCH  25  31
ENDBRANCH   1  29
TORSDOF 7
ENDMDL
