MODEL 1
REMARK VINA RESULT:      -9.6      0.000      0.000
REMARK  Name = 44257038
REMARK  5 active torsions:
REMARK  status: ('A' for Active; 'I' for Inactive)
REMARK    1  A    between atoms: O_2  and  C_17
REMARK    2  A    between atoms: O_2  and  C_19
REMARK    3  A    between atoms: C_16  and  C_18
REMARK    4  A    between atoms: C_22  and  C_26
REMARK    5  A    between atoms: C_28  and  C_33
REMARK                            x       y       z     vdW  Elec       q    Type
REMARK                         _______ _______ _______ _____ _____    ______ ____
ROOT
ATOM      1  O   UNL     1     113.891 127.421 136.098  0.00  0.00    +0.000 OA
ATOM      2  O   UNL     1     113.146 129.977 137.174  0.00  0.00    +0.000 OA
ATOM      3  O   UNL     1     114.599 129.840 134.638  0.00  0.00    +0.000 OA
ATOM      4  C   UNL     1     113.182 127.504 137.335  0.00  0.00    +0.000 A 
ATOM      5  C   UNL     1     113.174 128.327 137.275  0.00  0.00    +0.000 A 
ATOM      6  C   UNL     1     113.525 128.697 136.626  0.00  0.00    +0.000 A 
ATOM      7  C   UNL     1     113.541 127.052 136.746  0.00  0.00    +0.000 A 
ATOM      8  C   UNL     1     113.883 128.244 136.038  0.00  0.00    +0.000 A 
ATOM      9  C   UNL     1     113.509 129.555 136.575  0.00  0.00    +0.000 A 
ATOM     10  C   UNL     1     112.818 128.775 137.859  0.00  0.00    +0.000 A 
ATOM     11  C   UNL     1     114.252 128.616 135.357  0.00  0.00    +0.000 A 
ATOM     12  C   UNL     1     112.804 129.592 137.810  0.00  0.00    +0.000 A 
ATOM     13  C   UNL     1     113.873 129.945 135.902  0.00  0.00    +0.000 A 
ATOM     14  C   UNL     1     114.247 129.473 135.289  0.00  0.00    +0.000 A 
ENDROOT
BRANCH   7  16
ATOM     15  O   UNL     1     113.574 123.760 136.989  0.00  0.00    +0.000 OA
ATOM     16  C   UNL     1     113.549 126.228 136.807  0.00  0.00    +0.000 A 
ATOM     17  C   UNL     1     112.916 125.787 136.514  0.00  0.00    +0.000 A 
ATOM     18  C   UNL     1     114.190 125.847 137.160  0.00  0.00    +0.000 A 
ATOM     19  C   UNL     1     112.925 124.964 136.575  0.00  0.00    +0.000 A 
ATOM     20  C   UNL     1     114.198 125.025 137.221  0.00  0.00    +0.000 A 
ATOM     21  C   UNL     1     113.566 124.583 136.928  0.00  0.00    +0.000 A 
ENDBRANCH   7  16
BRANCH  12  24
ATOM     22  O   UNL     1     112.882 130.288 139.055  0.00  0.00    +0.000 OA
ATOM     23  O   UNL     1     111.639 130.214 138.354  0.00  0.00    +0.000 OA
ATOM     24  C   UNL     1     112.441 130.031 138.406  0.00  0.00    +0.000 C 
ENDBRANCH  12  24
BRANCH   4  25
ATOM     25  O   UNL     1     112.831 127.135 137.984  0.00  0.00    +0.000 OA
BRANCH  25  34
ATOM     26  O   UNL     1     113.221 126.976 139.350  0.00  0.00    +0.000 OA
ATOM     27  O   UNL     1     110.885 126.425 139.953  0.00  0.00    +0.000 OA
ATOM     28  O   UNL     1     112.053 126.450 141.116  0.00  0.00    +0.000 OA
ATOM     29  O   UNL     1     111.274 126.768 138.386  0.00  0.00    +0.000 OA
ATOM     30  C   UNL     1     111.664 126.609 139.752  0.00  0.00    +0.000 C 
ATOM     31  C   UNL     1     112.247 126.621 140.334  0.00  0.00    +0.000 C 
ATOM     32  C   UNL     1     111.857 126.780 138.968  0.00  0.00    +0.000 C 
ATOM     33  C   UNL     1     113.026 126.805 140.132  0.00  0.00    +0.000 C 
ATOM     34  C   UNL     1     112.636 126.964 138.767  0.00  0.00    +0.000 C 
BRANCH  33  36
ATOM     35  O   UNL     1     114.389 127.004 140.512  0.00  0.00    +0.000 OA
ATOM     36  C   UNL     1     113.611 126.817 140.714  0.00  0.00    +0.000 C 
ENDBRANCH  33  36
ENDBRANCH  25  34
ENDBRANCH   4  25
TORSDOF 5
ENDMDL
MODEL 2
REMARK VINA RESULT:      -9.5      2.192      4.658
REMARK  Name = 44257038
REMARK  5 active torsions:
REMARK  status: ('A' for Active; 'I' for Inactive)
REMARK    1  A    between atoms: O_2  and  C_17
REMARK    2  A    between atoms: O_2  and  C_19
REMARK    3  A    between atoms: C_16  and  C_18
REMARK    4  A    between atoms: C_22  and  C_26
REMARK    5  A    between atoms: C_28  and  C_33
REMARK                            x       y       z     vdW  Elec       q    Type
REMARK                         _______ _______ _______ _____ _____    ______ ____
ROOT
ATOM      1  O   UNL     1     113.588 127.242 136.921  0.00  0.00    +0.000 OA
ATOM      2  O   UNL     1     111.655 125.342 135.970  0.00  0.00    +0.000 OA
ATOM      3  O   UNL     1     114.191 124.397 137.079  0.00  0.00    +0.000 OA
ATOM      4  C   UNL     1     112.345 127.688 136.377  0.00  0.00    +0.000 A 
ATOM      5  C   UNL     1     112.121 126.905 136.244  0.00  0.00    +0.000 A 
ATOM      6  C   UNL     1     112.632 126.290 136.450  0.00  0.00    +0.000 A 
ATOM      7  C   UNL     1     113.078 127.856 136.715  0.00  0.00    +0.000 A 
ATOM      8  C   UNL     1     113.365 126.458 136.789  0.00  0.00    +0.000 A 
ATOM      9  C   UNL     1     112.388 125.478 136.307  0.00  0.00    +0.000 A 
ATOM     10  C   UNL     1     111.395 126.739 135.908  0.00  0.00    +0.000 A 
ATOM     11  C   UNL     1     113.906 125.827 137.008  0.00  0.00    +0.000 A 
ATOM     12  C   UNL     1     111.163 125.966 135.772  0.00  0.00    +0.000 A 
ATOM     13  C   UNL     1     112.915 124.834 136.519  0.00  0.00    +0.000 A 
ATOM     14  C   UNL     1     113.679 125.009 136.872  0.00  0.00    +0.000 A 
ENDROOT
BRANCH   7  16
ATOM     15  O   UNL     1     113.969 130.990 137.247  0.00  0.00    +0.000 OA
ATOM     16  C   UNL     1     113.301 128.640 136.848  0.00  0.00    +0.000 A 
ATOM     17  C   UNL     1     113.683 129.066 136.254  0.00  0.00    +0.000 A 
ATOM     18  C   UNL     1     113.142 128.996 137.575  0.00  0.00    +0.000 A 
ATOM     19  C   UNL     1     113.905 129.849 136.387  0.00  0.00    +0.000 A 
ATOM     20  C   UNL     1     113.364 129.779 137.708  0.00  0.00    +0.000 A 
ATOM     21  C   UNL     1     113.746 130.206 137.114  0.00  0.00    +0.000 A 
ENDBRANCH   7  16
BRANCH  12  24
ATOM     22  O   UNL     1     110.359 125.738 134.614  0.00  0.00    +0.000 OA
ATOM     23  O   UNL     1     109.761 125.737 135.912  0.00  0.00    +0.000 OA
ATOM     24  C   UNL     1     110.427 125.813 135.433  0.00  0.00    +0.000 C 
ENDBRANCH  12  24
BRANCH   4  25
ATOM     25  O   UNL     1     111.835 128.302 136.171  0.00  0.00    +0.000 OA
BRANCH  25  34
ATOM     26  O   UNL     1     110.646 128.832 136.761  0.00  0.00    +0.000 OA
ATOM     27  O   UNL     1     110.064 129.919 134.615  0.00  0.00    +0.000 OA
ATOM     28  O   UNL     1     109.070 130.086 135.920  0.00  0.00    +0.000 OA
ATOM     29  O   UNL     1     111.447 129.027 134.740  0.00  0.00    +0.000 OA
ATOM     30  C   UNL     1     110.258 129.556 135.330  0.00  0.00    +0.000 C 
ATOM     31  C   UNL     1     109.761 129.640 135.983  0.00  0.00    +0.000 C 
ATOM     32  C   UNL     1     110.950 129.111 135.392  0.00  0.00    +0.000 C 
ATOM     33  C   UNL     1     109.955 129.278 136.698  0.00  0.00    +0.000 C 
ATOM     34  C   UNL     1     111.144 128.748 136.108  0.00  0.00    +0.000 C 
BRANCH  33  36
ATOM     35  O   UNL     1     109.336 128.723 137.861  0.00  0.00    +0.000 OA
ATOM     36  C   UNL     1     109.458 129.362 137.351  0.00  0.00    +0.000 C 
ENDBRANCH  33  36
ENDBRANCH  25  34
ENDBRANCH   4  25
TORSDOF 5
ENDMDL
MODEL 3
REMARK VINA RESULT:      -9.4      1.937      2.977
REMARK  Name = 44257038
REMARK  5 active torsions:
REMARK  status: ('A' for Active; 'I' for Inactive)
REMARK    1  A    between atoms: O_2  and  C_17
REMARK    2  A    between atoms: O_2  and  C_19
REMARK    3  A    between atoms: C_16  and  C_18
REMARK    4  A    between atoms: C_22  and  C_26
REMARK    5  A    between atoms: C_28  and  C_33
REMARK                            x       y       z     vdW  Elec       q    Type
REMARK                         _______ _______ _______ _____ _____    ______ ____
ROOT
ATOM      1  O   UNL     1     111.830 125.639 136.146  0.00  0.00    +0.000 OA
ATOM      2  O   UNL     1     109.705 127.469 136.766  0.00  0.00    +0.000 OA
ATOM      3  O   UNL     1     109.357 125.520 134.612  0.00  0.00    +0.000 OA
ATOM      4  C   UNL     1     111.985 126.596 137.195  0.00  0.00    +0.000 A 
ATOM      5  C   UNL     1     111.225 126.882 137.047  0.00  0.00    +0.000 A 
ATOM      6  C   UNL     1     110.768 126.545 136.448  0.00  0.00    +0.000 A 
ATOM      7  C   UNL     1     112.287 125.974 136.744  0.00  0.00    +0.000 A 
ATOM      8  C   UNL     1     111.070 125.924 135.997  0.00  0.00    +0.000 A 
ATOM      9  C   UNL     1     109.978 126.852 136.303  0.00  0.00    +0.000 A 
ATOM     10  C   UNL     1     110.927 127.498 137.494  0.00  0.00    +0.000 A 
ATOM     11  C   UNL     1     110.604 125.565 135.371  0.00  0.00    +0.000 A 
ATOM     12  C   UNL     1     110.174 127.789 137.355  0.00  0.00    +0.000 A 
ATOM     13  C   UNL     1     109.497 126.506 135.681  0.00  0.00    +0.000 A 
ATOM     14  C   UNL     1     109.812 125.858 135.212  0.00  0.00    +0.000 A 
ENDROOT
BRANCH   7  16
ATOM     15  O   UNL     1     115.326 124.832 137.340  0.00  0.00    +0.000 OA
ATOM     16  C   UNL     1     113.047 125.689 136.893  0.00  0.00    +0.000 A 
ATOM     17  C   UNL     1     113.696 126.019 136.505  0.00  0.00    +0.000 A 
ATOM     18  C   UNL     1     113.158 125.073 137.431  0.00  0.00    +0.000 A 
ATOM     19  C   UNL     1     114.455 125.734 136.653  0.00  0.00    +0.000 A 
ATOM     20  C   UNL     1     113.917 124.787 137.580  0.00  0.00    +0.000 A 
ATOM     21  C   UNL     1     114.566 125.118 137.191  0.00  0.00    +0.000 A 
ENDBRANCH   7  16
BRANCH  12  24
ATOM     22  O   UNL     1     109.454 128.251 138.499  0.00  0.00    +0.000 OA
ATOM     23  O   UNL     1     110.030 129.190 137.588  0.00  0.00    +0.000 OA
ATOM     24  C   UNL     1     109.886 128.411 137.814  0.00  0.00    +0.000 C 
ENDBRANCH  12  24
BRANCH   4  25
ATOM     25  O   UNL     1     112.442 126.932 137.794  0.00  0.00    +0.000 OA
BRANCH  25  34
ATOM     26  O   UNL     1     112.418 126.850 139.220  0.00  0.00    +0.000 OA
ATOM     27  O   UNL     1     113.743 128.935 139.364  0.00  0.00    +0.000 OA
ATOM     28  O   UNL     1     113.277 128.158 140.741  0.00  0.00    +0.000 OA
ATOM     29  O   UNL     1     113.326 128.322 137.889  0.00  0.00    +0.000 OA
ATOM     30  C   UNL     1     113.301 128.240 139.316  0.00  0.00    +0.000 C 
ATOM     31  C   UNL     1     113.068 127.852 140.005  0.00  0.00    +0.000 C 
ATOM     32  C   UNL     1     113.093 127.934 138.578  0.00  0.00    +0.000 C 
ATOM     33  C   UNL     1     112.626 127.157 139.957  0.00  0.00    +0.000 C 
ATOM     34  C   UNL     1     112.651 127.239 138.530  0.00  0.00    +0.000 C 
BRANCH  33  36
ATOM     35  O   UNL     1     111.890 126.114 140.600  0.00  0.00    +0.000 OA
ATOM     36  C   UNL     1     112.393 126.767 140.646  0.00  0.00    +0.000 C 
ENDBRANCH  33  36
ENDBRANCH  25  34
ENDBRANCH   4  25
TORSDOF 5
ENDMDL
MODEL 4
REMARK VINA RESULT:      -9.4      2.209      4.108
REMARK  Name = 44257038
REMARK  5 active torsions:
REMARK  status: ('A' for Active; 'I' for Inactive)
REMARK    1  A    between atoms: O_2  and  C_17
REMARK    2  A    between atoms: O_2  and  C_19
REMARK    3  A    between atoms: C_16  and  C_18
REMARK    4  A    between atoms: C_22  and  C_26
REMARK    5  A    between atoms: C_28  and  C_33
REMARK                            x       y       z     vdW  Elec       q    Type
REMARK                         _______ _______ _______ _____ _____    ______ ____
ROOT
ATOM      1  O   UNL     1     113.610 126.267 138.974  0.00  0.00    +0.000 OA
ATOM      2  O   UNL     1     110.978 126.905 139.929  0.00  0.00    +0.000 OA
ATOM      3  O   UNL     1     113.278 127.207 141.710  0.00  0.00    +0.000 OA
ATOM      4  C   UNL     1     112.477 126.125 138.116  0.00  0.00    +0.000 A 
ATOM      5  C   UNL     1     111.983 126.385 138.724  0.00  0.00    +0.000 A 
ATOM      6  C   UNL     1     112.304 126.587 139.457  0.00  0.00    +0.000 A 
ATOM      7  C   UNL     1     113.289 126.065 138.241  0.00  0.00    +0.000 A 
ATOM      8  C   UNL     1     113.117 126.527 139.582  0.00  0.00    +0.000 A 
ATOM      9  C   UNL     1     111.779 126.857 140.082  0.00  0.00    +0.000 A 
ATOM     10  C   UNL     1     111.177 126.443 138.599  0.00  0.00    +0.000 A 
ATOM     11  C   UNL     1     113.463 126.734 140.341  0.00  0.00    +0.000 A 
ATOM     12  C   UNL     1     110.679 126.701 139.195  0.00  0.00    +0.000 A 
ATOM     13  C   UNL     1     112.108 127.068 140.848  0.00  0.00    +0.000 A 
ATOM     14  C   UNL     1     112.955 127.006 140.978  0.00  0.00    +0.000 A 
ENDROOT
BRANCH   7  16
ATOM     15  O   UNL     1     115.260 125.021 135.808  0.00  0.00    +0.000 OA
ATOM     16  C   UNL     1     113.782 125.805 137.633  0.00  0.00    +0.000 A 
ATOM     17  C   UNL     1     114.094 126.345 137.093  0.00  0.00    +0.000 A 
ATOM     18  C   UNL     1     113.964 125.002 137.564  0.00  0.00    +0.000 A 
ATOM     19  C   UNL     1     114.586 126.084 136.485  0.00  0.00    +0.000 A 
ATOM     20  C   UNL     1     114.456 124.741 136.956  0.00  0.00    +0.000 A 
ATOM     21  C   UNL     1     114.767 125.282 136.417  0.00  0.00    +0.000 A 
ENDBRANCH   7  16
BRANCH  12  24
ATOM     22  O   UNL     1     109.544 127.462 138.779  0.00  0.00    +0.000 OA
ATOM     23  O   UNL     1     109.382 126.102 139.189  0.00  0.00    +0.000 OA
ATOM     24  C   UNL     1     109.868 126.755 139.055  0.00  0.00    +0.000 C 
ENDBRANCH  12  24
BRANCH   4  25
ATOM     25  O   UNL     1     112.156 125.923 137.383  0.00  0.00    +0.000 OA
BRANCH  25  34
ATOM     26  O   UNL     1     111.667 126.692 136.282  0.00  0.00    +0.000 OA
ATOM     27  O   UNL     1     110.463 124.705 135.429  0.00  0.00    +0.000 OA
ATOM     28  O   UNL     1     110.377 126.135 134.612  0.00  0.00    +0.000 OA
ATOM     29  O   UNL     1     111.353 124.598 136.814  0.00  0.00    +0.000 OA
ATOM     30  C   UNL     1     110.865 125.367 135.713  0.00  0.00    +0.000 C 
ATOM     31  C   UNL     1     110.821 126.082 135.305  0.00  0.00    +0.000 C 
ATOM     32  C   UNL     1     111.309 125.313 136.406  0.00  0.00    +0.000 C 
ATOM     33  C   UNL     1     111.223 126.744 135.589  0.00  0.00    +0.000 C 
ATOM     34  C   UNL     1     111.711 125.976 136.690  0.00  0.00    +0.000 C 
BRANCH  33  36
ATOM     35  O   UNL     1     111.500 128.144 135.514  0.00  0.00    +0.000 OA
ATOM     36  C   UNL     1     111.180 127.460 135.181  0.00  0.00    +0.000 C 
ENDBRANCH  33  36
ENDBRANCH  25  34
ENDBRANCH   4  25
TORSDOF 5
ENDMDL
MODEL 5
REMARK VINA RESULT:      -9.3      2.080      3.551
REMARK  Name = 44257038
REMARK  5 active torsions:
REMARK  status: ('A' for Active; 'I' for Inactive)
REMARK    1  A    between atoms: O_2  and  C_17
REMARK    2  A    between atoms: O_2  and  C_19
REMARK    3  A    between atoms: C_16  and  C_18
REMARK    4  A    between atoms: C_22  and  C_26
REMARK    5  A    between atoms: C_28  and  C_33
REMARK                            x       y       z     vdW  Elec       q    Type
REMARK                         _______ _______ _______ _____ _____    ______ ____
ROOT
ATOM      1  O   UNL     1     112.673 125.516 136.417  0.00  0.00    +0.000 OA
ATOM      2  O   UNL     1     113.873 126.068 138.967  0.00  0.00    +0.000 OA
ATOM      3  O   UNL     1     115.382 124.586 136.947  0.00  0.00    +0.000 OA
ATOM      4  C   UNL     1     111.949 126.238 137.414  0.00  0.00    +0.000 A 
ATOM      5  C   UNL     1     112.593 126.178 137.926  0.00  0.00    +0.000 A 
ATOM      6  C   UNL     1     113.277 125.786 137.683  0.00  0.00    +0.000 A 
ATOM      7  C   UNL     1     111.989 125.907 136.660  0.00  0.00    +0.000 A 
ATOM      8  C   UNL     1     113.318 125.455 136.929  0.00  0.00    +0.000 A 
ATOM      9  C   UNL     1     113.942 125.730 138.226  0.00  0.00    +0.000 A 
ATOM     10  C   UNL     1     112.552 126.507 138.674  0.00  0.00    +0.000 A 
ATOM     11  C   UNL     1     114.024 125.045 136.664  0.00  0.00    +0.000 A 
ATOM     12  C   UNL     1     113.185 126.453 139.189  0.00  0.00    +0.000 A 
ATOM     13  C   UNL     1     114.657 125.323 137.978  0.00  0.00    +0.000 A 
ATOM     14  C   UNL     1     114.699 124.979 137.192  0.00  0.00    +0.000 A 
ENDROOT
BRANCH   7  16
ATOM     15  O   UNL     1     109.411 126.152 134.612  0.00  0.00    +0.000 OA
ATOM     16  C   UNL     1     111.344 125.968 136.148  0.00  0.00    +0.000 A 
ATOM     17  C   UNL     1     110.757 125.389 136.153  0.00  0.00    +0.000 A 
ATOM     18  C   UNL     1     111.288 126.609 135.630  0.00  0.00    +0.000 A 
ATOM     19  C   UNL     1     110.113 125.450 135.642  0.00  0.00    +0.000 A 
ATOM     20  C   UNL     1     110.644 126.670 135.119  0.00  0.00    +0.000 A 
ATOM     21  C   UNL     1     110.056 126.091 135.124  0.00  0.00    +0.000 A 
ENDBRANCH   7  16
BRANCH  12  24
ATOM     22  O   UNL     1     112.818 126.350 140.566  0.00  0.00    +0.000 OA
ATOM     23  O   UNL     1     113.387 127.562 140.066  0.00  0.00    +0.000 OA
ATOM     24  C   UNL     1     113.130 126.789 139.941  0.00  0.00    +0.000 C 
ENDBRANCH  12  24
BRANCH   4  25
ATOM     25  O   UNL     1     111.265 126.630 137.657  0.00  0.00    +0.000 OA
BRANCH  25  34
ATOM     26  O   UNL     1     110.915 128.007 137.817  0.00  0.00    +0.000 OA
ATOM     27  O   UNL     1     109.045 127.359 139.303  0.00  0.00    +0.000 OA
ATOM     28  O   UNL     1     109.319 128.950 138.968  0.00  0.00    +0.000 OA
ATOM     29  O   UNL     1     110.018 126.198 138.648  0.00  0.00    +0.000 OA
ATOM     30  C   UNL     1     109.668 127.575 138.808  0.00  0.00    +0.000 C 
ATOM     31  C   UNL     1     109.805 128.370 138.641  0.00  0.00    +0.000 C 
ATOM     32  C   UNL     1     110.154 126.994 138.480  0.00  0.00    +0.000 C 
ATOM     33  C   UNL     1     110.428 128.586 138.145  0.00  0.00    +0.000 C 
ATOM     34  C   UNL     1     110.778 127.210 137.985  0.00  0.00    +0.000 C 
BRANCH  33  36
ATOM     35  O   UNL     1     111.237 129.603 137.551  0.00  0.00    +0.000 OA
ATOM     36  C   UNL     1     110.566 129.382 137.978  0.00  0.00    +0.000 C 
ENDBRANCH  33  36
ENDBRANCH  25  34
ENDBRANCH   4  25
TORSDOF 5
ENDMDL
MODEL 6
REMARK VINA RESULT:      -9.2      2.197      3.857
REMARK  Name = 44257038
REMARK  5 active torsions:
REMARK  status: ('A' for Active; 'I' for Inactive)
REMARK    1  A    between atoms: O_2  and  C_17
REMARK    2  A    between atoms: O_2  and  C_19
REMARK    3  A    between atoms: C_16  and  C_18
REMARK    4  A    between atoms: C_22  and  C_26
REMARK    5  A    between atoms: C_28  and  C_33
REMARK                            x       y       z     vdW  Elec       q    Type
REMARK                         _______ _______ _______ _____ _____    ______ ____
ROOT
ATOM      1  O   UNL     1     111.685 125.924 136.072  0.00  0.00    +0.000 OA
ATOM      2  O   UNL     1     110.105 128.101 135.064  0.00  0.00    +0.000 OA
ATOM      3  O   UNL     1     109.230 125.346 134.615  0.00  0.00    +0.000 OA
ATOM      4  C   UNL     1     112.098 127.275 136.283  0.00  0.00    +0.000 A 
ATOM      5  C   UNL     1     111.433 127.543 135.876  0.00  0.00    +0.000 A 
ATOM      6  C   UNL     1     110.893 127.001 135.567  0.00  0.00    +0.000 A 
ATOM      7  C   UNL     1     112.224 126.466 136.380  0.00  0.00    +0.000 A 
ATOM      8  C   UNL     1     111.018 126.192 135.664  0.00  0.00    +0.000 A 
ATOM      9  C   UNL     1     110.203 127.293 135.145  0.00  0.00    +0.000 A 
ATOM     10  C   UNL     1     111.309 128.345 135.779  0.00  0.00    +0.000 A 
ATOM     11  C   UNL     1     110.464 125.617 135.347  0.00  0.00    +0.000 A 
ATOM     12  C   UNL     1     110.652 128.622 135.378  0.00  0.00    +0.000 A 
ATOM     13  C   UNL     1     109.637 126.733 134.821  0.00  0.00    +0.000 A 
ATOM     14  C   UNL     1     109.768 125.890 134.923  0.00  0.00    +0.000 A 
ENDROOT
BRANCH   7  16
ATOM     15  O   UNL     1     114.889 125.395 138.007  0.00  0.00    +0.000 OA
ATOM     16  C   UNL     1     112.890 126.198 136.787  0.00  0.00    +0.000 A 
ATOM     17  C   UNL     1     112.865 126.107 137.607  0.00  0.00    +0.000 A 
ATOM     18  C   UNL     1     113.583 126.021 136.374  0.00  0.00    +0.000 A 
ATOM     19  C   UNL     1     113.531 125.840 138.013  0.00  0.00    +0.000 A 
ATOM     20  C   UNL     1     114.249 125.754 136.780  0.00  0.00    +0.000 A 
ATOM     21  C   UNL     1     114.223 125.663 137.600  0.00  0.00    +0.000 A 
ENDBRANCH   7  16
BRANCH  12  24
ATOM     22  O   UNL     1     110.848 129.823 134.628  0.00  0.00    +0.000 OA
ATOM     23  O   UNL     1     110.122 129.858 135.858  0.00  0.00    +0.000 OA
ATOM     24  C   UNL     1     110.540 129.435 135.288  0.00  0.00    +0.000 C 
ENDBRANCH  12  24
BRANCH   4  25
ATOM     25  O   UNL     1     112.639 127.817 136.592  0.00  0.00    +0.000 OA
BRANCH  25  34
ATOM     26  O   UNL     1     113.634 128.665 136.016  0.00  0.00    +0.000 OA
ATOM     27  O   UNL     1     113.613 130.071 138.053  0.00  0.00    +0.000 OA
ATOM     28  O   UNL     1     114.616 130.450 136.799  0.00  0.00    +0.000 OA
ATOM     29  O   UNL     1     112.625 128.754 137.949  0.00  0.00    +0.000 OA
ATOM     30  C   UNL     1     113.620 129.602 137.374  0.00  0.00    +0.000 C 
ATOM     31  C   UNL     1     114.122 129.792 136.748  0.00  0.00    +0.000 C 
ATOM     32  C   UNL     1     113.126 128.944 137.323  0.00  0.00    +0.000 C 
ATOM     33  C   UNL     1     114.129 129.324 136.069  0.00  0.00    +0.000 C 
ATOM     34  C   UNL     1     113.133 128.475 136.644  0.00  0.00    +0.000 C 
BRANCH  33  36
ATOM     35  O   UNL     1     114.704 128.995 134.803  0.00  0.00    +0.000 OA
ATOM     36  C   UNL     1     114.630 129.513 135.442  0.00  0.00    +0.000 C 
ENDBRANCH  33  36
ENDBRANCH  25  34
ENDBRANCH   4  25
TORSDOF 5
ENDMDL
MODEL 7
REMARK VINA RESULT:      -9.2      1.305      3.986
REMARK  Name = 44257038
REMARK  5 active torsions:
REMARK  status: ('A' for Active; 'I' for Inactive)
REMARK    1  A    between atoms: O_2  and  C_17
REMARK    2  A    between atoms: O_2  and  C_19
REMARK    3  A    between atoms: C_16  and  C_18
REMARK    4  A    between atoms: C_22  and  C_26
REMARK    5  A    between atoms: C_28  and  C_33
REMARK                            x       y       z     vdW  Elec       q    Type
REMARK                         _______ _______ _______ _____ _____    ______ ____
ROOT
ATOM      1  O   UNL     1     112.561 126.478 136.228  0.00  0.00    +0.000 OA
ATOM      2  O   UNL     1     111.493 125.486 138.702  0.00  0.00    +0.000 OA
ATOM      3  O   UNL     1     111.804 123.673 136.429  0.00  0.00    +0.000 OA
ATOM      4  C   UNL     1     112.402 127.351 137.347  0.00  0.00    +0.000 A 
ATOM      5  C   UNL     1     112.100 126.726 137.793  0.00  0.00    +0.000 A 
ATOM      6  C   UNL     1     112.029 125.976 137.455  0.00  0.00    +0.000 A 
ATOM      7  C   UNL     1     112.632 127.227 136.565  0.00  0.00    +0.000 A 
ATOM      8  C   UNL     1     112.258 125.852 136.673  0.00  0.00    +0.000 A 
ATOM      9  C   UNL     1     111.712 125.333 137.930  0.00  0.00    +0.000 A 
ATOM     10  C   UNL     1     111.873 126.850 138.568  0.00  0.00    +0.000 A 
ATOM     11  C   UNL     1     112.189 125.077 136.310  0.00  0.00    +0.000 A 
ATOM     12  C   UNL     1     111.572 126.236 139.019  0.00  0.00    +0.000 A 
ATOM     13  C   UNL     1     111.635 124.550 137.584  0.00  0.00    +0.000 A 
ATOM     14  C   UNL     1     111.875 124.421 136.769  0.00  0.00    +0.000 A 
ENDROOT
BRANCH   7  16
ATOM     15  O   UNL     1     113.842 129.730 134.786  0.00  0.00    +0.000 OA
ATOM     16  C   UNL     1     112.934 127.853 136.120  0.00  0.00    +0.000 A 
ATOM     17  C   UNL     1     112.430 128.309 135.653  0.00  0.00    +0.000 A 
ATOM     18  C   UNL     1     113.742 128.022 136.142  0.00  0.00    +0.000 A 
ATOM     19  C   UNL     1     112.732 128.935 135.209  0.00  0.00    +0.000 A 
ATOM     20  C   UNL     1     114.044 128.648 135.697  0.00  0.00    +0.000 A 
ATOM     21  C   UNL     1     113.540 129.104 135.231  0.00  0.00    +0.000 A 
ENDBRANCH   7  16
BRANCH  12  24
ATOM     22  O   UNL     1     111.886 126.257 140.413  0.00  0.00    +0.000 OA
ATOM     23  O   UNL     1     110.582 126.634 139.968  0.00  0.00    +0.000 OA
ATOM     24  C   UNL     1     111.346 126.376 139.800  0.00  0.00    +0.000 C 
ENDBRANCH  12  24
BRANCH   4  25
ATOM     25  O   UNL     1     112.474 128.101 137.685  0.00  0.00    +0.000 OA
BRANCH  25  34
ATOM     26  O   UNL     1     111.539 129.141 137.975  0.00  0.00    +0.000 OA
ATOM     27  O   UNL     1     113.153 130.152 139.556  0.00  0.00    +0.000 OA
ATOM     28  O   UNL     1     111.680 130.855 139.319  0.00  0.00    +0.000 OA
ATOM     29  O   UNL     1     113.550 128.774 138.739  0.00  0.00    +0.000 OA
ATOM     30  C   UNL     1     112.615 129.815 139.029  0.00  0.00    +0.000 C 
ATOM     31  C   UNL     1     111.879 130.167 138.911  0.00  0.00    +0.000 C 
ATOM     32  C   UNL     1     112.814 129.126 138.621  0.00  0.00    +0.000 C 
ATOM     33  C   UNL     1     111.341 129.830 138.384  0.00  0.00    +0.000 C 
ATOM     34  C   UNL     1     112.276 128.789 138.094  0.00  0.00    +0.000 C 
BRANCH  33  36
ATOM     35  O   UNL     1     110.022 129.784 137.835  0.00  0.00    +0.000 OA
ATOM     36  C   UNL     1     110.604 130.181 138.265  0.00  0.00    +0.000 C 
ENDBRANCH  33  36
ENDBRANCH  25  34
ENDBRANCH   4  25
TORSDOF 5
ENDMDL
MODEL 8
REMARK VINA RESULT:      -9.1      2.038      3.988
REMARK  Name = 44257038
REMARK  5 active torsions:
REMARK  status: ('A' for Active; 'I' for Inactive)
REMARK    1  A    between atoms: O_2  and  C_17
REMARK    2  A    between atoms: O_2  and  C_19
REMARK    3  A    between atoms: C_16  and  C_18
REMARK    4  A    between atoms: C_22  and  C_26
REMARK    5  A    between atoms: C_28  and  C_33
REMARK                            x       y       z     vdW  Elec       q    Type
REMARK                         _______ _______ _______ _____ _____    ______ ____
ROOT
ATOM      1  O   UNL     1     113.834 126.135 138.690  0.00  0.00    +0.000 OA
ATOM      2  O   UNL     1     112.579 125.321 136.239  0.00  0.00    +0.000 OA
ATOM      3  O   UNL     1     115.295 124.419 136.845  0.00  0.00    +0.000 OA
ATOM      4  C   UNL     1     112.509 126.567 138.380  0.00  0.00    +0.000 A 
ATOM      5  C   UNL     1     112.538 126.150 137.669  0.00  0.00    +0.000 A 
ATOM      6  C   UNL     1     113.217 125.725 137.469  0.00  0.00    +0.000 A 
ATOM      7  C   UNL     1     113.156 126.559 138.890  0.00  0.00    +0.000 A 
ATOM      8  C   UNL     1     113.865 125.718 137.979  0.00  0.00    +0.000 A 
ATOM      9  C   UNL     1     113.236 125.295 136.725  0.00  0.00    +0.000 A 
ATOM     10  C   UNL     1     111.896 126.158 137.164  0.00  0.00    +0.000 A 
ATOM     11  C   UNL     1     114.577 125.280 137.782  0.00  0.00    +0.000 A 
ATOM     12  C   UNL     1     111.915 125.748 136.456  0.00  0.00    +0.000 A 
ATOM     13  C   UNL     1     113.940 124.851 136.511  0.00  0.00    +0.000 A 
ATOM     14  C   UNL     1     114.615 124.843 137.043  0.00  0.00    +0.000 A 
ENDROOT
BRANCH   7  16
ATOM     15  O   UNL     1     113.034 128.230 141.735  0.00  0.00    +0.000 OA
ATOM     16  C   UNL     1     113.126 126.977 139.602  0.00  0.00    +0.000 A 
ATOM     17  C   UNL     1     112.812 126.621 140.276  0.00  0.00    +0.000 A 
ATOM     18  C   UNL     1     113.409 127.751 139.638  0.00  0.00    +0.000 A 
ATOM     19  C   UNL     1     112.781 127.038 140.987  0.00  0.00    +0.000 A 
ATOM     20  C   UNL     1     113.379 128.169 140.348  0.00  0.00    +0.000 A 
ATOM     21  C   UNL     1     113.065 127.813 141.023  0.00  0.00    +0.000 A 
ENDBRANCH   7  16
BRANCH  12  24
ATOM     22  O   UNL     1     111.187 126.363 135.392  0.00  0.00    +0.000 OA
ATOM     23  O   UNL     1     110.677 125.185 136.020  0.00  0.00    +0.000 OA
ATOM     24  C   UNL     1     111.259 125.765 135.956  0.00  0.00    +0.000 C 
ENDBRANCH  12  24
BRANCH   4  25
ATOM     25  O   UNL     1     111.830 126.992 138.580  0.00  0.00    +0.000 OA
BRANCH  25  34
ATOM     26  O   UNL     1     111.291 128.242 138.146  0.00  0.00    +0.000 OA
ATOM     27  O   UNL     1     109.077 127.601 139.047  0.00  0.00    +0.000 OA
ATOM     28  O   UNL     1     109.277 129.064 138.313  0.00  0.00    +0.000 OA
ATOM     29  O   UNL     1     110.354 126.564 139.181  0.00  0.00    +0.000 OA
ATOM     30  C   UNL     1     109.815 127.815 138.747  0.00  0.00    +0.000 C 
ATOM     31  C   UNL     1     109.914 128.546 138.380  0.00  0.00    +0.000 C 
ATOM     32  C   UNL     1     110.453 127.296 138.814  0.00  0.00    +0.000 C 
ATOM     33  C   UNL     1     110.652 128.760 138.079  0.00  0.00    +0.000 C 
ATOM     34  C   UNL     1     111.191 127.509 138.514  0.00  0.00    +0.000 C 
BRANCH  33  36
ATOM     35  O   UNL     1     111.467 129.671 137.339  0.00  0.00    +0.000 OA
ATOM     36  C   UNL     1     110.753 129.491 137.712  0.00  0.00    +0.000 C 
ENDBRANCH  33  36
ENDBRANCH  25  34
ENDBRANCH   4  25
TORSDOF 5
ENDMDL
MODEL 9
REMARK VINA RESULT:      -9.0      1.202      3.855
REMARK  Name = 44257038
REMARK  5 active torsions:
REMARK  status: ('A' for Active; 'I' for Inactive)
REMARK    1  A    between atoms: O_2  and  C_17
REMARK    2  A    between atoms: O_2  and  C_19
REMARK    3  A    between atoms: C_16  and  C_18
REMARK    4  A    between atoms: C_22  and  C_26
REMARK    5  A    between atoms: C_28  and  C_33
REMARK                            x       y       z     vdW  Elec       q    Type
REMARK                         _______ _______ _______ _____ _____    ______ ____
ROOT
ATOM      1  O   UNL     1     113.180 126.048 138.869  0.00  0.00    +0.000 OA
ATOM      2  O   UNL     1     113.830 127.171 136.307  0.00  0.00    +0.000 OA
ATOM      3  O   UNL     1     114.761 124.483 136.989  0.00  0.00    +0.000 OA
ATOM      4  C   UNL     1     112.733 127.359 138.521  0.00  0.00    +0.000 A 
ATOM      5  C   UNL     1     113.100 127.291 137.786  0.00  0.00    +0.000 A 
ATOM      6  C   UNL     1     113.508 126.599 137.592  0.00  0.00    +0.000 A 
ATOM      7  C   UNL     1     112.773 126.738 139.062  0.00  0.00    +0.000 A 
ATOM      8  C   UNL     1     113.548 125.978 138.133  0.00  0.00    +0.000 A 
ATOM      9  C   UNL     1     113.886 126.540 136.823  0.00  0.00    +0.000 A 
ATOM     10  C   UNL     1     113.060 127.906 137.250  0.00  0.00    +0.000 A 
ATOM     11  C   UNL     1     113.969 125.254 137.944  0.00  0.00    +0.000 A 
ATOM     12  C   UNL     1     113.421 127.848 136.518  0.00  0.00    +0.000 A 
ATOM     13  C   UNL     1     114.312 125.822 136.616  0.00  0.00    +0.000 A 
ATOM     14  C   UNL     1     114.354 125.175 137.179  0.00  0.00    +0.000 A 
ENDROOT
BRANCH   7  16
ATOM     15  O   UNL     1     111.300 127.017 142.003  0.00  0.00    +0.000 OA
ATOM     16  C   UNL     1     112.405 126.808 139.798  0.00  0.00    +0.000 A 
ATOM     17  C   UNL     1     112.813 127.137 140.435  0.00  0.00    +0.000 A 
ATOM     18  C   UNL     1     111.627 126.549 139.896  0.00  0.00    +0.000 A 
ATOM     19  C   UNL     1     112.445 127.207 141.169  0.00  0.00    +0.000 A 
ATOM     20  C   UNL     1     111.259 126.618 140.631  0.00  0.00    +0.000 A 
ATOM     21  C   UNL     1     111.668 126.947 141.268  0.00  0.00    +0.000 A 
ENDBRANCH   7  16
BRANCH  12  24
ATOM     22  O   UNL     1     112.743 128.520 135.455  0.00  0.00    +0.000 OA
ATOM     23  O   UNL     1     113.952 129.064 135.989  0.00  0.00    +0.000 OA
ATOM     24  C   UNL     1     113.373 128.478 135.987  0.00  0.00    +0.000 C 
ENDBRANCH  12  24
BRANCH   4  25
ATOM     25  O   UNL     1     112.325 128.051 138.715  0.00  0.00    +0.000 OA
BRANCH  25  34
ATOM     26  O   UNL     1     111.057 128.590 138.337  0.00  0.00    +0.000 OA
ATOM     27  O   UNL     1     111.800 130.839 139.054  0.00  0.00    +0.000 OA
ATOM     28  O   UNL     1     110.285 130.628 138.438  0.00  0.00    +0.000 OA
ATOM     29  O   UNL     1     112.821 129.550 139.192  0.00  0.00    +0.000 OA
ATOM     30  C   UNL     1     111.552 130.089 138.815  0.00  0.00    +0.000 C 
ATOM     31  C   UNL     1     110.795 129.984 138.507  0.00  0.00    +0.000 C 
ATOM     32  C   UNL     1     112.063 129.445 138.884  0.00  0.00    +0.000 C 
ATOM     33  C   UNL     1     110.547 129.235 138.268  0.00  0.00    +0.000 C 
ATOM     34  C   UNL     1     111.816 128.695 138.646  0.00  0.00    +0.000 C 
BRANCH  33  36
ATOM     35  O   UNL     1     109.462 128.371 137.921  0.00  0.00    +0.000 OA
ATOM     36  C   UNL     1     109.789 129.129 137.960  0.00  0.00    +0.000 C 
ENDBRANCH  33  36
ENDBRANCH  25  34
ENDBRANCH   4  25
TORSDOF 5
ENDMDL
