MODEL 1
REMARK VINA RESULT:     -10.6      0.000      0.000
REMARK  Name = null
REMARK  6 active torsions:
REMARK  status: ('A' for Active; 'I' for Inactive)
REMARK    1  A    between atoms: C_6  and  O_8
REMARK    2  A    between atoms: O_8  and  C_9
REMARK    3  A    between atoms: C_12  and  C_35
REMARK    4  A    between atoms: C_14  and  O_15
REMARK    5  A    between atoms: O_15  and  C_16
REMARK    6  A    between atoms: C_23  and  C_27
REMARK                            x       y       z     vdW  Elec       q    Type
REMARK                         _______ _______ _______ _____ _____    ______ ____
ROOT
ATOM      1  C   UNL     1     106.400 127.496 142.797  0.00  0.00    +0.000 C 
ATOM      2  C   UNL     1     107.206 127.492 142.623  0.00  0.00    +0.000 C 
ATOM      3  C   UNL     1     107.553 128.150 142.263  0.00  0.00    +0.000 C 
ATOM      4  C   UNL     1     107.093 128.808 142.078  0.00  0.00    +0.000 C 
ATOM      5  O   UNL     1     106.288 128.812 142.252  0.00  0.00    +0.000 OA
ATOM      6  C   UNL     1     105.940 128.154 142.612  0.00  0.00    +0.000 C 
ATOM      7  O   UNL     1     108.359 128.146 142.089  0.00  0.00    +0.000 OA
ATOM      8  O   UNL     1     107.666 126.833 142.808  0.00  0.00    +0.000 OA
ENDROOT
BRANCH   4   9
ATOM      9  C   UNL     1     107.440 129.465 141.718  0.00  0.00    +0.000 C 
ATOM     10  O   UNL     1     107.263 129.647 140.933  0.00  0.00    +0.000 OA
ENDBRANCH   4   9
BRANCH   1  11
ATOM     11  O   UNL     1     106.053 126.839 143.157  0.00  0.00    +0.000 OA
BRANCH  11  17
ATOM     12  C   UNL     1     106.694 127.878 145.741  0.00  0.00    +0.000 C 
ATOM     13  C   UNL     1     106.433 127.257 145.266  0.00  0.00    +0.000 C 
ATOM     14  C   UNL     1     106.230 126.534 145.607  0.00  0.00    +0.000 C 
ATOM     15  C   UNL     1     105.967 125.913 145.132  0.00  0.00    +0.000 C 
ATOM     16  C   UNL     1     105.909 126.015 144.314  0.00  0.00    +0.000 C 
ATOM     17  C   UNL     1     106.112 126.737 143.974  0.00  0.00    +0.000 C 
ATOM     18  O   UNL     1     106.374 127.359 144.449  0.00  0.00    +0.000 OA
ATOM     19  O   UNL     1     105.647 125.393 143.840  0.00  0.00    +0.000 OA
ATOM     20  O   UNL     1     105.764 125.189 145.473  0.00  0.00    +0.000 OA
ATOM     21  O   UNL     1     106.288 126.432 146.424  0.00  0.00    +0.000 OA
ENDBRANCH  11  17
ENDBRANCH   1  11
BRANCH   6  22
ATOM     22  O   UNL     1     105.134 128.158 142.786  0.00  0.00    +0.000 OA
BRANCH  22  23
ATOM     23  C   UNL     1     104.593 128.449 142.235  0.00  0.00    +0.000 A 
ATOM     24  C   UNL     1     104.448 128.030 141.538  0.00  0.00    +0.000 A 
ATOM     25  C   UNL     1     103.908 128.321 140.988  0.00  0.00    +0.000 A 
ATOM     26  C   UNL     1     103.512 129.029 141.132  0.00  0.00    +0.000 A 
ATOM     27  C   UNL     1     102.971 129.320 140.581  0.00  0.00    +0.000 C 
ATOM     28  O   UNL     1     102.826 128.902 139.885  0.00  0.00    +0.000 OA
ATOM     29  C   UNL     1     102.575 130.029 140.726  0.00  0.00    +0.000 C 
ATOM     30  C   UNL     1     102.720 130.448 141.422  0.00  0.00    +0.000 C 
ATOM     31  O   UNL     1     103.261 130.158 141.973  0.00  0.00    +0.000 OA
ATOM     32  C   UNL     1     103.657 129.448 141.829  0.00  0.00    +0.000 A 
ATOM     33  C   UNL     1     104.197 129.158 142.380  0.00  0.00    +0.000 A 
ATOM     34  O   UNL     1     103.763 127.902 140.292  0.00  0.00    +0.000 OA
BRANCH  30  35
ATOM     35  C   UNL     1     102.324 131.158 141.566  0.00  0.00    +0.000 A 
ATOM     36  C   UNL     1     101.567 131.149 141.892  0.00  0.00    +0.000 A 
ATOM     37  C   UNL     1     101.171 131.858 142.036  0.00  0.00    +0.000 A 
ATOM     38  C   UNL     1     101.533 132.577 141.854  0.00  0.00    +0.000 A 
ATOM     39  C   UNL     1     102.292 132.586 141.528  0.00  0.00    +0.000 A 
ATOM     40  C   UNL     1     102.687 131.876 141.385  0.00  0.00    +0.000 A 
ATOM     41  O   UNL     1     101.138 133.287 141.998  0.00  0.00    +0.000 OA
ENDBRANCH  30  35
ENDBRANCH  22  23
ENDBRANCH   6  22
TORSDOF 6
ENDMDL
MODEL 2
REMARK VINA RESULT:     -10.5      7.453     10.588
REMARK  Name = null
REMARK  6 active torsions:
REMARK  status: ('A' for Active; 'I' for Inactive)
REMARK    1  A    between atoms: C_6  and  O_8
REMARK    2  A    between atoms: O_8  and  C_9
REMARK    3  A    between atoms: C_12  and  C_35
REMARK    4  A    between atoms: C_14  and  O_15
REMARK    5  A    between atoms: O_15  and  C_16
REMARK    6  A    between atoms: C_23  and  C_27
REMARK                            x       y       z     vdW  Elec       q    Type
REMARK                         _______ _______ _______ _____ _____    ______ ____
ROOT
ATOM      1  C   UNL     1     110.041 129.853 137.081  0.00  0.00    +0.000 C 
ATOM      2  C   UNL     1     109.289 129.730 136.767  0.00  0.00    +0.000 C 
ATOM      3  C   UNL     1     109.204 129.444 135.997  0.00  0.00    +0.000 C 
ATOM      4  C   UNL     1     109.873 129.282 135.542  0.00  0.00    +0.000 C 
ATOM      5  O   UNL     1     110.625 129.405 135.856  0.00  0.00    +0.000 OA
ATOM      6  C   UNL     1     110.709 129.691 136.626  0.00  0.00    +0.000 C 
ATOM      7  O   UNL     1     108.451 129.321 135.683  0.00  0.00    +0.000 OA
ATOM      8  O   UNL     1     108.620 129.893 137.222  0.00  0.00    +0.000 OA
ENDROOT
BRANCH   4   9
ATOM      9  C   UNL     1     109.788 128.996 134.773  0.00  0.00    +0.000 C 
ATOM     10  O   UNL     1     109.918 128.198 134.612  0.00  0.00    +0.000 OA
ENDBRANCH   4   9
BRANCH   1  11
ATOM     11  O   UNL     1     110.126 130.139 137.850  0.00  0.00    +0.000 OA
BRANCH  11  17
ATOM     12  C   UNL     1     110.107 132.821 136.863  0.00  0.00    +0.000 C 
ATOM     13  C   UNL     1     110.118 132.293 137.498  0.00  0.00    +0.000 C 
ATOM     14  C   UNL     1     110.130 132.578 138.271  0.00  0.00    +0.000 C 
ATOM     15  C   UNL     1     110.141 132.050 138.905  0.00  0.00    +0.000 C 
ATOM     16  C   UNL     1     110.139 131.236 138.765  0.00  0.00    +0.000 C 
ATOM     17  C   UNL     1     110.127 130.951 137.991  0.00  0.00    +0.000 C 
ATOM     18  O   UNL     1     110.116 131.480 137.357  0.00  0.00    +0.000 OA
ATOM     19  O   UNL     1     110.150 130.708 139.399  0.00  0.00    +0.000 OA
ATOM     20  O   UNL     1     110.153 132.334 139.679  0.00  0.00    +0.000 OA
ATOM     21  O   UNL     1     110.131 133.391 138.412  0.00  0.00    +0.000 OA
ENDBRANCH  11  17
ENDBRANCH   1  11
BRANCH   6  22
ATOM     22  O   UNL     1     111.463 129.813 136.940  0.00  0.00    +0.000 OA
BRANCH  22  23
ATOM     23  C   UNL     1     112.104 129.377 136.659  0.00  0.00    +0.000 A 
ATOM     24  C   UNL     1     112.654 129.730 136.154  0.00  0.00    +0.000 A 
ATOM     25  C   UNL     1     113.295 129.294 135.873  0.00  0.00    +0.000 A 
ATOM     26  C   UNL     1     113.387 128.506 136.096  0.00  0.00    +0.000 A 
ATOM     27  C   UNL     1     114.029 128.069 135.816  0.00  0.00    +0.000 C 
ATOM     28  O   UNL     1     114.578 128.422 135.311  0.00  0.00    +0.000 OA
ATOM     29  C   UNL     1     114.121 127.281 136.039  0.00  0.00    +0.000 C 
ATOM     30  C   UNL     1     113.571 126.928 136.545  0.00  0.00    +0.000 C 
ATOM     31  O   UNL     1     112.931 127.364 136.825  0.00  0.00    +0.000 OA
ATOM     32  C   UNL     1     112.838 128.153 136.602  0.00  0.00    +0.000 A 
ATOM     33  C   UNL     1     112.197 128.589 136.883  0.00  0.00    +0.000 A 
ATOM     34  O   UNL     1     113.844 129.646 135.368  0.00  0.00    +0.000 OA
BRANCH  30  35
ATOM     35  C   UNL     1     113.665 126.139 136.768  0.00  0.00    +0.000 A 
ATOM     36  C   UNL     1     113.239 125.548 136.382  0.00  0.00    +0.000 A 
ATOM     37  C   UNL     1     113.332 124.759 136.606  0.00  0.00    +0.000 A 
ATOM     38  C   UNL     1     113.851 124.562 137.216  0.00  0.00    +0.000 A 
ATOM     39  C   UNL     1     114.278 125.154 137.603  0.00  0.00    +0.000 A 
ATOM     40  C   UNL     1     114.184 125.942 137.378  0.00  0.00    +0.000 A 
ATOM     41  O   UNL     1     113.945 123.774 137.440  0.00  0.00    +0.000 OA
ENDBRANCH  30  35
ENDBRANCH  22  23
ENDBRANCH   6  22
TORSDOF 6
ENDMDL
MODEL 3
REMARK VINA RESULT:     -10.3      3.654      6.000
REMARK  Name = null
REMARK  6 active torsions:
REMARK  status: ('A' for Active; 'I' for Inactive)
REMARK    1  A    between atoms: C_6  and  O_8
REMARK    2  A    between atoms: O_8  and  C_9
REMARK    3  A    between atoms: C_12  and  C_35
REMARK    4  A    between atoms: C_14  and  O_15
REMARK    5  A    between atoms: O_15  and  C_16
REMARK    6  A    between atoms: C_23  and  C_27
REMARK                            x       y       z     vdW  Elec       q    Type
REMARK                         _______ _______ _______ _____ _____    ______ ____
ROOT
ATOM      1  C   UNL     1     107.769 126.451 141.648  0.00  0.00    +0.000 C 
ATOM      2  C   UNL     1     107.733 127.067 142.195  0.00  0.00    +0.000 C 
ATOM      3  C   UNL     1     107.021 127.465 142.322  0.00  0.00    +0.000 C 
ATOM      4  C   UNL     1     106.346 127.247 141.902  0.00  0.00    +0.000 C 
ATOM      5  O   UNL     1     106.381 126.631 141.355  0.00  0.00    +0.000 OA
ATOM      6  C   UNL     1     107.094 126.233 141.228  0.00  0.00    +0.000 C 
ATOM      7  O   UNL     1     106.985 128.082 142.869  0.00  0.00    +0.000 OA
ATOM      8  O   UNL     1     108.408 127.286 142.616  0.00  0.00    +0.000 OA
ENDROOT
BRANCH   4   9
ATOM      9  C   UNL     1     105.634 127.645 142.029  0.00  0.00    +0.000 C 
ATOM     10  O   UNL     1     105.199 127.928 141.387  0.00  0.00    +0.000 OA
ENDBRANCH   4   9
BRANCH   1  11
ATOM     11  O   UNL     1     108.480 126.053 141.521  0.00  0.00    +0.000 OA
BRANCH  11  17
ATOM     12  C   UNL     1     109.266 128.037 139.621  0.00  0.00    +0.000 C 
ATOM     13  C   UNL     1     109.445 127.370 140.071  0.00  0.00    +0.000 C 
ATOM     14  C   UNL     1     110.192 127.027 140.023  0.00  0.00    +0.000 C 
ATOM     15  C   UNL     1     110.371 126.359 140.474  0.00  0.00    +0.000 C 
ATOM     16  C   UNL     1     109.799 126.034 140.974  0.00  0.00    +0.000 C 
ATOM     17  C   UNL     1     109.051 126.377 141.022  0.00  0.00    +0.000 C 
ATOM     18  O   UNL     1     108.873 127.045 140.571  0.00  0.00    +0.000 OA
ATOM     19  O   UNL     1     109.977 125.367 141.424  0.00  0.00    +0.000 OA
ATOM     20  O   UNL     1     111.119 126.016 140.425  0.00  0.00    +0.000 OA
ATOM     21  O   UNL     1     110.764 127.351 139.524  0.00  0.00    +0.000 OA
ENDBRANCH  11  17
ENDBRANCH   1  11
BRANCH   6  22
ATOM     22  O   UNL     1     107.129 125.616 140.680  0.00  0.00    +0.000 OA
BRANCH  22  23
ATOM     23  C   UNL     1     106.535 125.043 140.663  0.00  0.00    +0.000 A 
ATOM     24  C   UNL     1     106.434 124.536 141.307  0.00  0.00    +0.000 A 
ATOM     25  C   UNL     1     105.841 123.963 141.291  0.00  0.00    +0.000 A 
ATOM     26  C   UNL     1     105.349 123.897 140.632  0.00  0.00    +0.000 A 
ATOM     27  C   UNL     1     104.756 123.324 140.615  0.00  0.00    +0.000 C 
ATOM     28  O   UNL     1     104.654 122.817 141.258  0.00  0.00    +0.000 OA
ATOM     29  C   UNL     1     104.264 123.258 139.957  0.00  0.00    +0.000 C 
ATOM     30  C   UNL     1     104.366 123.765 139.313  0.00  0.00    +0.000 C 
ATOM     31  O   UNL     1     104.959 124.338 139.330  0.00  0.00    +0.000 OA
ATOM     32  C   UNL     1     105.451 124.405 139.989  0.00  0.00    +0.000 A 
ATOM     33  C   UNL     1     106.044 124.977 140.005  0.00  0.00    +0.000 A 
ATOM     34  O   UNL     1     105.739 123.456 141.934  0.00  0.00    +0.000 OA
BRANCH  30  35
ATOM     35  C   UNL     1     103.874 123.699 138.654  0.00  0.00    +0.000 A 
ATOM     36  C   UNL     1     103.079 123.911 138.709  0.00  0.00    +0.000 A 
ATOM     37  C   UNL     1     102.587 123.844 138.050  0.00  0.00    +0.000 A 
ATOM     38  C   UNL     1     102.890 123.565 137.336  0.00  0.00    +0.000 A 
ATOM     39  C   UNL     1     103.686 123.353 137.280  0.00  0.00    +0.000 A 
ATOM     40  C   UNL     1     104.177 123.420 137.940  0.00  0.00    +0.000 A 
ATOM     41  O   UNL     1     102.399 123.498 136.677  0.00  0.00    +0.000 OA
ENDBRANCH  30  35
ENDBRANCH  22  23
ENDBRANCH   6  22
TORSDOF 6
ENDMDL
MODEL 4
REMARK VINA RESULT:     -10.3      6.950     10.161
REMARK  Name = null
REMARK  6 active torsions:
REMARK  status: ('A' for Active; 'I' for Inactive)
REMARK    1  A    between atoms: C_6  and  O_8
REMARK    2  A    between atoms: O_8  and  C_9
REMARK    3  A    between atoms: C_12  and  C_35
REMARK    4  A    between atoms: C_14  and  O_15
REMARK    5  A    between atoms: O_15  and  C_16
REMARK    6  A    between atoms: C_23  and  C_27
REMARK                            x       y       z     vdW  Elec       q    Type
REMARK                         _______ _______ _______ _____ _____    ______ ____
ROOT
ATOM      1  C   UNL     1     109.840 129.879 137.643  0.00  0.00    +0.000 C 
ATOM      2  C   UNL     1     109.580 130.060 138.404  0.00  0.00    +0.000 C 
ATOM      3  C   UNL     1     110.126 130.136 139.019  0.00  0.00    +0.000 C 
ATOM      4  C   UNL     1     110.930 130.032 138.872  0.00  0.00    +0.000 C 
ATOM      5  O   UNL     1     111.190 129.852 138.110  0.00  0.00    +0.000 OA
ATOM      6  C   UNL     1     110.644 129.775 137.495  0.00  0.00    +0.000 C 
ATOM      7  O   UNL     1     109.865 130.317 139.781  0.00  0.00    +0.000 OA
ATOM      8  O   UNL     1     108.775 130.164 138.552  0.00  0.00    +0.000 OA
ENDROOT
BRANCH   4   9
ATOM      9  C   UNL     1     111.475 130.108 139.486  0.00  0.00    +0.000 C 
ATOM     10  O   UNL     1     112.057 130.692 139.451  0.00  0.00    +0.000 OA
ENDBRANCH   4   9
BRANCH   1  11
ATOM     11  O   UNL     1     109.295 129.803 137.028  0.00  0.00    +0.000 OA
BRANCH  11  17
ATOM     12  C   UNL     1     109.608 132.555 136.325  0.00  0.00    +0.000 C 
ATOM     13  C   UNL     1     109.183 131.850 136.276  0.00  0.00    +0.000 C 
ATOM     14  C   UNL     1     108.493 131.814 135.829  0.00  0.00    +0.000 C 
ATOM     15  C   UNL     1     108.068 131.108 135.780  0.00  0.00    +0.000 C 
ATOM     16  C   UNL     1     108.336 130.437 136.180  0.00  0.00    +0.000 C 
ATOM     17  C   UNL     1     109.027 130.473 136.628  0.00  0.00    +0.000 C 
ATOM     18  O   UNL     1     109.451 131.179 136.677  0.00  0.00    +0.000 OA
ATOM     19  O   UNL     1     107.911 129.731 136.132  0.00  0.00    +0.000 OA
ATOM     20  O   UNL     1     107.376 131.072 135.332  0.00  0.00    +0.000 OA
ATOM     21  O   UNL     1     108.225 132.484 135.429  0.00  0.00    +0.000 OA
ENDBRANCH  11  17
ENDBRANCH   1  11
BRANCH   6  22
ATOM     22  O   UNL     1     110.905 129.595 136.733  0.00  0.00    +0.000 OA
BRANCH  22  23
ATOM     23  C   UNL     1     111.520 129.056 136.623  0.00  0.00    +0.000 A 
ATOM     24  C   UNL     1     112.274 129.327 136.420  0.00  0.00    +0.000 A 
ATOM     25  C   UNL     1     112.889 128.789 136.310  0.00  0.00    +0.000 A 
ATOM     26  C   UNL     1     112.752 127.981 136.402  0.00  0.00    +0.000 A 
ATOM     27  C   UNL     1     113.368 127.443 136.292  0.00  0.00    +0.000 C 
ATOM     28  O   UNL     1     114.120 127.713 136.090  0.00  0.00    +0.000 OA
ATOM     29  C   UNL     1     113.231 126.635 136.385  0.00  0.00    +0.000 C 
ATOM     30  C   UNL     1     112.477 126.364 136.588  0.00  0.00    +0.000 C 
ATOM     31  O   UNL     1     111.862 126.902 136.698  0.00  0.00    +0.000 OA
ATOM     32  C   UNL     1     111.999 127.711 136.605  0.00  0.00    +0.000 A 
ATOM     33  C   UNL     1     111.383 128.248 136.715  0.00  0.00    +0.000 A 
ATOM     34  O   UNL     1     113.641 129.059 136.108  0.00  0.00    +0.000 OA
BRANCH  30  35
ATOM     35  C   UNL     1     112.341 125.556 136.680  0.00  0.00    +0.000 A 
ATOM     36  C   UNL     1     111.797 125.171 136.195  0.00  0.00    +0.000 A 
ATOM     37  C   UNL     1     111.661 124.362 136.287  0.00  0.00    +0.000 A 
ATOM     38  C   UNL     1     112.070 123.939 136.865  0.00  0.00    +0.000 A 
ATOM     39  C   UNL     1     112.614 124.324 137.352  0.00  0.00    +0.000 A 
ATOM     40  C   UNL     1     112.750 125.133 137.258  0.00  0.00    +0.000 A 
ATOM     41  O   UNL     1     111.934 123.131 136.959  0.00  0.00    +0.000 OA
ENDBRANCH  30  35
ENDBRANCH  22  23
ENDBRANCH   6  22
TORSDOF 6
ENDMDL
MODEL 5
REMARK VINA RESULT:     -10.1      6.430      8.353
REMARK  Name = null
REMARK  6 active torsions:
REMARK  status: ('A' for Active; 'I' for Inactive)
REMARK    1  A    between atoms: C_6  and  O_8
REMARK    2  A    between atoms: O_8  and  C_9
REMARK    3  A    between atoms: C_12  and  C_35
REMARK    4  A    between atoms: C_14  and  O_15
REMARK    5  A    between atoms: O_15  and  C_16
REMARK    6  A    between atoms: C_23  and  C_27
REMARK                            x       y       z     vdW  Elec       q    Type
REMARK                         _______ _______ _______ _____ _____    ______ ____
ROOT
ATOM      1  C   UNL     1     111.379 126.467 138.260  0.00  0.00    +0.000 C 
ATOM      2  C   UNL     1     111.384 126.177 139.032  0.00  0.00    +0.000 C 
ATOM      3  C   UNL     1     110.675 126.102 139.449  0.00  0.00    +0.000 C 
ATOM      4  C   UNL     1     109.963 126.318 139.094  0.00  0.00    +0.000 C 
ATOM      5  O   UNL     1     109.959 126.609 138.323  0.00  0.00    +0.000 OA
ATOM      6  C   UNL     1     110.667 126.683 137.905  0.00  0.00    +0.000 C 
ATOM      7  O   UNL     1     110.680 125.811 140.221  0.00  0.00    +0.000 OA
ATOM      8  O   UNL     1     112.096 125.960 139.387  0.00  0.00    +0.000 OA
ENDROOT
BRANCH   4   9
ATOM      9  C   UNL     1     109.255 126.244 139.511  0.00  0.00    +0.000 C 
ATOM     10  O   UNL     1     108.575 125.982 139.125  0.00  0.00    +0.000 OA
ENDBRANCH   4   9
BRANCH   1  11
ATOM     11  O   UNL     1     112.087 126.542 137.843  0.00  0.00    +0.000 OA
BRANCH  11  17
ATOM     12  C   UNL     1     111.848 123.856 136.897  0.00  0.00    +0.000 C 
ATOM     13  C   UNL     1     112.296 124.542 136.993  0.00  0.00    +0.000 C 
ATOM     14  C   UNL     1     113.070 124.572 136.712  0.00  0.00    +0.000 C 
ATOM     15  C   UNL     1     113.518 125.259 136.808  0.00  0.00    +0.000 C 
ATOM     16  C   UNL     1     113.190 125.916 137.186  0.00  0.00    +0.000 C 
ATOM     17  C   UNL     1     112.416 125.886 137.466  0.00  0.00    +0.000 C 
ATOM     18  O   UNL     1     111.968 125.199 137.370  0.00  0.00    +0.000 OA
ATOM     19  O   UNL     1     113.638 126.602 137.282  0.00  0.00    +0.000 OA
ATOM     20  O   UNL     1     114.293 125.289 136.527  0.00  0.00    +0.000 OA
ATOM     21  O   UNL     1     113.398 123.916 136.335  0.00  0.00    +0.000 OA
ENDBRANCH  11  17
ENDBRANCH   1  11
BRANCH   6  22
ATOM     22  O   UNL     1     110.662 126.974 137.133  0.00  0.00    +0.000 OA
BRANCH  22  23
ATOM     23  C   UNL     1     110.176 127.611 136.934  0.00  0.00    +0.000 A 
ATOM     24  C   UNL     1     109.502 127.486 136.472  0.00  0.00    +0.000 A 
ATOM     25  C   UNL     1     109.016 128.121 136.273  0.00  0.00    +0.000 A 
ATOM     26  C   UNL     1     109.202 128.881 136.534  0.00  0.00    +0.000 A 
ATOM     27  C   UNL     1     108.715 129.517 136.335  0.00  0.00    +0.000 C 
ATOM     28  O   UNL     1     108.042 129.392 135.874  0.00  0.00    +0.000 OA
ATOM     29  C   UNL     1     108.901 130.276 136.596  0.00  0.00    +0.000 C 
ATOM     30  C   UNL     1     109.575 130.401 137.057  0.00  0.00    +0.000 C 
ATOM     31  O   UNL     1     110.061 129.766 137.257  0.00  0.00    +0.000 OA
ATOM     32  C   UNL     1     109.875 129.005 136.996  0.00  0.00    +0.000 A 
ATOM     33  C   UNL     1     110.361 128.370 137.195  0.00  0.00    +0.000 A 
ATOM     34  O   UNL     1     108.343 127.996 135.812  0.00  0.00    +0.000 OA
BRANCH  30  35
ATOM     35  C   UNL     1     109.760 131.161 137.318  0.00  0.00    +0.000 A 
ATOM     36  C   UNL     1     110.272 131.635 136.879  0.00  0.00    +0.000 A 
ATOM     37  C   UNL     1     110.458 132.396 137.140  0.00  0.00    +0.000 A 
ATOM     38  C   UNL     1     110.130 132.682 137.841  0.00  0.00    +0.000 A 
ATOM     39  C   UNL     1     109.617 132.208 138.282  0.00  0.00    +0.000 A 
ATOM     40  C   UNL     1     109.433 131.448 138.019  0.00  0.00    +0.000 A 
ATOM     41  O   UNL     1     110.315 133.442 138.104  0.00  0.00    +0.000 OA
ENDBRANCH  30  35
ENDBRANCH  22  23
ENDBRANCH   6  22
TORSDOF 6
ENDMDL
MODEL 6
REMARK VINA RESULT:     -10.1      6.843     10.374
REMARK  Name = null
REMARK  6 active torsions:
REMARK  status: ('A' for Active; 'I' for Inactive)
REMARK    1  A    between atoms: C_6  and  O_8
REMARK    2  A    between atoms: O_8  and  C_9
REMARK    3  A    between atoms: C_12  and  C_35
REMARK    4  A    between atoms: C_14  and  O_15
REMARK    5  A    between atoms: O_15  and  C_16
REMARK    6  A    between atoms: C_23  and  C_27
REMARK                            x       y       z     vdW  Elec       q    Type
REMARK                         _______ _______ _______ _____ _____    ______ ____
ROOT
ATOM      1  C   UNL     1     111.504 130.061 138.943  0.00  0.00    +0.000 C 
ATOM      2  C   UNL     1     111.649 130.235 139.736  0.00  0.00    +0.000 C 
ATOM      3  C   UNL     1     112.423 130.354 139.997  0.00  0.00    +0.000 C 
ATOM      4  C   UNL     1     113.051 130.298 139.466  0.00  0.00    +0.000 C 
ATOM      5  O   UNL     1     112.906 130.125 138.673  0.00  0.00    +0.000 OA
ATOM      6  C   UNL     1     112.131 130.006 138.411  0.00  0.00    +0.000 C 
ATOM      7  O   UNL     1     112.568 130.527 140.791  0.00  0.00    +0.000 OA
ATOM      8  O   UNL     1     111.021 130.290 140.268  0.00  0.00    +0.000 OA
ENDROOT
BRANCH   4   9
ATOM      9  C   UNL     1     113.824 130.417 139.727  0.00  0.00    +0.000 C 
ATOM     10  O   UNL     1     114.294 130.997 139.377  0.00  0.00    +0.000 OA
ENDBRANCH   4   9
BRANCH   1  11
ATOM     11  O   UNL     1     110.730 129.943 138.682  0.00  0.00    +0.000 OA
BRANCH  11  17
ATOM     12  C   UNL     1     110.453 132.713 138.034  0.00  0.00    +0.000 C 
ATOM     13  C   UNL     1     110.112 131.976 138.180  0.00  0.00    +0.000 C 
ATOM     14  C   UNL     1     109.293 131.886 138.148  0.00  0.00    +0.000 C 
ATOM     15  C   UNL     1     108.953 131.149 138.294  0.00  0.00    +0.000 C 
ATOM     16  C   UNL     1     109.432 130.501 138.472  0.00  0.00    +0.000 C 
ATOM     17  C   UNL     1     110.251 130.590 138.504  0.00  0.00    +0.000 C 
ATOM     18  O   UNL     1     110.592 131.328 138.358  0.00  0.00    +0.000 OA
ATOM     19  O   UNL     1     109.091 129.764 138.618  0.00  0.00    +0.000 OA
ATOM     20  O   UNL     1     108.133 131.059 138.262  0.00  0.00    +0.000 OA
ATOM     21  O   UNL     1     108.814 132.534 137.970  0.00  0.00    +0.000 OA
ENDBRANCH  11  17
ENDBRANCH   1  11
BRANCH   6  22
ATOM     22  O   UNL     1     111.986 129.832 137.618  0.00  0.00    +0.000 OA
BRANCH  22  23
ATOM     23  C   UNL     1     112.507 129.348 137.198  0.00  0.00    +0.000 A 
ATOM     24  C   UNL     1     113.027 129.680 136.649  0.00  0.00    +0.000 A 
ATOM     25  C   UNL     1     113.547 129.198 136.230  0.00  0.00    +0.000 A 
ATOM     26  C   UNL     1     113.549 128.383 136.359  0.00  0.00    +0.000 A 
ATOM     27  C   UNL     1     114.069 127.899 135.939  0.00  0.00    +0.000 C 
ATOM     28  O   UNL     1     114.588 128.231 135.391  0.00  0.00    +0.000 OA
ATOM     29  C   UNL     1     114.071 127.085 136.068  0.00  0.00    +0.000 C 
ATOM     30  C   UNL     1     113.551 126.753 136.618  0.00  0.00    +0.000 C 
ATOM     31  O   UNL     1     113.031 127.236 137.037  0.00  0.00    +0.000 OA
ATOM     32  C   UNL     1     113.029 128.051 136.908  0.00  0.00    +0.000 A 
ATOM     33  C   UNL     1     112.509 128.534 137.327  0.00  0.00    +0.000 A 
ATOM     34  O   UNL     1     114.066 129.529 135.681  0.00  0.00    +0.000 OA
BRANCH  30  35
ATOM     35  C   UNL     1     113.554 125.938 136.747  0.00  0.00    +0.000 A 
ATOM     36  C   UNL     1     112.946 125.471 136.443  0.00  0.00    +0.000 A 
ATOM     37  C   UNL     1     112.948 124.655 136.572  0.00  0.00    +0.000 A 
ATOM     38  C   UNL     1     113.559 124.308 137.005  0.00  0.00    +0.000 A 
ATOM     39  C   UNL     1     114.168 124.777 137.309  0.00  0.00    +0.000 A 
ATOM     40  C   UNL     1     114.164 125.591 137.180  0.00  0.00    +0.000 A 
ATOM     41  O   UNL     1     113.562 123.494 137.134  0.00  0.00    +0.000 OA
ENDBRANCH  30  35
ENDBRANCH  22  23
ENDBRANCH   6  22
TORSDOF 6
ENDMDL
MODEL 7
REMARK VINA RESULT:     -10.1      6.729      9.823
REMARK  Name = null
REMARK  6 active torsions:
REMARK  status: ('A' for Active; 'I' for Inactive)
REMARK    1  A    between atoms: C_6  and  O_8
REMARK    2  A    between atoms: O_8  and  C_9
REMARK    3  A    between atoms: C_12  and  C_35
REMARK    4  A    between atoms: C_14  and  O_15
REMARK    5  A    between atoms: O_15  and  C_16
REMARK    6  A    between atoms: C_23  and  C_27
REMARK                            x       y       z     vdW  Elec       q    Type
REMARK                         _______ _______ _______ _____ _____    ______ ____
ROOT
ATOM      1  C   UNL     1     109.267 129.857 137.320  0.00  0.00    +0.000 C 
ATOM      2  C   UNL     1     108.690 129.969 136.742  0.00  0.00    +0.000 C 
ATOM      3  C   UNL     1     108.613 129.425 136.125  0.00  0.00    +0.000 C 
ATOM      4  C   UNL     1     109.113 128.771 136.088  0.00  0.00    +0.000 C 
ATOM      5  O   UNL     1     109.690 128.659 136.666  0.00  0.00    +0.000 OA
ATOM      6  C   UNL     1     109.767 129.203 137.283  0.00  0.00    +0.000 C 
ATOM      7  O   UNL     1     108.035 129.537 135.547  0.00  0.00    +0.000 OA
ATOM      8  O   UNL     1     108.189 130.624 136.779  0.00  0.00    +0.000 OA
ENDROOT
BRANCH   4   9
ATOM      9  C   UNL     1     109.036 128.227 135.472  0.00  0.00    +0.000 C 
ATOM     10  O   UNL     1     109.677 128.069 134.978  0.00  0.00    +0.000 OA
ENDBRANCH   4   9
BRANCH   1  11
ATOM     11  O   UNL     1     109.344 130.400 137.936  0.00  0.00    +0.000 OA
BRANCH  11  17
ATOM     12  C   UNL     1     111.197 131.955 136.414  0.00  0.00    +0.000 C 
ATOM     13  C   UNL     1     110.683 131.883 137.055  0.00  0.00    +0.000 C 
ATOM     14  C   UNL     1     110.580 132.514 137.574  0.00  0.00    +0.000 C 
ATOM     15  C   UNL     1     110.065 132.442 138.216  0.00  0.00    +0.000 C 
ATOM     16  C   UNL     1     109.653 131.736 138.336  0.00  0.00    +0.000 C 
ATOM     17  C   UNL     1     109.755 131.105 137.816  0.00  0.00    +0.000 C 
ATOM     18  O   UNL     1     110.271 131.178 137.175  0.00  0.00    +0.000 OA
ATOM     19  O   UNL     1     109.138 131.664 138.977  0.00  0.00    +0.000 OA
ATOM     20  O   UNL     1     109.962 133.074 138.736  0.00  0.00    +0.000 OA
ATOM     21  O   UNL     1     110.991 133.219 137.455  0.00  0.00    +0.000 OA
ENDBRANCH  11  17
ENDBRANCH   1  11
BRANCH   6  22
ATOM     22  O   UNL     1     110.345 129.091 137.861  0.00  0.00    +0.000 OA
BRANCH  22  23
ATOM     23  C   UNL     1     110.538 128.328 138.110  0.00  0.00    +0.000 A 
ATOM     24  C   UNL     1     110.033 127.920 138.621  0.00  0.00    +0.000 A 
ATOM     25  C   UNL     1     110.226 127.159 138.870  0.00  0.00    +0.000 A 
ATOM     26  C   UNL     1     110.923 126.804 138.609  0.00  0.00    +0.000 A 
ATOM     27  C   UNL     1     111.117 126.041 138.859  0.00  0.00    +0.000 C 
ATOM     28  O   UNL     1     110.612 125.634 139.369  0.00  0.00    +0.000 OA
ATOM     29  C   UNL     1     111.813 125.686 138.598  0.00  0.00    +0.000 C 
ATOM     30  C   UNL     1     112.319 126.093 138.087  0.00  0.00    +0.000 C 
ATOM     31  O   UNL     1     112.126 126.855 137.838  0.00  0.00    +0.000 OA
ATOM     32  C   UNL     1     111.428 127.211 138.099  0.00  0.00    +0.000 A 
ATOM     33  C   UNL     1     111.235 127.973 137.849  0.00  0.00    +0.000 A 
ATOM     34  O   UNL     1     109.722 126.752 139.380  0.00  0.00    +0.000 OA
BRANCH  30  35
ATOM     35  C   UNL     1     113.016 125.738 137.827  0.00  0.00    +0.000 A 
ATOM     36  C   UNL     1     113.014 125.275 137.144  0.00  0.00    +0.000 A 
ATOM     37  C   UNL     1     113.711 124.919 136.884  0.00  0.00    +0.000 A 
ATOM     38  C   UNL     1     114.411 125.026 137.307  0.00  0.00    +0.000 A 
ATOM     39  C   UNL     1     114.414 125.490 137.990  0.00  0.00    +0.000 A 
ATOM     40  C   UNL     1     113.716 125.845 138.250  0.00  0.00    +0.000 A 
ATOM     41  O   UNL     1     115.109 124.671 137.047  0.00  0.00    +0.000 OA
ENDBRANCH  30  35
ENDBRANCH  22  23
ENDBRANCH   6  22
TORSDOF 6
ENDMDL
MODEL 8
REMARK VINA RESULT:     -10.0      7.666      9.846
REMARK  Name = null
REMARK  6 active torsions:
REMARK  status: ('A' for Active; 'I' for Inactive)
REMARK    1  A    between atoms: C_6  and  O_8
REMARK    2  A    between atoms: O_8  and  C_9
REMARK    3  A    between atoms: C_12  and  C_35
REMARK    4  A    between atoms: C_14  and  O_15
REMARK    5  A    between atoms: O_15  and  C_16
REMARK    6  A    between atoms: C_23  and  C_27
REMARK                            x       y       z     vdW  Elec       q    Type
REMARK                         _______ _______ _______ _____ _____    ______ ____
ROOT
ATOM      1  C   UNL     1     111.210 126.051 137.144  0.00  0.00    +0.000 C 
ATOM      2  C   UNL     1     111.479 125.449 136.650  0.00  0.00    +0.000 C 
ATOM      3  C   UNL     1     112.280 125.246 136.645  0.00  0.00    +0.000 C 
ATOM      4  C   UNL     1     112.810 125.646 137.134  0.00  0.00    +0.000 C 
ATOM      5  O   UNL     1     112.540 126.248 137.629  0.00  0.00    +0.000 OA
ATOM      6  C   UNL     1     111.740 126.451 137.634  0.00  0.00    +0.000 C 
ATOM      7  O   UNL     1     112.549 124.643 136.150  0.00  0.00    +0.000 OA
ATOM      8  O   UNL     1     110.950 125.048 136.160  0.00  0.00    +0.000 OA
ENDROOT
BRANCH   4   9
ATOM      9  C   UNL     1     113.609 125.443 137.129  0.00  0.00    +0.000 C 
ATOM     10  O   UNL     1     114.177 126.006 136.924  0.00  0.00    +0.000 OA
ENDBRANCH   4   9
BRANCH   1  11
ATOM     11  O   UNL     1     110.410 126.254 137.150  0.00  0.00    +0.000 OA
BRANCH  11  17
ATOM     12  C   UNL     1     110.854 128.059 134.979  0.00  0.00    +0.000 C 
ATOM     13  C   UNL     1     110.341 127.704 135.519  0.00  0.00    +0.000 C 
ATOM     14  C   UNL     1     109.540 127.896 135.515  0.00  0.00    +0.000 C 
ATOM     15  C   UNL     1     109.027 127.540 136.055  0.00  0.00    +0.000 C 
ATOM     16  C   UNL     1     109.318 126.992 136.601  0.00  0.00    +0.000 C 
ATOM     17  C   UNL     1     110.120 126.801 136.605  0.00  0.00    +0.000 C 
ATOM     18  O   UNL     1     110.632 127.157 136.064  0.00  0.00    +0.000 OA
ATOM     19  O   UNL     1     108.806 126.637 137.141  0.00  0.00    +0.000 OA
ATOM     20  O   UNL     1     108.225 127.732 136.051  0.00  0.00    +0.000 OA
ATOM     21  O   UNL     1     109.249 128.443 134.970  0.00  0.00    +0.000 OA
ENDBRANCH  11  17
ENDBRANCH   1  11
BRANCH   6  22
ATOM     22  O   UNL     1     111.470 127.054 138.129  0.00  0.00    +0.000 OA
BRANCH  22  23
ATOM     23  C   UNL     1     111.836 127.186 138.857  0.00  0.00    +0.000 A 
ATOM     24  C   UNL     1     111.763 126.628 139.462  0.00  0.00    +0.000 A 
ATOM     25  C   UNL     1     112.128 126.760 140.189  0.00  0.00    +0.000 A 
ATOM     26  C   UNL     1     112.566 127.447 140.313  0.00  0.00    +0.000 A 
ATOM     27  C   UNL     1     112.932 127.579 141.041  0.00  0.00    +0.000 C 
ATOM     28  O   UNL     1     112.859 127.023 141.645  0.00  0.00    +0.000 OA
ATOM     29  C   UNL     1     113.370 128.267 141.164  0.00  0.00    +0.000 C 
ATOM     30  C   UNL     1     113.443 128.824 140.559  0.00  0.00    +0.000 C 
ATOM     31  O   UNL     1     113.078 128.693 139.832  0.00  0.00    +0.000 OA
ATOM     32  C   UNL     1     112.639 128.005 139.707  0.00  0.00    +0.000 A 
ATOM     33  C   UNL     1     112.274 127.873 138.980  0.00  0.00    +0.000 A 
ATOM     34  O   UNL     1     112.056 126.203 140.794  0.00  0.00    +0.000 OA
BRANCH  30  35
ATOM     35  C   UNL     1     113.881 129.512 140.683  0.00  0.00    +0.000 A 
ATOM     36  C   UNL     1     114.646 129.574 140.382  0.00  0.00    +0.000 A 
ATOM     37  C   UNL     1     115.085 130.262 140.506  0.00  0.00    +0.000 A 
ATOM     38  C   UNL     1     114.757 130.888 140.932  0.00  0.00    +0.000 A 
ATOM     39  C   UNL     1     113.990 130.827 141.233  0.00  0.00    +0.000 A 
ATOM     40  C   UNL     1     113.553 130.138 141.108  0.00  0.00    +0.000 A 
ATOM     41  O   UNL     1     115.194 131.577 141.056  0.00  0.00    +0.000 OA
ENDBRANCH  30  35
ENDBRANCH  22  23
ENDBRANCH   6  22
TORSDOF 6
ENDMDL
MODEL 9
REMARK VINA RESULT:     -10.0      2.960      5.040
REMARK  Name = null
REMARK  6 active torsions:
REMARK  status: ('A' for Active; 'I' for Inactive)
REMARK    1  A    between atoms: C_6  and  O_8
REMARK    2  A    between atoms: O_8  and  C_9
REMARK    3  A    between atoms: C_12  and  C_35
REMARK    4  A    between atoms: C_14  and  O_15
REMARK    5  A    between atoms: O_15  and  C_16
REMARK    6  A    between atoms: C_23  and  C_27
REMARK                            x       y       z     vdW  Elec       q    Type
REMARK                         _______ _______ _______ _____ _____    ______ ____
ROOT
ATOM      1  C   UNL     1     106.285 126.574 144.710  0.00  0.00    +0.000 C 
ATOM      2  C   UNL     1     106.152 127.328 145.016  0.00  0.00    +0.000 C 
ATOM      3  C   UNL     1     105.767 127.897 144.558  0.00  0.00    +0.000 C 
ATOM      4  C   UNL     1     105.516 127.712 143.795  0.00  0.00    +0.000 C 
ATOM      5  O   UNL     1     105.649 126.958 143.489  0.00  0.00    +0.000 OA
ATOM      6  C   UNL     1     106.034 126.389 143.947  0.00  0.00    +0.000 C 
ATOM      7  O   UNL     1     105.634 128.652 144.865  0.00  0.00    +0.000 OA
ATOM      8  O   UNL     1     106.403 127.514 145.780  0.00  0.00    +0.000 OA
ENDROOT
BRANCH   4   9
ATOM      9  C   UNL     1     105.131 128.281 143.338  0.00  0.00    +0.000 C 
ATOM     10  O   UNL     1     104.447 128.083 142.923  0.00  0.00    +0.000 OA
ENDBRANCH   4   9
BRANCH   1  11
ATOM     11  O   UNL     1     106.669 126.005 145.167  0.00  0.00    +0.000 OA
BRANCH  11  17
ATOM     12  C   UNL     1     104.196 125.062 146.246  0.00  0.00    +0.000 C 
ATOM     13  C   UNL     1     105.018 125.124 146.291  0.00  0.00    +0.000 C 
ATOM     14  C   UNL     1     105.424 124.777 146.919  0.00  0.00    +0.000 C 
ATOM     15  C   UNL     1     106.246 124.839 146.964  0.00  0.00    +0.000 C 
ATOM     16  C   UNL     1     106.661 125.249 146.379  0.00  0.00    +0.000 C 
ATOM     17  C   UNL     1     106.255 125.596 145.751  0.00  0.00    +0.000 C 
ATOM     18  O   UNL     1     105.433 125.534 145.707  0.00  0.00    +0.000 OA
ATOM     19  O   UNL     1     107.482 125.311 146.424  0.00  0.00    +0.000 OA
ATOM     20  O   UNL     1     106.652 124.492 147.592  0.00  0.00    +0.000 OA
ATOM     21  O   UNL     1     105.009 124.368 147.503  0.00  0.00    +0.000 OA
ENDBRANCH  11  17
ENDBRANCH   1  11
BRANCH   6  22
ATOM     22  O   UNL     1     106.166 125.634 143.640  0.00  0.00    +0.000 OA
BRANCH  22  23
ATOM     23  C   UNL     1     106.345 125.538 142.840  0.00  0.00    +0.000 A 
ATOM     24  C   UNL     1     107.095 125.740 142.558  0.00  0.00    +0.000 A 
ATOM     25  C   UNL     1     107.274 125.645 141.759  0.00  0.00    +0.000 A 
ATOM     26  C   UNL     1     106.705 125.348 141.242  0.00  0.00    +0.000 A 
ATOM     27  C   UNL     1     106.884 125.252 140.442  0.00  0.00    +0.000 C 
ATOM     28  O   UNL     1     107.633 125.454 140.160  0.00  0.00    +0.000 OA
ATOM     29  C   UNL     1     106.315 124.955 139.924  0.00  0.00    +0.000 C 
ATOM     30  C   UNL     1     105.566 124.753 140.206  0.00  0.00    +0.000 C 
ATOM     31  O   UNL     1     105.386 124.849 141.005  0.00  0.00    +0.000 OA
ATOM     32  C   UNL     1     105.956 125.146 141.524  0.00  0.00    +0.000 A 
ATOM     33  C   UNL     1     105.776 125.241 142.323  0.00  0.00    +0.000 A 
ATOM     34  O   UNL     1     108.023 125.846 141.478  0.00  0.00    +0.000 OA
BRANCH  30  35
ATOM     35  C   UNL     1     104.997 124.456 139.688  0.00  0.00    +0.000 A 
ATOM     36  C   UNL     1     104.964 123.648 139.529  0.00  0.00    +0.000 A 
ATOM     37  C   UNL     1     104.395 123.350 139.011  0.00  0.00    +0.000 A 
ATOM     38  C   UNL     1     103.858 123.863 138.651  0.00  0.00    +0.000 A 
ATOM     39  C   UNL     1     103.890 124.673 138.809  0.00  0.00    +0.000 A 
ATOM     40  C   UNL     1     104.460 124.968 139.328  0.00  0.00    +0.000 A 
ATOM     41  O   UNL     1     103.289 123.567 138.132  0.00  0.00    +0.000 OA
ENDBRANCH  30  35
ENDBRANCH  22  23
ENDBRANCH   6  22
TORSDOF 6
ENDMDL
MODEL 10
REMARK VINA RESULT:     -10.0      3.112      5.668
REMARK  Name = null
REMARK  6 active torsions:
REMARK  status: ('A' for Active; 'I' for Inactive)
REMARK    1  A    between atoms: C_6  and  O_8
REMARK    2  A    between atoms: O_8  and  C_9
REMARK    3  A    between atoms: C_12  and  C_35
REMARK    4  A    between atoms: C_14  and  O_15
REMARK    5  A    between atoms: O_15  and  C_16
REMARK    6  A    between atoms: C_23  and  C_27
REMARK                            x       y       z     vdW  Elec       q    Type
REMARK                         _______ _______ _______ _____ _____    ______ ____
ROOT
ATOM      1  C   UNL     1     105.829 127.098 142.684  0.00  0.00    +0.000 C 
ATOM      2  C   UNL     1     105.534 127.232 143.442  0.00  0.00    +0.000 C 
ATOM      3  C   UNL     1     105.548 126.626 144.003  0.00  0.00    +0.000 C 
ATOM      4  C   UNL     1     105.857 125.888 143.805  0.00  0.00    +0.000 C 
ATOM      5  O   UNL     1     106.152 125.754 143.047  0.00  0.00    +0.000 OA
ATOM      6  C   UNL     1     106.138 126.360 142.486  0.00  0.00    +0.000 C 
ATOM      7  O   UNL     1     105.253 126.761 144.762  0.00  0.00    +0.000 OA
ATOM      8  O   UNL     1     105.224 127.971 143.641  0.00  0.00    +0.000 OA
ENDROOT
BRANCH   4   9
ATOM      9  C   UNL     1     105.871 125.283 144.366  0.00  0.00    +0.000 C 
ATOM     10  O   UNL     1     105.355 124.644 144.297  0.00  0.00    +0.000 OA
ENDBRANCH   4   9
BRANCH   1  11
ATOM     11  O   UNL     1     105.815 127.703 142.123  0.00  0.00    +0.000 OA
BRANCH  11  17
ATOM     12  C   UNL     1     108.414 128.593 142.912  0.00  0.00    +0.000 C 
ATOM     13  C   UNL     1     107.699 128.731 142.524  0.00  0.00    +0.000 C 
ATOM     14  C   UNL     1     107.568 129.450 142.144  0.00  0.00    +0.000 C 
ATOM     15  C   UNL     1     106.852 129.588 141.756  0.00  0.00    +0.000 C 
ATOM     16  C   UNL     1     106.267 129.005 141.749  0.00  0.00    +0.000 C 
ATOM     17  C   UNL     1     106.398 128.286 142.129  0.00  0.00    +0.000 C 
ATOM     18  O   UNL     1     107.114 128.148 142.517  0.00  0.00    +0.000 OA
ATOM     19  O   UNL     1     105.553 129.143 141.362  0.00  0.00    +0.000 OA
ATOM     20  O   UNL     1     106.721 130.308 141.375  0.00  0.00    +0.000 OA
ATOM     21  O   UNL     1     108.151 130.033 142.150  0.00  0.00    +0.000 OA
ENDBRANCH  11  17
ENDBRANCH   1  11
BRANCH   6  22
ATOM     22  O   UNL     1     106.433 126.225 141.727  0.00  0.00    +0.000 OA
BRANCH  22  23
ATOM     23  C   UNL     1     106.282 125.509 141.345  0.00  0.00    +0.000 A 
ATOM     24  C   UNL     1     106.822 124.887 141.408  0.00  0.00    +0.000 A 
ATOM     25  C   UNL     1     106.672 124.172 141.026  0.00  0.00    +0.000 A 
ATOM     26  C   UNL     1     105.984 124.077 140.583  0.00  0.00    +0.000 A 
ATOM     27  C   UNL     1     105.833 123.361 140.202  0.00  0.00    +0.000 C 
ATOM     28  O   UNL     1     106.372 122.740 140.264  0.00  0.00    +0.000 OA
ATOM     29  C   UNL     1     105.144 123.266 139.759  0.00  0.00    +0.000 C 
ATOM     30  C   UNL     1     104.604 123.888 139.696  0.00  0.00    +0.000 C 
ATOM     31  O   UNL     1     104.755 124.604 140.078  0.00  0.00    +0.000 OA
ATOM     32  C   UNL     1     105.444 124.699 140.521  0.00  0.00    +0.000 A 
ATOM     33  C   UNL     1     105.594 125.414 140.902  0.00  0.00    +0.000 A 
ATOM     34  O   UNL     1     107.212 123.551 141.088  0.00  0.00    +0.000 OA
BRANCH  30  35
ATOM     35  C   UNL     1     103.915 123.793 139.253  0.00  0.00    +0.000 A 
ATOM     36  C   UNL     1     103.903 124.008 138.457  0.00  0.00    +0.000 A 
ATOM     37  C   UNL     1     103.214 123.912 138.013  0.00  0.00    +0.000 A 
ATOM     38  C   UNL     1     102.536 123.602 138.367  0.00  0.00    +0.000 A 
ATOM     39  C   UNL     1     102.548 123.386 139.164  0.00  0.00    +0.000 A 
ATOM     40  C   UNL     1     103.238 123.482 139.606  0.00  0.00    +0.000 A 
ATOM     41  O   UNL     1     101.847 123.506 137.925  0.00  0.00    +0.000 OA
ENDBRANCH  30  35
ENDBRANCH  22  23
ENDBRANCH   6  22
TORSDOF 6
ENDMDL
