MODEL 1
REMARK VINA RESULT:      -9.1      0.000      0.000
REMARK  Name = 131752323
REMARK  6 active torsions:
REMARK  status: ('A' for Active; 'I' for Inactive)
REMARK    1  A    between atoms: O_2  and  C_18
REMARK    2  A    between atoms: O_2  and  C_21
REMARK    3  A    between atoms: O_11  and  C_31
REMARK    4  A    between atoms: O_13  and  C_33
REMARK    5  A    between atoms: C_19  and  C_20
REMARK    6  A    between atoms: C_22  and  C_26
REMARK                            x       y       z     vdW  Elec       q    Type
REMARK                         _______ _______ _______ _____ _____    ______ ____
ROOT
ATOM      1  O   UNL     1     113.001 128.435 138.252  0.00  0.00    +0.000 OA
ATOM      2  O   UNL     1     112.234 126.135 138.748  0.00  0.00    +0.000 OA
ATOM      3  O   UNL     1     112.653 126.261 140.123  0.00  0.00    +0.000 OA
ATOM      4  O   UNL     1     113.349 127.192 141.350  0.00  0.00    +0.000 OA
ATOM      5  C   UNL     1     112.405 127.209 137.822  0.00  0.00    +0.000 A 
ATOM      6  C   UNL     1     112.661 127.977 137.656  0.00  0.00    +0.000 A 
ATOM      7  C   UNL     1     112.490 126.902 138.583  0.00  0.00    +0.000 A 
ATOM      8  C   UNL     1     112.830 127.361 139.178  0.00  0.00    +0.000 A 
ATOM      9  C   UNL     1     113.085 128.127 139.012  0.00  0.00    +0.000 A 
ATOM     10  C   UNL     1     112.912 127.029 139.966  0.00  0.00    +0.000 A 
ATOM     11  C   UNL     1     113.441 128.615 139.623  0.00  0.00    +0.000 A 
ATOM     12  C   UNL     1     113.265 127.502 140.590  0.00  0.00    +0.000 A 
ATOM     13  C   UNL     1     113.532 128.301 140.418  0.00  0.00    +0.000 A 
ENDROOT
BRANCH   6  15
ATOM     14  O   UNL     1     112.324 129.205 134.612  0.00  0.00    +0.000 OA
ATOM     15  C   UNL     1     112.576 128.284 136.896  0.00  0.00    +0.000 A 
ATOM     16  C   UNL     1     113.237 128.361 136.407  0.00  0.00    +0.000 A 
ATOM     17  C   UNL     1     111.832 128.513 136.623  0.00  0.00    +0.000 A 
ATOM     18  C   UNL     1     113.152 128.669 135.646  0.00  0.00    +0.000 A 
ATOM     19  C   UNL     1     111.748 128.820 135.862  0.00  0.00    +0.000 A 
ATOM     20  C   UNL     1     112.408 128.898 135.373  0.00  0.00    +0.000 A 
BRANCH  18  21
ATOM     21  O   UNL     1     113.813 128.746 135.157  0.00  0.00    +0.000 OA
ATOM     22  C   UNL     1     114.532 128.998 135.472  0.00  0.00    +0.000 C 
ENDBRANCH  18  21
ENDBRANCH   6  15
BRANCH  13  23
ATOM     23  O   UNL     1     113.872 128.762 141.011  0.00  0.00    +0.000 OA
ATOM     24  C   UNL     1     114.080 129.545 140.857  0.00  0.00    +0.000 C 
ENDBRANCH  13  23
BRANCH   5  25
ATOM     25  O   UNL     1     112.065 126.750 137.227  0.00  0.00    +0.000 OA
BRANCH  25  33
ATOM     26  O   UNL     1     113.225 125.941 137.029  0.00  0.00    +0.000 OA
ATOM     27  O   UNL     1     111.787 124.040 136.362  0.00  0.00    +0.000 OA
ATOM     28  O   UNL     1     111.105 125.483 136.782  0.00  0.00    +0.000 OA
ATOM     29  O   UNL     1     113.426 123.865 136.386  0.00  0.00    +0.000 OA
ATOM     30  C   UNL     1     112.266 124.674 136.584  0.00  0.00    +0.000 C 
ATOM     31  C   UNL     1     111.925 125.396 136.795  0.00  0.00    +0.000 C 
ATOM     32  C   UNL     1     113.086 124.586 136.597  0.00  0.00    +0.000 C 
ATOM     33  C   UNL     1     112.405 126.029 137.017  0.00  0.00    +0.000 C 
ATOM     34  C   UNL     1     113.566 125.220 136.819  0.00  0.00    +0.000 C 
BRANCH  34  37
ATOM     35  O   UNL     1     114.755 124.789 137.485  0.00  0.00    +0.000 OA
ATOM     36  O   UNL     1     114.837 125.386 136.189  0.00  0.00    +0.000 OA
ATOM     37  C   UNL     1     114.385 125.132 136.831  0.00  0.00    +0.000 C 
ENDBRANCH  34  37
ENDBRANCH  25  33
ENDBRANCH   5  25
TORSDOF 6
ENDMDL
MODEL 2
REMARK VINA RESULT:      -9.0      1.505      4.149
REMARK  Name = 131752323
REMARK  6 active torsions:
REMARK  status: ('A' for Active; 'I' for Inactive)
REMARK    1  A    between atoms: O_2  and  C_18
REMARK    2  A    between atoms: O_2  and  C_21
REMARK    3  A    between atoms: O_11  and  C_31
REMARK    4  A    between atoms: O_13  and  C_33
REMARK    5  A    between atoms: C_19  and  C_20
REMARK    6  A    between atoms: C_22  and  C_26
REMARK                            x       y       z     vdW  Elec       q    Type
REMARK                         _______ _______ _______ _____ _____    ______ ____
ROOT
ATOM      1  O   UNL     1     112.992 127.201 136.275  0.00  0.00    +0.000 OA
ATOM      2  O   UNL     1     112.957 128.027 138.609  0.00  0.00    +0.000 OA
ATOM      3  O   UNL     1     113.401 129.333 138.184  0.00  0.00    +0.000 OA
ATOM      4  O   UNL     1     113.865 130.374 136.937  0.00  0.00    +0.000 OA
ATOM      5  C   UNL     1     112.754 126.973 137.667  0.00  0.00    +0.000 A 
ATOM      6  C   UNL     1     112.766 126.697 136.888  0.00  0.00    +0.000 A 
ATOM      7  C   UNL     1     112.968 127.752 137.831  0.00  0.00    +0.000 A 
ATOM      8  C   UNL     1     113.194 128.256 137.218  0.00  0.00    +0.000 A 
ATOM      9  C   UNL     1     113.206 127.981 136.441  0.00  0.00    +0.000 A 
ATOM     10  C   UNL     1     113.415 129.066 137.403  0.00  0.00    +0.000 A 
ATOM     11  C   UNL     1     113.439 128.496 135.794  0.00  0.00    +0.000 A 
ATOM     12  C   UNL     1     113.651 129.595 136.769  0.00  0.00    +0.000 A 
ATOM     13  C   UNL     1     113.663 129.309 135.959  0.00  0.00    +0.000 A 
ENDROOT
BRANCH   6  15
ATOM     14  O   UNL     1     111.906 123.580 136.230  0.00  0.00    +0.000 OA
ATOM     15  C   UNL     1     112.551 125.918 136.724  0.00  0.00    +0.000 A 
ATOM     16  C   UNL     1     111.828 125.757 136.360  0.00  0.00    +0.000 A 
ATOM     17  C   UNL     1     113.060 125.299 136.923  0.00  0.00    +0.000 A 
ATOM     18  C   UNL     1     111.613 124.978 136.196  0.00  0.00    +0.000 A 
ATOM     19  C   UNL     1     112.844 124.520 136.758  0.00  0.00    +0.000 A 
ATOM     20  C   UNL     1     112.122 124.359 136.395  0.00  0.00    +0.000 A 
BRANCH  18  21
ATOM     21  O   UNL     1     110.890 124.817 135.833  0.00  0.00    +0.000 OA
ATOM     22  C   UNL     1     110.524 125.393 135.368  0.00  0.00    +0.000 C 
ENDBRANCH  18  21
ENDBRANCH   6  15
BRANCH  13  23
ATOM     23  O   UNL     1     113.889 129.811 135.344  0.00  0.00    +0.000 OA
ATOM     24  C   UNL     1     114.125 129.495 134.619  0.00  0.00    +0.000 C 
ENDBRANCH  13  23
BRANCH   5  25
ATOM     25  O   UNL     1     112.528 126.468 138.279  0.00  0.00    +0.000 OA
BRANCH  25  33
ATOM     26  O   UNL     1     111.227 127.042 138.421  0.00  0.00    +0.000 OA
ATOM     27  O   UNL     1     111.232 126.458 140.826  0.00  0.00    +0.000 OA
ATOM     28  O   UNL     1     112.532 126.079 139.883  0.00  0.00    +0.000 OA
ATOM     29  O   UNL     1     109.931 127.226 140.167  0.00  0.00    +0.000 OA
ATOM     30  C   UNL     1     111.231 126.653 140.025  0.00  0.00    +0.000 C 
ATOM     31  C   UNL     1     111.881 126.463 139.552  0.00  0.00    +0.000 C 
ATOM     32  C   UNL     1     110.580 127.037 139.694  0.00  0.00    +0.000 C 
ATOM     33  C   UNL     1     111.879 126.658 138.751  0.00  0.00    +0.000 C 
ATOM     34  C   UNL     1     110.578 127.232 138.893  0.00  0.00    +0.000 C 
BRANCH  34  37
ATOM     35  O   UNL     1     109.865 128.437 138.610  0.00  0.00    +0.000 OA
ATOM     36  O   UNL     1     109.338 127.178 138.187  0.00  0.00    +0.000 OA
ATOM     37  C   UNL     1     109.927 127.616 138.563  0.00  0.00    +0.000 C 
ENDBRANCH  34  37
ENDBRANCH  25  33
ENDBRANCH   5  25
TORSDOF 6
ENDMDL
MODEL 3
REMARK VINA RESULT:      -9.0      1.872      4.328
REMARK  Name = 131752323
REMARK  6 active torsions:
REMARK  status: ('A' for Active; 'I' for Inactive)
REMARK    1  A    between atoms: O_2  and  C_18
REMARK    2  A    between atoms: O_2  and  C_21
REMARK    3  A    between atoms: O_11  and  C_31
REMARK    4  A    between atoms: O_13  and  C_33
REMARK    5  A    between atoms: C_19  and  C_20
REMARK    6  A    between atoms: C_22  and  C_26
REMARK                            x       y       z     vdW  Elec       q    Type
REMARK                         _______ _______ _______ _____ _____    ______ ____
ROOT
ATOM      1  O   UNL     1     113.069 127.072 136.518  0.00  0.00    +0.000 OA
ATOM      2  O   UNL     1     110.838 126.914 135.456  0.00  0.00    +0.000 OA
ATOM      3  O   UNL     1     110.818 125.484 135.646  0.00  0.00    +0.000 OA
ATOM      4  O   UNL     1     111.575 124.082 136.209  0.00  0.00    +0.000 OA
ATOM      5  C   UNL     1     111.951 127.700 135.887  0.00  0.00    +0.000 A 
ATOM      6  C   UNL     1     112.695 127.753 136.241  0.00  0.00    +0.000 A 
ATOM      7  C   UNL     1     111.582 126.966 135.810  0.00  0.00    +0.000 A 
ATOM      8  C   UNL     1     111.957 126.285 136.087  0.00  0.00    +0.000 A 
ATOM      9  C   UNL     1     112.700 126.338 136.440  0.00  0.00    +0.000 A 
ATOM     10  C   UNL     1     111.562 125.527 136.001  0.00  0.00    +0.000 A 
ATOM     11  C   UNL     1     113.100 125.637 136.733  0.00  0.00    +0.000 A 
ATOM     12  C   UNL     1     111.947 124.814 136.287  0.00  0.00    +0.000 A 
ATOM     13  C   UNL     1     112.721 124.869 136.656  0.00  0.00    +0.000 A 
ENDROOT
BRANCH   6  15
ATOM     14  O   UNL     1     114.169 130.689 136.550  0.00  0.00    +0.000 OA
ATOM     15  C   UNL     1     113.064 128.487 136.317  0.00  0.00    +0.000 A 
ATOM     16  C   UNL     1     113.089 128.860 137.053  0.00  0.00    +0.000 A 
ATOM     17  C   UNL     1     113.406 128.848 135.659  0.00  0.00    +0.000 A 
ATOM     18  C   UNL     1     113.458 129.594 137.130  0.00  0.00    +0.000 A 
ATOM     19  C   UNL     1     113.775 129.582 135.737  0.00  0.00    +0.000 A 
ATOM     20  C   UNL     1     113.801 129.955 136.472  0.00  0.00    +0.000 A 
BRANCH  18  21
ATOM     21  O   UNL     1     113.484 129.968 137.866  0.00  0.00    +0.000 OA
ATOM     22  C   UNL     1     113.467 129.518 138.557  0.00  0.00    +0.000 C 
ENDBRANCH  18  21
ENDBRANCH   6  15
BRANCH  13  23
ATOM     23  O   UNL     1     113.098 124.189 136.934  0.00  0.00    +0.000 OA
ATOM     24  C   UNL     1     113.861 124.238 137.243  0.00  0.00    +0.000 C 
ENDBRANCH  13  23
BRANCH   5  25
ATOM     25  O   UNL     1     111.577 128.381 135.610  0.00  0.00    +0.000 OA
BRANCH  25  33
ATOM     26  O   UNL     1     110.661 128.470 136.703  0.00  0.00    +0.000 OA
ATOM     27  O   UNL     1     108.973 129.488 135.206  0.00  0.00    +0.000 OA
ATOM     28  O   UNL     1     110.452 129.060 134.612  0.00  0.00    +0.000 OA
ATOM     29  O   UNL     1     108.620 129.238 136.798  0.00  0.00    +0.000 OA
ATOM     30  C   UNL     1     109.535 129.149 135.705  0.00  0.00    +0.000 C 
ATOM     31  C   UNL     1     110.275 128.935 135.408  0.00  0.00    +0.000 C 
ATOM     32  C   UNL     1     109.359 129.023 136.501  0.00  0.00    +0.000 C 
ATOM     33  C   UNL     1     110.838 128.595 135.907  0.00  0.00    +0.000 C 
ATOM     34  C   UNL     1     109.922 128.684 137.000  0.00  0.00    +0.000 C 
BRANCH  34  37
ATOM     35  O   UNL     1     109.962 129.120 138.360  0.00  0.00    +0.000 OA
ATOM     36  O   UNL     1     109.351 127.872 138.027  0.00  0.00    +0.000 OA
ATOM     37  C   UNL     1     109.745 128.559 137.795  0.00  0.00    +0.000 C 
ENDBRANCH  34  37
ENDBRANCH  25  33
ENDBRANCH   5  25
TORSDOF 6
ENDMDL
MODEL 4
REMARK VINA RESULT:      -8.9      0.947      3.397
REMARK  Name = 131752323
REMARK  6 active torsions:
REMARK  status: ('A' for Active; 'I' for Inactive)
REMARK    1  A    between atoms: O_2  and  C_18
REMARK    2  A    between atoms: O_2  and  C_21
REMARK    3  A    between atoms: O_11  and  C_31
REMARK    4  A    between atoms: O_13  and  C_33
REMARK    5  A    between atoms: C_19  and  C_20
REMARK    6  A    between atoms: C_22  and  C_26
REMARK                            x       y       z     vdW  Elec       q    Type
REMARK                         _______ _______ _______ _____ _____    ______ ____
ROOT
ATOM      1  O   UNL     1     112.727 128.395 138.183  0.00  0.00    +0.000 OA
ATOM      2  O   UNL     1     112.085 127.019 136.228  0.00  0.00    +0.000 OA
ATOM      3  O   UNL     1     112.459 128.078 135.323  0.00  0.00    +0.000 OA
ATOM      4  O   UNL     1     113.064 129.638 135.083  0.00  0.00    +0.000 OA
ATOM      5  C   UNL     1     112.217 127.174 137.643  0.00  0.00    +0.000 A 
ATOM      6  C   UNL     1     112.431 127.634 138.295  0.00  0.00    +0.000 A 
ATOM      7  C   UNL     1     112.299 127.478 136.880  0.00  0.00    +0.000 A 
ATOM      8  C   UNL     1     112.595 128.240 136.769  0.00  0.00    +0.000 A 
ATOM      9  C   UNL     1     112.809 128.698 137.420  0.00  0.00    +0.000 A 
ATOM     10  C   UNL     1     112.676 128.544 135.969  0.00  0.00    +0.000 A 
ATOM     11  C   UNL     1     113.118 129.493 137.318  0.00  0.00    +0.000 A 
ATOM     12  C   UNL     1     112.983 129.337 135.847  0.00  0.00    +0.000 A 
ATOM     13  C   UNL     1     113.206 129.815 136.525  0.00  0.00    +0.000 A 
ENDROOT
BRANCH   6  15
ATOM     14  O   UNL     1     112.105 126.418 141.345  0.00  0.00    +0.000 OA
ATOM     15  C   UNL     1     112.349 127.330 139.057  0.00  0.00    +0.000 A 
ATOM     16  C   UNL     1     113.020 127.129 139.495  0.00  0.00    +0.000 A 
ATOM     17  C   UNL     1     111.598 127.226 139.382  0.00  0.00    +0.000 A 
ATOM     18  C   UNL     1     112.938 126.826 140.258  0.00  0.00    +0.000 A 
ATOM     19  C   UNL     1     111.517 126.922 140.145  0.00  0.00    +0.000 A 
ATOM     20  C   UNL     1     112.186 126.722 140.582  0.00  0.00    +0.000 A 
BRANCH  18  21
ATOM     21  O   UNL     1     113.608 126.625 140.696  0.00  0.00    +0.000 OA
ATOM     22  C   UNL     1     114.279 127.105 140.666  0.00  0.00    +0.000 C 
ENDBRANCH  18  21
ENDBRANCH   6  15
BRANCH  13  23
ATOM     23  O   UNL     1     113.502 130.577 136.417  0.00  0.00    +0.000 OA
ATOM     24  C   UNL     1     113.803 130.999 137.059  0.00  0.00    +0.000 C 
ENDBRANCH  13  23
BRANCH   5  25
ATOM     25  O   UNL     1     111.921 126.412 137.754  0.00  0.00    +0.000 OA
BRANCH  25  33
ATOM     26  O   UNL     1     113.137 125.758 137.386  0.00  0.00    +0.000 OA
ATOM     27  O   UNL     1     111.840 123.839 136.514  0.00  0.00    +0.000 OA
ATOM     28  O   UNL     1     111.057 125.133 137.172  0.00  0.00    +0.000 OA
ATOM     29  O   UNL     1     113.488 123.825 136.437  0.00  0.00    +0.000 OA
ATOM     30  C   UNL     1     112.273 124.479 136.804  0.00  0.00    +0.000 C 
ATOM     31  C   UNL     1     111.881 125.126 137.134  0.00  0.00    +0.000 C 
ATOM     32  C   UNL     1     113.097 124.472 136.766  0.00  0.00    +0.000 C 
ATOM     33  C   UNL     1     112.313 125.766 137.425  0.00  0.00    +0.000 C 
ATOM     34  C   UNL     1     113.529 125.112 137.057  0.00  0.00    +0.000 C 
BRANCH  34  37
ATOM     35  O   UNL     1     114.794 124.864 137.673  0.00  0.00    +0.000 OA
ATOM     36  O   UNL     1     114.735 125.337 136.326  0.00  0.00    +0.000 OA
ATOM     37  C   UNL     1     114.352 125.104 137.019  0.00  0.00    +0.000 C 
ENDBRANCH  34  37
ENDBRANCH  25  33
ENDBRANCH   5  25
TORSDOF 6
ENDMDL
MODEL 5
REMARK VINA RESULT:      -8.9      1.095      3.925
REMARK  Name = 131752323
REMARK  6 active torsions:
REMARK  status: ('A' for Active; 'I' for Inactive)
REMARK    1  A    between atoms: O_2  and  C_18
REMARK    2  A    between atoms: O_2  and  C_21
REMARK    3  A    between atoms: O_11  and  C_31
REMARK    4  A    between atoms: O_13  and  C_33
REMARK    5  A    between atoms: C_19  and  C_20
REMARK    6  A    between atoms: C_22  and  C_26
REMARK                            x       y       z     vdW  Elec       q    Type
REMARK                         _______ _______ _______ _____ _____    ______ ____
ROOT
ATOM      1  O   UNL     1     113.082 127.224 136.422  0.00  0.00    +0.000 OA
ATOM      2  O   UNL     1     111.836 128.256 138.296  0.00  0.00    +0.000 OA
ATOM      3  O   UNL     1     112.161 129.579 137.821  0.00  0.00    +0.000 OA
ATOM      4  O   UNL     1     112.927 130.567 136.683  0.00  0.00    +0.000 OA
ATOM      5  C   UNL     1     112.291 127.091 137.606  0.00  0.00    +0.000 A 
ATOM      6  C   UNL     1     112.706 126.746 136.981  0.00  0.00    +0.000 A 
ATOM      7  C   UNL     1     112.252 127.912 137.671  0.00  0.00    +0.000 A 
ATOM      8  C   UNL     1     112.627 128.389 137.113  0.00  0.00    +0.000 A 
ATOM      9  C   UNL     1     113.042 128.045 136.489  0.00  0.00    +0.000 A 
ATOM     10  C   UNL     1     112.579 129.244 137.193  0.00  0.00    +0.000 A 
ATOM     11  C   UNL     1     113.438 128.531 135.901  0.00  0.00    +0.000 A 
ATOM     12  C   UNL     1     112.968 129.745 136.614  0.00  0.00    +0.000 A 
ATOM     13  C   UNL     1     113.400 129.387 135.964  0.00  0.00    +0.000 A 
ENDROOT
BRANCH   6  15
ATOM     14  O   UNL     1     112.865 123.460 136.719  0.00  0.00    +0.000 OA
ATOM     15  C   UNL     1     112.746 125.925 136.915  0.00  0.00    +0.000 A 
ATOM     16  C   UNL     1     113.439 125.528 137.122  0.00  0.00    +0.000 A 
ATOM     17  C   UNL     1     112.092 125.501 136.643  0.00  0.00    +0.000 A 
ATOM     18  C   UNL     1     113.478 124.706 137.056  0.00  0.00    +0.000 A 
ATOM     19  C   UNL     1     112.133 124.679 136.578  0.00  0.00    +0.000 A 
ATOM     20  C   UNL     1     112.825 124.282 136.784  0.00  0.00    +0.000 A 
BRANCH  18  21
ATOM     21  O   UNL     1     114.172 124.309 137.263  0.00  0.00    +0.000 OA
ATOM     22  C   UNL     1     114.895 124.705 137.246  0.00  0.00    +0.000 C 
ENDBRANCH  18  21
ENDBRANCH   6  15
BRANCH  13  23
ATOM     23  O   UNL     1     113.777 129.862 135.404  0.00  0.00    +0.000 OA
ATOM     24  C   UNL     1     114.218 129.516 134.799  0.00  0.00    +0.000 C 
ENDBRANCH  13  23
BRANCH   5  25
ATOM     25  O   UNL     1     111.915 126.613 138.164  0.00  0.00    +0.000 OA
BRANCH  25  33
ATOM     26  O   UNL     1     112.897 126.871 139.170  0.00  0.00    +0.000 OA
ATOM     27  O   UNL     1     111.217 126.411 140.928  0.00  0.00    +0.000 OA
ATOM     28  O   UNL     1     110.795 126.306 139.336  0.00  0.00    +0.000 OA
ATOM     29  O   UNL     1     112.759 126.821 141.347  0.00  0.00    +0.000 OA
ATOM     30  C   UNL     1     111.777 126.564 140.342  0.00  0.00    +0.000 C 
ATOM     31  C   UNL     1     111.566 126.512 139.545  0.00  0.00    +0.000 C 
ATOM     32  C   UNL     1     112.548 126.770 140.551  0.00  0.00    +0.000 C 
ATOM     33  C   UNL     1     112.126 126.665 138.959  0.00  0.00    +0.000 C 
ATOM     34  C   UNL     1     113.108 126.923 139.965  0.00  0.00    +0.000 C 
BRANCH  34  37
ATOM     35  O   UNL     1     114.056 127.906 140.387  0.00  0.00    +0.000 OA
ATOM     36  O   UNL     1     114.473 126.556 140.172  0.00  0.00    +0.000 OA
ATOM     37  C   UNL     1     113.879 127.128 140.175  0.00  0.00    +0.000 C 
ENDBRANCH  34  37
ENDBRANCH  25  33
ENDBRANCH   5  25
TORSDOF 6
ENDMDL
MODEL 6
REMARK VINA RESULT:      -8.8      3.584      5.841
REMARK  Name = 131752323
REMARK  6 active torsions:
REMARK  status: ('A' for Active; 'I' for Inactive)
REMARK    1  A    between atoms: O_2  and  C_18
REMARK    2  A    between atoms: O_2  and  C_21
REMARK    3  A    between atoms: O_11  and  C_31
REMARK    4  A    between atoms: O_13  and  C_33
REMARK    5  A    between atoms: C_19  and  C_20
REMARK    6  A    between atoms: C_22  and  C_26
REMARK                            x       y       z     vdW  Elec       q    Type
REMARK                         _______ _______ _______ _____ _____    ______ ____
ROOT
ATOM      1  O   UNL     1     111.873 129.529 135.865  0.00  0.00    +0.000 OA
ATOM      2  O   UNL     1     112.309 130.891 137.886  0.00  0.00    +0.000 OA
ATOM      3  O   UNL     1     113.707 130.997 137.548  0.00  0.00    +0.000 OA
ATOM      4  O   UNL     1     114.980 130.631 136.498  0.00  0.00    +0.000 OA
ATOM      5  C   UNL     1     111.401 130.165 137.055  0.00  0.00    +0.000 A 
ATOM      6  C   UNL     1     111.256 129.711 136.381  0.00  0.00    +0.000 A 
ATOM      7  C   UNL     1     112.164 130.437 137.212  0.00  0.00    +0.000 A 
ATOM      8  C   UNL     1     112.781 130.255 136.696  0.00  0.00    +0.000 A 
ATOM      9  C   UNL     1     112.636 129.801 136.023  0.00  0.00    +0.000 A 
ATOM     10  C   UNL     1     113.572 130.544 136.872  0.00  0.00    +0.000 A 
ATOM     11  C   UNL     1     113.270 129.605 135.478  0.00  0.00    +0.000 A 
ATOM     12  C   UNL     1     114.218 130.357 136.338  0.00  0.00    +0.000 A 
ATOM     13  C   UNL     1     114.068 129.885 135.636  0.00  0.00    +0.000 A 
ENDROOT
BRANCH   6  15
ATOM     14  O   UNL     1     108.204 128.623 135.754  0.00  0.00    +0.000 OA
ATOM     15  C   UNL     1     110.493 129.439 136.223  0.00  0.00    +0.000 A 
ATOM     16  C   UNL     1     110.186 128.803 136.650  0.00  0.00    +0.000 A 
ATOM     17  C   UNL     1     110.037 129.804 135.640  0.00  0.00    +0.000 A 
ATOM     18  C   UNL     1     109.423 128.531 136.493  0.00  0.00    +0.000 A 
ATOM     19  C   UNL     1     109.274 129.531 135.484  0.00  0.00    +0.000 A 
ATOM     20  C   UNL     1     108.967 128.895 135.910  0.00  0.00    +0.000 A 
BRANCH  18  21
ATOM     21  O   UNL     1     109.116 127.894 136.920  0.00  0.00    +0.000 OA
ATOM     22  C   UNL     1     109.573 127.218 137.037  0.00  0.00    +0.000 C 
ENDBRANCH  18  21
ENDBRANCH   6  15
BRANCH  13  23
ATOM     23  O   UNL     1     114.683 129.701 135.119  0.00  0.00    +0.000 OA
ATOM     24  C   UNL     1     114.617 129.054 134.612  0.00  0.00    +0.000 C 
ENDBRANCH  13  23
BRANCH   5  25
ATOM     25  O   UNL     1     110.783 130.347 137.570  0.00  0.00    +0.000 OA
BRANCH  25  33
ATOM     26  O   UNL     1     110.632 131.704 137.149  0.00  0.00    +0.000 OA
ATOM     27  O   UNL     1     110.046 132.358 139.462  0.00  0.00    +0.000 OA
ATOM     28  O   UNL     1     110.392 130.783 139.113  0.00  0.00    +0.000 OA
ATOM     29  O   UNL     1     110.091 133.496 138.270  0.00  0.00    +0.000 OA
ATOM     30  C   UNL     1     110.242 132.140 138.691  0.00  0.00    +0.000 C 
ATOM     31  C   UNL     1     110.415 131.352 138.516  0.00  0.00    +0.000 C 
ATOM     32  C   UNL     1     110.264 132.709 138.094  0.00  0.00    +0.000 C 
ATOM     33  C   UNL     1     110.610 131.134 137.745  0.00  0.00    +0.000 C 
ATOM     34  C   UNL     1     110.460 132.491 137.323  0.00  0.00    +0.000 C 
BRANCH  34  37
ATOM     35  O   UNL     1     109.844 133.142 136.210  0.00  0.00    +0.000 OA
ATOM     36  O   UNL     1     111.142 133.547 136.647  0.00  0.00    +0.000 OA
ATOM     37  C   UNL     1     110.482 133.060 136.727  0.00  0.00    +0.000 C 
ENDBRANCH  34  37
ENDBRANCH  25  33
ENDBRANCH   5  25
TORSDOF 6
ENDMDL
MODEL 7
REMARK VINA RESULT:      -8.7      2.358      4.251
REMARK  Name = 131752323
REMARK  6 active torsions:
REMARK  status: ('A' for Active; 'I' for Inactive)
REMARK    1  A    between atoms: O_2  and  C_18
REMARK    2  A    between atoms: O_2  and  C_21
REMARK    3  A    between atoms: O_11  and  C_31
REMARK    4  A    between atoms: O_13  and  C_33
REMARK    5  A    between atoms: C_19  and  C_20
REMARK    6  A    between atoms: C_22  and  C_26
REMARK                            x       y       z     vdW  Elec       q    Type
REMARK                         _______ _______ _______ _____ _____    ______ ____
ROOT
ATOM      1  O   UNL     1     110.810 129.936 135.724  0.00  0.00    +0.000 OA
ATOM      2  O   UNL     1     109.436 127.897 135.432  0.00  0.00    +0.000 OA
ATOM      3  O   UNL     1     108.228 128.638 135.705  0.00  0.00    +0.000 OA
ATOM      4  O   UNL     1     107.477 130.104 136.084  0.00  0.00    +0.000 OA
ATOM      5  C   UNL     1     110.713 128.538 135.442  0.00  0.00    +0.000 A 
ATOM      6  C   UNL     1     111.172 129.218 135.539  0.00  0.00    +0.000 A 
ATOM      7  C   UNL     1     109.894 128.577 135.530  0.00  0.00    +0.000 A 
ATOM      8  C   UNL     1     109.533 129.296 135.715  0.00  0.00    +0.000 A 
ATOM      9  C   UNL     1     109.991 129.974 135.812  0.00  0.00    +0.000 A 
ATOM     10  C   UNL     1     108.678 129.323 135.804  0.00  0.00    +0.000 A 
ATOM     11  C   UNL     1     109.627 130.728 136.005  0.00  0.00    +0.000 A 
ATOM     12  C   UNL     1     108.297 130.068 135.997  0.00  0.00    +0.000 A 
ATOM     13  C   UNL     1     108.774 130.776 136.098  0.00  0.00    +0.000 A 
ENDROOT
BRANCH   6  15
ATOM     14  O   UNL     1     114.449 129.060 135.189  0.00  0.00    +0.000 OA
ATOM     15  C   UNL     1     111.991 129.178 135.451  0.00  0.00    +0.000 A 
ATOM     16  C   UNL     1     112.479 129.209 136.116  0.00  0.00    +0.000 A 
ATOM     17  C   UNL     1     112.323 129.108 134.699  0.00  0.00    +0.000 A 
ATOM     18  C   UNL     1     113.298 129.169 136.028  0.00  0.00    +0.000 A 
ATOM     19  C   UNL     1     113.142 129.069 134.612  0.00  0.00    +0.000 A 
ATOM     20  C   UNL     1     113.630 129.099 135.276  0.00  0.00    +0.000 A 
BRANCH  18  21
ATOM     21  O   UNL     1     113.786 129.200 136.694  0.00  0.00    +0.000 OA
ATOM     22  C   UNL     1     113.556 129.637 137.354  0.00  0.00    +0.000 C 
ENDBRANCH  18  21
ENDBRANCH   6  15
BRANCH  13  23
ATOM     23  O   UNL     1     108.415 131.495 136.283  0.00  0.00    +0.000 OA
ATOM     24  C   UNL     1     108.879 132.159 136.439  0.00  0.00    +0.000 C 
ENDBRANCH  13  23
BRANCH   5  25
ATOM     25  O   UNL     1     111.075 127.820 135.256  0.00  0.00    +0.000 OA
BRANCH  25  33
ATOM     26  O   UNL     1     110.978 127.282 136.577  0.00  0.00    +0.000 OA
ATOM     27  O   UNL     1     110.738 125.007 135.633  0.00  0.00    +0.000 OA
ATOM     28  O   UNL     1     110.915 126.303 134.627  0.00  0.00    +0.000 OA
ATOM     29  O   UNL     1     110.720 125.228 137.267  0.00  0.00    +0.000 OA
ATOM     30  C   UNL     1     110.818 125.765 135.947  0.00  0.00    +0.000 C 
ATOM     31  C   UNL     1     110.906 126.414 135.444  0.00  0.00    +0.000 C 
ATOM     32  C   UNL     1     110.809 125.876 136.765  0.00  0.00    +0.000 C 
ATOM     33  C   UNL     1     110.986 127.172 135.759  0.00  0.00    +0.000 C 
ATOM     34  C   UNL     1     110.889 126.634 137.079  0.00  0.00    +0.000 C 
BRANCH  34  37
ATOM     35  O   UNL     1     110.162 126.804 138.298  0.00  0.00    +0.000 OA
ATOM     36  O   UNL     1     111.590 126.795 138.313  0.00  0.00    +0.000 OA
ATOM     37  C   UNL     1     110.880 126.745 137.896  0.00  0.00    +0.000 C 
ENDBRANCH  34  37
ENDBRANCH  25  33
ENDBRANCH   5  25
TORSDOF 6
ENDMDL
MODEL 8
REMARK VINA RESULT:      -8.6      1.699      5.004
REMARK  Name = 131752323
REMARK  6 active torsions:
REMARK  status: ('A' for Active; 'I' for Inactive)
REMARK    1  A    between atoms: O_2  and  C_18
REMARK    2  A    between atoms: O_2  and  C_21
REMARK    3  A    between atoms: O_11  and  C_31
REMARK    4  A    between atoms: O_13  and  C_33
REMARK    5  A    between atoms: C_19  and  C_20
REMARK    6  A    between atoms: C_22  and  C_26
REMARK                            x       y       z     vdW  Elec       q    Type
REMARK                         _______ _______ _______ _____ _____    ______ ____
ROOT
ATOM      1  O   UNL     1     111.586 127.141 136.404  0.00  0.00    +0.000 OA
ATOM      2  O   UNL     1     112.396 129.077 135.090  0.00  0.00    +0.000 OA
ATOM      3  O   UNL     1     111.046 129.424 134.716  0.00  0.00    +0.000 OA
ATOM      4  O   UNL     1     109.389 129.101 134.792  0.00  0.00    +0.000 OA
ATOM      5  C   UNL     1     112.664 127.949 135.925  0.00  0.00    +0.000 A 
ATOM      6  C   UNL     1     112.394 127.303 136.363  0.00  0.00    +0.000 A 
ATOM      7  C   UNL     1     112.126 128.432 135.528  0.00  0.00    +0.000 A 
ATOM      8  C   UNL     1     111.318 128.270 135.569  0.00  0.00    +0.000 A 
ATOM      9  C   UNL     1     111.048 127.625 136.007  0.00  0.00    +0.000 A 
ATOM     10  C   UNL     1     110.767 128.780 135.151  0.00  0.00    +0.000 A 
ATOM     11  C   UNL     1     110.210 127.445 136.057  0.00  0.00    +0.000 A 
ATOM     12  C   UNL     1     109.925 128.616 135.190  0.00  0.00    +0.000 A 
ATOM     13  C   UNL     1     109.644 127.944 135.646  0.00  0.00    +0.000 A 
ENDROOT
BRANCH   6  15
ATOM     14  O   UNL     1     114.548 125.373 137.952  0.00  0.00    +0.000 OA
ATOM     15  C   UNL     1     112.933 126.820 136.760  0.00  0.00    +0.000 A 
ATOM     16  C   UNL     1     112.997 126.864 137.582  0.00  0.00    +0.000 A 
ATOM     17  C   UNL     1     113.407 126.295 136.335  0.00  0.00    +0.000 A 
ATOM     18  C   UNL     1     113.536 126.381 137.978  0.00  0.00    +0.000 A 
ATOM     19  C   UNL     1     113.945 125.813 136.733  0.00  0.00    +0.000 A 
ATOM     20  C   UNL     1     114.010 125.855 137.554  0.00  0.00    +0.000 A 
BRANCH  18  21
ATOM     21  O   UNL     1     113.600 126.424 138.800  0.00  0.00    +0.000 OA
ATOM     22  C   UNL     1     112.954 126.664 139.253  0.00  0.00    +0.000 C 
ENDBRANCH  18  21
ENDBRANCH   6  15
BRANCH  13  23
ATOM     23  O   UNL     1     108.836 127.780 135.689  0.00  0.00    +0.000 OA
ATOM     24  C   UNL     1     108.580 127.020 135.882  0.00  0.00    +0.000 C 
ENDBRANCH  13  23
BRANCH   5  25
ATOM     25  O   UNL     1     113.472 128.111 135.884  0.00  0.00    +0.000 OA
BRANCH  25  33
ATOM     26  O   UNL     1     113.438 129.211 136.795  0.00  0.00    +0.000 OA
ATOM     27  O   UNL     1     115.258 130.314 135.531  0.00  0.00    +0.000 OA
ATOM     28  O   UNL     1     114.685 128.846 135.042  0.00  0.00    +0.000 OA
ATOM     29  O   UNL     1     114.617 131.046 136.863  0.00  0.00    +0.000 OA
ATOM     30  C   UNL     1     114.651 129.947 135.953  0.00  0.00    +0.000 C 
ATOM     31  C   UNL     1     114.365 129.212 135.708  0.00  0.00    +0.000 C 
ATOM     32  C   UNL     1     114.331 130.312 136.619  0.00  0.00    +0.000 C 
ATOM     33  C   UNL     1     113.758 128.844 136.129  0.00  0.00    +0.000 C 
ATOM     34  C   UNL     1     113.724 129.945 137.040  0.00  0.00    +0.000 C 
BRANCH  34  37
ATOM     35  O   UNL     1     113.671 130.106 138.459  0.00  0.00    +0.000 OA
ATOM     36  O   UNL     1     112.816 130.883 137.619  0.00  0.00    +0.000 OA
ATOM     37  C   UNL     1     113.404 130.311 137.705  0.00  0.00    +0.000 C 
ENDBRANCH  34  37
ENDBRANCH  25  33
ENDBRANCH   5  25
TORSDOF 6
ENDMDL
MODEL 9
REMARK VINA RESULT:      -8.5      1.507      2.607
REMARK  Name = 131752323
REMARK  6 active torsions:
REMARK  status: ('A' for Active; 'I' for Inactive)
REMARK    1  A    between atoms: O_2  and  C_18
REMARK    2  A    between atoms: O_2  and  C_21
REMARK    3  A    between atoms: O_11  and  C_31
REMARK    4  A    between atoms: O_13  and  C_33
REMARK    5  A    between atoms: C_19  and  C_20
REMARK    6  A    between atoms: C_22  and  C_26
REMARK                            x       y       z     vdW  Elec       q    Type
REMARK                         _______ _______ _______ _____ _____    ______ ____
ROOT
ATOM      1  O   UNL     1     112.894 127.765 138.326  0.00  0.00    +0.000 OA
ATOM      2  O   UNL     1     111.440 125.804 137.915  0.00  0.00    +0.000 OA
ATOM      3  O   UNL     1     111.241 125.618 139.332  0.00  0.00    +0.000 OA
ATOM      4  O   UNL     1     111.545 126.114 140.919  0.00  0.00    +0.000 OA
ATOM      5  C   UNL     1     112.257 126.864 137.416  0.00  0.00    +0.000 A 
ATOM      6  C   UNL     1     112.742 127.519 137.554  0.00  0.00    +0.000 A 
ATOM      7  C   UNL     1     111.925 126.458 138.052  0.00  0.00    +0.000 A 
ATOM      8  C   UNL     1     112.077 126.704 138.825  0.00  0.00    +0.000 A 
ATOM      9  C   UNL     1     112.561 127.357 138.962  0.00  0.00    +0.000 A 
ATOM     10  C   UNL     1     111.724 126.271 139.479  0.00  0.00    +0.000 A 
ATOM     11  C   UNL     1     112.727 127.624 139.761  0.00  0.00    +0.000 A 
ATOM     12  C   UNL     1     111.879 126.523 140.285  0.00  0.00    +0.000 A 
ATOM     13  C   UNL     1     112.384 127.204 140.428  0.00  0.00    +0.000 A 
ENDROOT
BRANCH   6  15
ATOM     14  O   UNL     1     114.069 129.148 135.009  0.00  0.00    +0.000 OA
ATOM     15  C   UNL     1     113.074 127.925 136.917  0.00  0.00    +0.000 A 
ATOM     16  C   UNL     1     112.788 128.672 136.711  0.00  0.00    +0.000 A 
ATOM     17  C   UNL     1     113.692 127.587 136.488  0.00  0.00    +0.000 A 
ATOM     18  C   UNL     1     113.120 129.079 136.075  0.00  0.00    +0.000 A 
ATOM     19  C   UNL     1     114.023 127.995 135.852  0.00  0.00    +0.000 A 
ATOM     20  C   UNL     1     113.738 128.740 135.645  0.00  0.00    +0.000 A 
BRANCH  18  21
ATOM     21  O   UNL     1     112.833 129.825 135.868  0.00  0.00    +0.000 OA
ATOM     22  C   UNL     1     112.517 130.320 136.447  0.00  0.00    +0.000 C 
ENDBRANCH  18  21
ENDBRANCH   6  15
BRANCH  13  23
ATOM     23  O   UNL     1     112.537 127.453 141.200  0.00  0.00    +0.000 OA
ATOM     24  C   UNL     1     112.861 128.200 141.336  0.00  0.00    +0.000 C 
ENDBRANCH  13  23
BRANCH   5  25
ATOM     25  O   UNL     1     112.105 126.618 136.644  0.00  0.00    +0.000 OA
BRANCH  25  33
ATOM     26  O   UNL     1     110.790 127.174 136.594  0.00  0.00    +0.000 OA
ATOM     27  O   UNL     1     110.083 125.365 135.061  0.00  0.00    +0.000 OA
ATOM     28  O   UNL     1     111.634 125.412 135.621  0.00  0.00    +0.000 OA
ATOM     29  O   UNL     1     109.004 126.523 135.522  0.00  0.00    +0.000 OA
ATOM     30  C   UNL     1     110.318 125.968 135.572  0.00  0.00    +0.000 C 
ATOM     31  C   UNL     1     111.095 125.992 135.853  0.00  0.00    +0.000 C 
ATOM     32  C   UNL     1     109.779 126.548 135.803  0.00  0.00    +0.000 C 
ATOM     33  C   UNL     1     111.330 126.595 136.364  0.00  0.00    +0.000 C 
ATOM     34  C   UNL     1     110.015 127.151 136.314  0.00  0.00    +0.000 C 
BRANCH  34  37
ATOM     35  O   UNL     1     108.964 127.590 137.178  0.00  0.00    +0.000 OA
ATOM     36  O   UNL     1     109.446 128.449 136.142  0.00  0.00    +0.000 OA
ATOM     37  C   UNL     1     109.475 127.730 136.545  0.00  0.00    +0.000 C 
ENDBRANCH  34  37
ENDBRANCH  25  33
ENDBRANCH   5  25
TORSDOF 6
ENDMDL
MODEL 10
REMARK VINA RESULT:      -8.5      1.722      3.791
REMARK  Name = 131752323
REMARK  6 active torsions:
REMARK  status: ('A' for Active; 'I' for Inactive)
REMARK    1  A    between atoms: O_2  and  C_18
REMARK    2  A    between atoms: O_2  and  C_21
REMARK    3  A    between atoms: O_11  and  C_31
REMARK    4  A    between atoms: O_13  and  C_33
REMARK    5  A    between atoms: C_19  and  C_20
REMARK    6  A    between atoms: C_22  and  C_26
REMARK                            x       y       z     vdW  Elec       q    Type
REMARK                         _______ _______ _______ _____ _____    ______ ____
ROOT
ATOM      1  O   UNL     1     111.469 129.127 135.785  0.00  0.00    +0.000 OA
ATOM      2  O   UNL     1     111.405 126.765 136.522  0.00  0.00    +0.000 OA
ATOM      3  O   UNL     1     109.962 126.769 136.505  0.00  0.00    +0.000 OA
ATOM      4  O   UNL     1     108.515 127.597 136.231  0.00  0.00    +0.000 OA
ATOM      5  C   UNL     1     112.151 127.931 136.166  0.00  0.00    +0.000 A 
ATOM      6  C   UNL     1     112.173 128.718 135.920  0.00  0.00    +0.000 A 
ATOM      7  C   UNL     1     111.426 127.553 136.276  0.00  0.00    +0.000 A 
ATOM      8  C   UNL     1     110.723 127.962 136.141  0.00  0.00    +0.000 A 
ATOM      9  C   UNL     1     110.744 128.749 135.895  0.00  0.00    +0.000 A 
ATOM     10  C   UNL     1     109.974 127.557 136.259  0.00  0.00    +0.000 A 
ATOM     11  C   UNL     1     110.019 129.186 135.751  0.00  0.00    +0.000 A 
ATOM     12  C   UNL     1     109.239 127.978 136.120  0.00  0.00    +0.000 A 
ATOM     13  C   UNL     1     109.260 128.798 135.864  0.00  0.00    +0.000 A 
ENDROOT
BRANCH   6  15
ATOM     14  O   UNL     1     115.073 130.231 135.482  0.00  0.00    +0.000 OA
ATOM     15  C   UNL     1     112.898 129.096 135.810  0.00  0.00    +0.000 A 
ATOM     16  C   UNL     1     113.159 129.654 136.360  0.00  0.00    +0.000 A 
ATOM     17  C   UNL     1     113.361 128.917 135.152  0.00  0.00    +0.000 A 
ATOM     18  C   UNL     1     113.884 130.031 136.250  0.00  0.00    +0.000 A 
ATOM     19  C   UNL     1     114.086 129.295 135.043  0.00  0.00    +0.000 A 
ATOM     20  C   UNL     1     114.348 129.852 135.591  0.00  0.00    +0.000 A 
BRANCH  18  21
ATOM     21  O   UNL     1     114.146 130.589 136.799  0.00  0.00    +0.000 OA
ATOM     22  C   UNL     1     113.600 131.037 137.226  0.00  0.00    +0.000 C 
ENDBRANCH  18  21
ENDBRANCH   6  15
BRANCH  13  23
ATOM     23  O   UNL     1     108.558 129.209 135.727  0.00  0.00    +0.000 OA
ATOM     24  C   UNL     1     108.555 130.034 135.736  0.00  0.00    +0.000 C 
ENDBRANCH  13  23
BRANCH   5  25
ATOM     25  O   UNL     1     112.855 127.522 136.302  0.00  0.00    +0.000 OA
BRANCH  25  33
ATOM     26  O   UNL     1     112.771 127.614 137.725  0.00  0.00    +0.000 OA
ATOM     27  O   UNL     1     113.970 125.459 137.936  0.00  0.00    +0.000 OA
ATOM     28  O   UNL     1     113.654 126.085 136.442  0.00  0.00    +0.000 OA
ATOM     29  O   UNL     1     113.487 126.270 139.288  0.00  0.00    +0.000 OA
ATOM     30  C   UNL     1     113.570 126.177 137.866  0.00  0.00    +0.000 C 
ATOM     31  C   UNL     1     113.412 126.491 137.118  0.00  0.00    +0.000 C 
ATOM     32  C   UNL     1     113.328 126.583 138.542  0.00  0.00    +0.000 C 
ATOM     33  C   UNL     1     113.013 127.209 137.048  0.00  0.00    +0.000 C 
ATOM     34  C   UNL     1     112.929 127.302 138.472  0.00  0.00    +0.000 C 
BRANCH  34  37
ATOM     35  O   UNL     1     111.971 127.517 139.510  0.00  0.00    +0.000 OA
ATOM     36  O   UNL     1     113.163 128.303 139.463  0.00  0.00    +0.000 OA
ATOM     37  C   UNL     1     112.688 127.707 139.148  0.00  0.00    +0.000 C 
ENDBRANCH  34  37
ENDBRANCH  25  33
ENDBRANCH   5  25
TORSDOF 6
ENDMDL
