MODEL 1
REMARK VINA RESULT:     -11.0      0.000      0.000
REMARK  Name = 131831437
REMARK  6 active torsions:
REMARK  status: ('A' for Active; 'I' for Inactive)
REMARK    1  A    between atoms: O_2  and  C_18
REMARK    2  A    between atoms: O_2  and  C_26
REMARK    3  A    between atoms: O_12  and  C_41
REMARK    4  A    between atoms: C_19  and  C_31
REMARK    5  A    between atoms: C_21  and  C_32
REMARK    6  A    between atoms: C_27  and  C_33
REMARK                            x       y       z     vdW  Elec       q    Type
REMARK                         _______ _______ _______ _____ _____    ______ ____
ROOT
ATOM      1  O   UNL     1     110.307 128.235 136.282  0.00  0.00    +0.000 OA
ATOM      2  O   UNL     1     108.032 130.027 135.928  0.00  0.00    +0.000 OA
ATOM      3  O   UNL     1     108.554 127.088 135.489  0.00  0.00    +0.000 OA
ATOM      4  O   UNL     1     106.906 130.940 135.758  0.00  0.00    +0.000 OA
ATOM      5  C   UNL     1     109.309 130.533 136.438  0.00  0.00    +0.000 A 
ATOM      6  C   UNL     1     108.984 131.326 136.497  0.00  0.00    +0.000 C 
ATOM      7  C   UNL     1     109.174 129.149 136.110  0.00  0.00    +0.000 A 
ATOM      8  C   UNL     1     108.685 128.503 135.822  0.00  0.00    +0.000 C 
ATOM      9  C   UNL     1     108.850 129.906 136.163  0.00  0.00    +0.000 A 
ATOM     10  C   UNL     1     109.017 127.712 135.765  0.00  0.00    +0.000 C 
ATOM     11  C   UNL     1     110.094 130.404 136.660  0.00  0.00    +0.000 A 
ATOM     12  C   UNL     1     109.833 127.578 135.997  0.00  0.00    +0.000 C 
ATOM     13  C   UNL     1     109.958 129.019 136.332  0.00  0.00    +0.000 A 
ATOM     14  C   UNL     1     108.168 131.466 136.267  0.00  0.00    +0.000 C 
ATOM     15  C   UNL     1     110.417 129.647 136.608  0.00  0.00    +0.000 A 
ATOM     16  C   UNL     1     107.690 130.813 135.981  0.00  0.00    +0.000 C 
ENDROOT
BRANCH   6  19
ATOM     17  O   UNL     1     109.805 133.049 138.625  0.00  0.00    +0.000 OA
ATOM     18  O   UNL     1     110.853 133.810 137.604  0.00  0.00    +0.000 OA
ATOM     19  C   UNL     1     109.451 131.947 136.773  0.00  0.00    +0.000 A 
ATOM     20  C   UNL     1     109.394 132.187 137.561  0.00  0.00    +0.000 A 
ATOM     21  C   UNL     1     109.976 132.327 136.263  0.00  0.00    +0.000 A 
ATOM     22  C   UNL     1     109.861 132.808 137.838  0.00  0.00    +0.000 A 
ATOM     23  C   UNL     1     110.443 132.948 136.540  0.00  0.00    +0.000 A 
ATOM     24  C   UNL     1     110.386 133.189 137.327  0.00  0.00    +0.000 A 
ENDBRANCH   6  19
BRANCH  12  26
ATOM     25  O   UNL     1     111.140 124.555 135.790  0.00  0.00    +0.000 OA
ATOM     26  C   UNL     1     110.160 126.822 135.945  0.00  0.00    +0.000 A 
ATOM     27  C   UNL     1     110.289 126.381 136.630  0.00  0.00    +0.000 A 
ATOM     28  C   UNL     1     110.358 126.508 135.209  0.00  0.00    +0.000 A 
ATOM     29  C   UNL     1     110.615 125.625 136.579  0.00  0.00    +0.000 A 
ATOM     30  C   UNL     1     110.684 125.752 135.157  0.00  0.00    +0.000 A 
ATOM     31  C   UNL     1     110.813 125.310 135.842  0.00  0.00    +0.000 A 
BRANCH  29  32
ATOM     32  O   UNL     1     110.744 125.183 137.264  0.00  0.00    +0.000 OA
ATOM     33  C   UNL     1     110.995 125.558 137.955  0.00  0.00    +0.000 C 
ENDBRANCH  29  32
ENDBRANCH  12  26
BRANCH  11  34
ATOM     34  O   UNL     1     110.554 131.031 136.935  0.00  0.00    +0.000 OA
BRANCH  34  42
ATOM     35  O   UNL     1     111.306 130.679 138.099  0.00  0.00    +0.000 OA
ATOM     36  O   UNL     1     113.402 130.841 136.793  0.00  0.00    +0.000 OA
ATOM     37  O   UNL     1     111.951 131.139 136.065  0.00  0.00    +0.000 OA
ATOM     38  O   UNL     1     113.455 130.435 138.391  0.00  0.00    +0.000 OA
ATOM     39  C   UNL     1     112.703 130.787 137.228  0.00  0.00    +0.000 C 
ATOM     40  C   UNL     1     111.977 130.936 136.864  0.00  0.00    +0.000 C 
ATOM     41  C   UNL     1     112.729 130.584 138.027  0.00  0.00    +0.000 C 
ATOM     42  C   UNL     1     111.278 130.882 137.299  0.00  0.00    +0.000 C 
ATOM     43  C   UNL     1     112.030 130.530 138.462  0.00  0.00    +0.000 C 
BRANCH  43  45
ATOM     44  O   UNL     1     111.616 130.754 139.812  0.00  0.00    +0.000 OA
ATOM     45  C   UNL     1     112.057 130.327 139.262  0.00  0.00    +0.000 C 
ENDBRANCH  43  45
ENDBRANCH  34  42
ENDBRANCH  11  34
TORSDOF 6
ENDMDL
MODEL 2
REMARK VINA RESULT:     -10.7      3.033      6.001
REMARK  Name = 131831437
REMARK  6 active torsions:
REMARK  status: ('A' for Active; 'I' for Inactive)
REMARK    1  A    between atoms: O_2  and  C_18
REMARK    2  A    between atoms: O_2  and  C_26
REMARK    3  A    between atoms: O_12  and  C_41
REMARK    4  A    between atoms: C_19  and  C_31
REMARK    5  A    between atoms: C_21  and  C_32
REMARK    6  A    between atoms: C_27  and  C_33
REMARK                            x       y       z     vdW  Elec       q    Type
REMARK                         _______ _______ _______ _____ _____    ______ ____
ROOT
ATOM      1  O   UNL     1     113.353 128.332 135.879  0.00  0.00    +0.000 OA
ATOM      2  O   UNL     1     110.754 127.241 135.129  0.00  0.00    +0.000 OA
ATOM      3  O   UNL     1     112.247 129.812 134.612  0.00  0.00    +0.000 OA
ATOM      4  O   UNL     1     109.457 126.677 134.764  0.00  0.00    +0.000 OA
ATOM      5  C   UNL     1     111.677 126.466 135.962  0.00  0.00    +0.000 A 
ATOM      6  C   UNL     1     111.115 125.818 136.001  0.00  0.00    +0.000 C 
ATOM      7  C   UNL     1     112.051 127.769 135.511  0.00  0.00    +0.000 A 
ATOM      8  C   UNL     1     111.858 128.481 135.069  0.00  0.00    +0.000 C 
ATOM      9  C   UNL     1     111.503 127.154 135.541  0.00  0.00    +0.000 A 
ATOM     10  C   UNL     1     112.425 129.126 135.034  0.00  0.00    +0.000 C 
ATOM     11  C   UNL     1     112.400 126.394 136.354  0.00  0.00    +0.000 A 
ATOM     12  C   UNL     1     113.178 129.051 135.442  0.00  0.00    +0.000 C 
ATOM     13  C   UNL     1     112.774 127.698 135.902  0.00  0.00    +0.000 A 
ATOM     14  C   UNL     1     110.361 125.887 135.595  0.00  0.00    +0.000 C 
ATOM     15  C   UNL     1     112.948 127.010 136.324  0.00  0.00    +0.000 A 
ATOM     16  C   UNL     1     110.179 126.603 135.157  0.00  0.00    +0.000 C 
ENDROOT
BRANCH   6  19
ATOM     17  O   UNL     1     110.927 124.263 138.392  0.00  0.00    +0.000 OA
ATOM     18  O   UNL     1     111.848 123.084 137.697  0.00  0.00    +0.000 OA
ATOM     19  C   UNL     1     111.298 125.134 136.424  0.00  0.00    +0.000 A 
ATOM     20  C   UNL     1     111.021 125.041 137.196  0.00  0.00    +0.000 A 
ATOM     21  C   UNL     1     111.759 124.545 136.077  0.00  0.00    +0.000 A 
ATOM     22  C   UNL     1     111.204 124.357 137.621  0.00  0.00    +0.000 A 
ATOM     23  C   UNL     1     111.942 123.861 136.502  0.00  0.00    +0.000 A 
ATOM     24  C   UNL     1     111.665 123.767 137.273  0.00  0.00    +0.000 A 
ENDBRANCH   6  19
BRANCH  12  26
ATOM     25  O   UNL     1     115.378 131.507 135.329  0.00  0.00    +0.000 OA
ATOM     26  C   UNL     1     113.728 129.665 135.414  0.00  0.00    +0.000 A 
ATOM     27  C   UNL     1     113.718 130.254 135.992  0.00  0.00    +0.000 A 
ATOM     28  C   UNL     1     114.287 129.691 134.808  0.00  0.00    +0.000 A 
ATOM     29  C   UNL     1     114.268 130.868 135.963  0.00  0.00    +0.000 A 
ATOM     30  C   UNL     1     114.837 130.305 134.780  0.00  0.00    +0.000 A 
ATOM     31  C   UNL     1     114.828 130.894 135.358  0.00  0.00    +0.000 A 
BRANCH  29  32
ATOM     32  O   UNL     1     114.259 131.457 136.541  0.00  0.00    +0.000 OA
ATOM     33  C   UNL     1     113.837 131.342 137.241  0.00  0.00    +0.000 C 
ENDBRANCH  29  32
ENDBRANCH  12  26
BRANCH  11  34
ATOM     34  O   UNL     1     112.575 125.707 136.775  0.00  0.00    +0.000 OA
BRANCH  34  42
ATOM     35  O   UNL     1     113.122 126.022 138.057  0.00  0.00    +0.000 OA
ATOM     36  O   UNL     1     115.280 125.015 137.383  0.00  0.00    +0.000 OA
ATOM     37  O   UNL     1     114.014 125.035 136.326  0.00  0.00    +0.000 OA
ATOM     38  O   UNL     1     115.108 125.666 138.890  0.00  0.00    +0.000 OA
ATOM     39  C   UNL     1     114.561 125.351 137.608  0.00  0.00    +0.000 C 
ATOM     40  C   UNL     1     113.927 125.361 137.079  0.00  0.00    +0.000 C 
ATOM     41  C   UNL     1     114.474 125.676 138.361  0.00  0.00    +0.000 C 
ATOM     42  C   UNL     1     113.208 125.697 137.303  0.00  0.00    +0.000 C 
ATOM     43  C   UNL     1     113.755 126.012 138.585  0.00  0.00    +0.000 C 
BRANCH  43  45
ATOM     44  O   UNL     1     113.010 126.799 139.517  0.00  0.00    +0.000 OA
ATOM     45  C   UNL     1     113.670 126.338 139.339  0.00  0.00    +0.000 C 
ENDBRANCH  43  45
ENDBRANCH  34  42
ENDBRANCH  11  34
TORSDOF 6
ENDMDL
MODEL 3
REMARK VINA RESULT:     -10.7      7.680      9.001
REMARK  Name = 131831437
REMARK  6 active torsions:
REMARK  status: ('A' for Active; 'I' for Inactive)
REMARK    1  A    between atoms: O_2  and  C_18
REMARK    2  A    between atoms: O_2  and  C_26
REMARK    3  A    between atoms: O_12  and  C_41
REMARK    4  A    between atoms: C_19  and  C_31
REMARK    5  A    between atoms: C_21  and  C_32
REMARK    6  A    between atoms: C_27  and  C_33
REMARK                            x       y       z     vdW  Elec       q    Type
REMARK                         _______ _______ _______ _____ _____    ______ ____
ROOT
ATOM      1  O   UNL     1     104.754 128.952 143.030  0.00  0.00    +0.000 OA
ATOM      2  O   UNL     1     103.174 129.083 140.581  0.00  0.00    +0.000 OA
ATOM      3  O   UNL     1     105.093 127.104 141.810  0.00  0.00    +0.000 OA
ATOM      4  O   UNL     1     102.377 129.166 139.361  0.00  0.00    +0.000 OA
ATOM      5  C   UNL     1     103.131 130.174 141.557  0.00  0.00    +0.000 A 
ATOM      6  C   UNL     1     102.575 130.606 141.065  0.00  0.00    +0.000 C 
ATOM      7  C   UNL     1     103.954 129.033 141.805  0.00  0.00    +0.000 A 
ATOM      8  C   UNL     1     104.250 128.267 141.551  0.00  0.00    +0.000 C 
ATOM      9  C   UNL     1     103.420 129.438 141.323  0.00  0.00    +0.000 A 
ATOM     10  C   UNL     1     104.806 127.840 142.048  0.00  0.00    +0.000 C 
ATOM     11  C   UNL     1     103.375 130.505 142.273  0.00  0.00    +0.000 A 
ATOM     12  C   UNL     1     105.059 128.185 142.793  0.00  0.00    +0.000 C 
ATOM     13  C   UNL     1     104.198 129.364 142.520  0.00  0.00    +0.000 A 
ATOM     14  C   UNL     1     102.317 130.266 140.320  0.00  0.00    +0.000 C 
ATOM     15  C   UNL     1     103.908 130.100 142.754  0.00  0.00    +0.000 A 
ATOM     16  C   UNL     1     102.619 129.500 140.076  0.00  0.00    +0.000 C 
ENDROOT
BRANCH   6  19
ATOM     17  O   UNL     1     102.658 133.459 140.927  0.00  0.00    +0.000 OA
ATOM     18  O   UNL     1     101.438 133.549 142.033  0.00  0.00    +0.000 OA
ATOM     19  C   UNL     1     102.290 131.341 141.308  0.00  0.00    +0.000 A 
ATOM     20  C   UNL     1     102.616 132.033 140.996  0.00  0.00    +0.000 A 
ATOM     21  C   UNL     1     101.680 131.386 141.861  0.00  0.00    +0.000 A 
ATOM     22  C   UNL     1     102.333 132.769 141.238  0.00  0.00    +0.000 A 
ATOM     23  C   UNL     1     101.396 132.122 142.103  0.00  0.00    +0.000 A 
ATOM     24  C   UNL     1     101.722 132.813 141.792  0.00  0.00    +0.000 A 
ENDBRANCH   6  19
BRANCH  12  26
ATOM     25  O   UNL     1     107.193 126.573 144.726  0.00  0.00    +0.000 OA
ATOM     26  C   UNL     1     105.593 127.782 143.276  0.00  0.00    +0.000 A 
ATOM     27  C   UNL     1     106.402 127.934 143.214  0.00  0.00    +0.000 A 
ATOM     28  C   UNL     1     105.318 127.228 143.821  0.00  0.00    +0.000 A 
ATOM     29  C   UNL     1     106.935 127.531 143.697  0.00  0.00    +0.000 A 
ATOM     30  C   UNL     1     105.852 126.825 144.304  0.00  0.00    +0.000 A 
ATOM     31  C   UNL     1     106.661 126.976 144.242  0.00  0.00    +0.000 A 
BRANCH  29  32
ATOM     32  O   UNL     1     107.744 127.683 143.635  0.00  0.00    +0.000 OA
ATOM     33  C   UNL     1     108.007 128.431 143.407  0.00  0.00    +0.000 C 
ENDBRANCH  29  32
ENDBRANCH  12  26
BRANCH  11  34
ATOM     34  O   UNL     1     103.085 131.242 142.507  0.00  0.00    +0.000 OA
BRANCH  34  42
ATOM     35  O   UNL     1     104.134 132.100 142.960  0.00  0.00    +0.000 OA
ATOM     36  O   UNL     1     103.212 132.013 145.256  0.00  0.00    +0.000 OA
ATOM     37  O   UNL     1     102.470 131.184 144.038  0.00  0.00    +0.000 OA
ATOM     38  O   UNL     1     104.568 132.900 144.944  0.00  0.00    +0.000 OA
ATOM     39  C   UNL     1     103.519 132.042 144.491  0.00  0.00    +0.000 C 
ATOM     40  C   UNL     1     103.148 131.627 143.881  0.00  0.00    +0.000 C 
ATOM     41  C   UNL     1     104.197 132.485 144.334  0.00  0.00    +0.000 C 
ATOM     42  C   UNL     1     103.455 131.656 143.116  0.00  0.00    +0.000 C 
ATOM     43  C   UNL     1     104.504 132.514 143.569  0.00  0.00    +0.000 C 
BRANCH  43  45
ATOM     44  O   UNL     1     105.467 133.021 142.643  0.00  0.00    +0.000 OA
ATOM     45  C   UNL     1     105.183 132.957 143.414  0.00  0.00    +0.000 C 
ENDBRANCH  43  45
ENDBRANCH  34  42
ENDBRANCH  11  34
TORSDOF 6
ENDMDL
MODEL 4
REMARK VINA RESULT:     -10.6      2.251      4.644
REMARK  Name = 131831437
REMARK  6 active torsions:
REMARK  status: ('A' for Active; 'I' for Inactive)
REMARK    1  A    between atoms: O_2  and  C_18
REMARK    2  A    between atoms: O_2  and  C_26
REMARK    3  A    between atoms: O_12  and  C_41
REMARK    4  A    between atoms: C_19  and  C_31
REMARK    5  A    between atoms: C_21  and  C_32
REMARK    6  A    between atoms: C_27  and  C_33
REMARK                            x       y       z     vdW  Elec       q    Type
REMARK                         _______ _______ _______ _____ _____    ______ ____
ROOT
ATOM      1  O   UNL     1     112.255 127.320 137.803  0.00  0.00    +0.000 OA
ATOM      2  O   UNL     1     113.692 126.770 140.281  0.00  0.00    +0.000 OA
ATOM      3  O   UNL     1     112.208 125.122 138.234  0.00  0.00    +0.000 OA
ATOM      4  O   UNL     1     114.415 126.515 141.524  0.00  0.00    +0.000 OA
ATOM      5  C   UNL     1     113.575 128.139 139.774  0.00  0.00    +0.000 A 
ATOM      6  C   UNL     1     114.026 128.436 140.442  0.00  0.00    +0.000 C 
ATOM      7  C   UNL     1     112.980 127.061 139.049  0.00  0.00    +0.000 A 
ATOM      8  C   UNL     1     112.819 126.219 138.980  0.00  0.00    +0.000 C 
ATOM      9  C   UNL     1     113.414 127.334 139.696  0.00  0.00    +0.000 A 
ATOM     10  C   UNL     1     112.368 125.928 138.309  0.00  0.00    +0.000 C 
ATOM     11  C   UNL     1     113.303 128.671 139.205  0.00  0.00    +0.000 A 
ATOM     12  C   UNL     1     112.084 126.482 137.716  0.00  0.00    +0.000 C 
ATOM     13  C   UNL     1     112.708 127.592 138.481  0.00  0.00    +0.000 A 
ATOM     14  C   UNL     1     114.312 127.887 141.037  0.00  0.00    +0.000 C 
ATOM     15  C   UNL     1     112.869 128.397 138.559  0.00  0.00    +0.000 A 
ATOM     16  C   UNL     1     114.144 127.049 140.957  0.00  0.00    +0.000 C 
ENDROOT
BRANCH   6  19
ATOM     17  O   UNL     1     113.433 130.982 141.600  0.00  0.00    +0.000 OA
ATOM     18  O   UNL     1     114.649 131.665 140.720  0.00  0.00    +0.000 OA
ATOM     19  C   UNL     1     114.182 129.243 140.511  0.00  0.00    +0.000 A 
ATOM     20  C   UNL     1     113.729 129.709 141.021  0.00  0.00    +0.000 A 
ATOM     21  C   UNL     1     114.790 129.585 140.071  0.00  0.00    +0.000 A 
ATOM     22  C   UNL     1     113.885 130.516 141.091  0.00  0.00    +0.000 A 
ATOM     23  C   UNL     1     114.945 130.392 140.141  0.00  0.00    +0.000 A 
ATOM     24  C   UNL     1     114.493 130.858 140.650  0.00  0.00    +0.000 A 
ENDBRANCH   6  19
BRANCH  12  26
ATOM     25  O   UNL     1     110.349 125.399 135.127  0.00  0.00    +0.000 OA
ATOM     26  C   UNL     1     111.650 126.212 137.069  0.00  0.00    +0.000 A 
ATOM     27  C   UNL     1     110.830 126.301 137.055  0.00  0.00    +0.000 A 
ATOM     28  C   UNL     1     112.036 125.851 136.435  0.00  0.00    +0.000 A 
ATOM     29  C   UNL     1     110.396 126.030 136.408  0.00  0.00    +0.000 A 
ATOM     30  C   UNL     1     111.602 125.580 135.788  0.00  0.00    +0.000 A 
ATOM     31  C   UNL     1     110.782 125.670 135.774  0.00  0.00    +0.000 A 
BRANCH  29  32
ATOM     32  O   UNL     1     109.576 126.120 136.394  0.00  0.00    +0.000 OA
ATOM     33  C   UNL     1     109.234 126.827 136.646  0.00  0.00    +0.000 C 
ENDBRANCH  29  32
ENDBRANCH  12  26
BRANCH  11  34
ATOM     34  O   UNL     1     113.464 129.477 139.282  0.00  0.00    +0.000 OA
BRANCH  34  42
ATOM     35  O   UNL     1     112.308 130.270 139.005  0.00  0.00    +0.000 OA
ATOM     36  O   UNL     1     113.412 131.173 136.983  0.00  0.00    +0.000 OA
ATOM     37  O   UNL     1     114.200 130.079 137.934  0.00  0.00    +0.000 OA
ATOM     38  O   UNL     1     111.888 131.665 137.380  0.00  0.00    +0.000 OA
ATOM     39  C   UNL     1     113.044 130.872 137.657  0.00  0.00    +0.000 C 
ATOM     40  C   UNL     1     113.438 130.324 138.133  0.00  0.00    +0.000 C 
ATOM     41  C   UNL     1     112.282 131.118 137.856  0.00  0.00    +0.000 C 
ATOM     42  C   UNL     1     113.070 130.023 138.807  0.00  0.00    +0.000 C 
ATOM     43  C   UNL     1     111.914 130.817 138.530  0.00  0.00    +0.000 C 
BRANCH  43  45
ATOM     44  O   UNL     1     110.969 131.251 139.510  0.00  0.00    +0.000 OA
ATOM     45  C   UNL     1     111.152 131.063 138.729  0.00  0.00    +0.000 C 
ENDBRANCH  43  45
ENDBRANCH  34  42
ENDBRANCH  11  34
TORSDOF 6
ENDMDL
MODEL 5
REMARK VINA RESULT:     -10.4      1.798      5.374
REMARK  Name = 131831437
REMARK  6 active torsions:
REMARK  status: ('A' for Active; 'I' for Inactive)
REMARK    1  A    between atoms: O_2  and  C_18
REMARK    2  A    between atoms: O_2  and  C_26
REMARK    3  A    between atoms: O_12  and  C_41
REMARK    4  A    between atoms: C_19  and  C_31
REMARK    5  A    between atoms: C_21  and  C_32
REMARK    6  A    between atoms: C_27  and  C_33
REMARK                            x       y       z     vdW  Elec       q    Type
REMARK                         _______ _______ _______ _____ _____    ______ ____
ROOT
ATOM      1  O   UNL     1     110.175 128.976 137.358  0.00  0.00    +0.000 OA
ATOM      2  O   UNL     1     109.482 126.816 135.524  0.00  0.00    +0.000 OA
ATOM      3  O   UNL     1     108.403 129.570 136.122  0.00  0.00    +0.000 OA
ATOM      4  O   UNL     1     109.151 125.724 134.614  0.00  0.00    +0.000 OA
ATOM      5  C   UNL     1     110.611 126.678 136.448  0.00  0.00    +0.000 A 
ATOM      6  C   UNL     1     110.774 125.890 136.148  0.00  0.00    +0.000 C 
ATOM      7  C   UNL     1     109.840 127.882 136.443  0.00  0.00    +0.000 A 
ATOM      8  C   UNL     1     109.186 128.338 136.121  0.00  0.00    +0.000 C 
ATOM      9  C   UNL     1     109.986 127.126 136.146  0.00  0.00    +0.000 A 
ATOM     10  C   UNL     1     109.029 129.126 136.426  0.00  0.00    +0.000 C 
ATOM     11  C   UNL     1     111.089 126.987 137.046  0.00  0.00    +0.000 A 
ATOM     12  C   UNL     1     109.526 129.447 137.048  0.00  0.00    +0.000 C 
ATOM     13  C   UNL     1     110.317 128.190 137.041  0.00  0.00    +0.000 A 
ATOM     14  C   UNL     1     110.280 125.564 135.525  0.00  0.00    +0.000 C 
ATOM     15  C   UNL     1     110.941 127.743 137.342  0.00  0.00    +0.000 A 
ATOM     16  C   UNL     1     109.630 126.030 135.211  0.00  0.00    +0.000 C 
ENDROOT
BRANCH   6  19
ATOM     17  O   UNL     1     111.732 123.803 137.849  0.00  0.00    +0.000 OA
ATOM     18  O   UNL     1     113.279 124.130 137.380  0.00  0.00    +0.000 OA
ATOM     19  C   UNL     1     111.400 125.451 136.455  0.00  0.00    +0.000 A 
ATOM     20  C   UNL     1     111.253 124.846 136.998  0.00  0.00    +0.000 A 
ATOM     21  C   UNL     1     112.174 125.614 136.221  0.00  0.00    +0.000 A 
ATOM     22  C   UNL     1     111.879 124.406 137.306  0.00  0.00    +0.000 A 
ATOM     23  C   UNL     1     112.800 125.174 136.529  0.00  0.00    +0.000 A 
ATOM     24  C   UNL     1     112.653 124.570 137.071  0.00  0.00    +0.000 A 
ENDBRANCH   6  19
BRANCH  12  26
ATOM     25  O   UNL     1     108.949 132.469 138.241  0.00  0.00    +0.000 OA
ATOM     26  C   UNL     1     109.382 130.203 137.347  0.00  0.00    +0.000 A 
ATOM     27  C   UNL     1     109.007 130.293 138.076  0.00  0.00    +0.000 A 
ATOM     28  C   UNL     1     109.612 130.867 136.916  0.00  0.00    +0.000 A 
ATOM     29  C   UNL     1     108.863 131.049 138.374  0.00  0.00    +0.000 A 
ATOM     30  C   UNL     1     109.467 131.623 137.214  0.00  0.00    +0.000 A 
ATOM     31  C   UNL     1     109.093 131.714 137.943  0.00  0.00    +0.000 A 
BRANCH  29  32
ATOM     32  O   UNL     1     108.488 131.140 139.104  0.00  0.00    +0.000 OA
ATOM     33  C   UNL     1     108.695 130.654 139.738  0.00  0.00    +0.000 C 
ENDBRANCH  29  32
ENDBRANCH  12  26
BRANCH  11  34
ATOM     34  O   UNL     1     111.713 126.540 137.348  0.00  0.00    +0.000 OA
BRANCH  34  42
ATOM     35  O   UNL     1     111.739 126.530 138.776  0.00  0.00    +0.000 OA
ATOM     36  O   UNL     1     113.817 127.875 138.747  0.00  0.00    +0.000 OA
ATOM     37  O   UNL     1     113.098 127.437 137.328  0.00  0.00    +0.000 OA
ATOM     38  O   UNL     1     113.151 127.417 140.185  0.00  0.00    +0.000 OA
ATOM     39  C   UNL     1     113.124 127.427 138.757  0.00  0.00    +0.000 C 
ATOM     40  C   UNL     1     112.764 127.207 138.047  0.00  0.00    +0.000 C 
ATOM     41  C   UNL     1     112.791 127.197 139.475  0.00  0.00    +0.000 C 
ATOM     42  C   UNL     1     112.072 126.759 138.057  0.00  0.00    +0.000 C 
ATOM     43  C   UNL     1     112.098 126.749 139.485  0.00  0.00    +0.000 C 
BRANCH  43  45
ATOM     44  O   UNL     1     111.080 126.064 140.216  0.00  0.00    +0.000 OA
ATOM     45  C   UNL     1     111.766 126.520 140.205  0.00  0.00    +0.000 C 
ENDBRANCH  43  45
ENDBRANCH  34  42
ENDBRANCH  11  34
TORSDOF 6
ENDMDL
MODEL 6
REMARK VINA RESULT:     -10.3      2.158      5.861
REMARK  Name = 131831437
REMARK  6 active torsions:
REMARK  status: ('A' for Active; 'I' for Inactive)
REMARK    1  A    between atoms: O_2  and  C_18
REMARK    2  A    between atoms: O_2  and  C_26
REMARK    3  A    between atoms: O_12  and  C_41
REMARK    4  A    between atoms: C_19  and  C_31
REMARK    5  A    between atoms: C_21  and  C_32
REMARK    6  A    between atoms: C_27  and  C_33
REMARK                            x       y       z     vdW  Elec       q    Type
REMARK                         _______ _______ _______ _____ _____    ______ ____
ROOT
ATOM      1  O   UNL     1     110.973 129.458 137.548  0.00  0.00    +0.000 OA
ATOM      2  O   UNL     1     113.408 129.097 135.983  0.00  0.00    +0.000 OA
ATOM      3  O   UNL     1     111.543 131.394 136.576  0.00  0.00    +0.000 OA
ATOM      4  O   UNL     1     114.627 128.896 135.205  0.00  0.00    +0.000 OA
ATOM      5  C   UNL     1     112.822 127.976 136.722  0.00  0.00    +0.000 A 
ATOM      6  C   UNL     1     113.447 127.455 136.448  0.00  0.00    +0.000 C 
ATOM      7  C   UNL     1     112.196 129.260 136.767  0.00  0.00    +0.000 A 
ATOM      8  C   UNL     1     112.187 130.085 136.526  0.00  0.00    +0.000 C 
ATOM      9  C   UNL     1     112.803 128.769 136.497  0.00  0.00    +0.000 A 
ATOM     10  C   UNL     1     111.558 130.601 136.803  0.00  0.00    +0.000 C 
ATOM     11  C   UNL     1     112.234 127.673 137.217  0.00  0.00    +0.000 A 
ATOM     12  C   UNL     1     110.947 130.285 137.318  0.00  0.00    +0.000 C 
ATOM     13  C   UNL     1     111.610 128.957 137.261  0.00  0.00    +0.000 A 
ATOM     14  C   UNL     1     114.061 127.765 135.934  0.00  0.00    +0.000 C 
ATOM     15  C   UNL     1     111.629 128.164 137.486  0.00  0.00    +0.000 A 
ATOM     16  C   UNL     1     114.041 128.591 135.699  0.00  0.00    +0.000 C 
ENDROOT
BRANCH   6  19
ATOM     17  O   UNL     1     114.503 125.370 138.095  0.00  0.00    +0.000 OA
ATOM     18  O   UNL     1     113.492 124.286 137.371  0.00  0.00    +0.000 OA
ATOM     19  C   UNL     1     113.458 126.663 136.679  0.00  0.00    +0.000 A 
ATOM     20  C   UNL     1     113.975 126.413 137.272  0.00  0.00    +0.000 A 
ATOM     21  C   UNL     1     112.953 126.121 136.317  0.00  0.00    +0.000 A 
ATOM     22  C   UNL     1     113.987 125.621 137.503  0.00  0.00    +0.000 A 
ATOM     23  C   UNL     1     112.964 125.329 136.547  0.00  0.00    +0.000 A 
ATOM     24  C   UNL     1     113.480 125.078 137.140  0.00  0.00    +0.000 A 
ENDBRANCH   6  19
BRANCH  12  26
ATOM     25  O   UNL     1     108.519 132.239 138.402  0.00  0.00    +0.000 OA
ATOM     26  C   UNL     1     110.340 130.773 137.589  0.00  0.00    +0.000 A 
ATOM     27  C   UNL     1     109.595 130.741 137.235  0.00  0.00    +0.000 A 
ATOM     28  C   UNL     1     110.477 131.294 138.214  0.00  0.00    +0.000 A 
ATOM     29  C   UNL     1     108.988 131.229 137.506  0.00  0.00    +0.000 A 
ATOM     30  C   UNL     1     109.870 131.783 138.484  0.00  0.00    +0.000 A 
ATOM     31  C   UNL     1     109.125 131.750 138.130  0.00  0.00    +0.000 A 
BRANCH  29  32
ATOM     32  O   UNL     1     108.244 131.197 137.152  0.00  0.00    +0.000 OA
ATOM     33  C   UNL     1     108.179 131.111 136.334  0.00  0.00    +0.000 C 
ENDBRANCH  29  32
ENDBRANCH  12  26
BRANCH  11  34
ATOM     34  O   UNL     1     112.254 126.879 137.442  0.00  0.00    +0.000 OA
BRANCH  34  42
ATOM     35  O   UNL     1     112.026 126.711 138.842  0.00  0.00    +0.000 OA
ATOM     36  O   UNL     1     109.853 125.628 138.359  0.00  0.00    +0.000 OA
ATOM     37  O   UNL     1     110.805 126.157 137.119  0.00  0.00    +0.000 OA
ATOM     38  O   UNL     1     110.349 125.821 139.921  0.00  0.00    +0.000 OA
ATOM     39  C   UNL     1     110.577 125.989 138.520  0.00  0.00    +0.000 C 
ATOM     40  C   UNL     1     111.054 126.254 137.900  0.00  0.00    +0.000 C 
ATOM     41  C   UNL     1     110.826 126.086 139.300  0.00  0.00    +0.000 C 
ATOM     42  C   UNL     1     111.778 126.615 138.061  0.00  0.00    +0.000 C 
ATOM     43  C   UNL     1     111.550 126.447 139.462  0.00  0.00    +0.000 C 
BRANCH  43  45
ATOM     44  O   UNL     1     112.584 126.406 140.447  0.00  0.00    +0.000 OA
ATOM     45  C   UNL     1     111.797 126.543 140.243  0.00  0.00    +0.000 C 
ENDBRANCH  43  45
ENDBRANCH  34  42
ENDBRANCH  11  34
TORSDOF 6
ENDMDL
MODEL 7
REMARK VINA RESULT:     -10.2      2.295      4.904
REMARK  Name = 131831437
REMARK  6 active torsions:
REMARK  status: ('A' for Active; 'I' for Inactive)
REMARK    1  A    between atoms: O_2  and  C_18
REMARK    2  A    between atoms: O_2  and  C_26
REMARK    3  A    between atoms: O_12  and  C_41
REMARK    4  A    between atoms: C_19  and  C_31
REMARK    5  A    between atoms: C_21  and  C_32
REMARK    6  A    between atoms: C_27  and  C_33
REMARK                            x       y       z     vdW  Elec       q    Type
REMARK                         _______ _______ _______ _____ _____    ______ ____
ROOT
ATOM      1  O   UNL     1     111.940 127.084 138.082  0.00  0.00    +0.000 OA
ATOM      2  O   UNL     1     114.143 126.823 139.977  0.00  0.00    +0.000 OA
ATOM      3  O   UNL     1     113.049 125.176 137.698  0.00  0.00    +0.000 OA
ATOM      4  O   UNL     1     115.240 126.711 140.934  0.00  0.00    +0.000 OA
ATOM      5  C   UNL     1     113.258 127.990 140.016  0.00  0.00    +0.000 A 
ATOM      6  C   UNL     1     113.698 128.315 140.678  0.00  0.00    +0.000 C 
ATOM      7  C   UNL     1     113.042 126.968 139.041  0.00  0.00    +0.000 A 
ATOM      8  C   UNL     1     113.276 126.216 138.697  0.00  0.00    +0.000 C 
ATOM      9  C   UNL     1     113.473 127.269 139.677  0.00  0.00    +0.000 A 
ATOM     10  C   UNL     1     112.831 125.897 138.034  0.00  0.00    +0.000 C 
ATOM     11  C   UNL     1     112.612 128.410 139.719  0.00  0.00    +0.000 A 
ATOM     12  C   UNL     1     112.159 126.334 137.725  0.00  0.00    +0.000 C 
ATOM     13  C   UNL     1     112.397 127.387 138.744  0.00  0.00    +0.000 A 
ATOM     14  C   UNL     1     114.371 127.883 140.992  0.00  0.00    +0.000 C 
ATOM     15  C   UNL     1     112.182 128.108 139.083  0.00  0.00    +0.000 A 
ATOM     16  C   UNL     1     114.595 127.132 140.639  0.00  0.00    +0.000 C 
ENDROOT
BRANCH   6  19
ATOM     17  O   UNL     1     114.093 131.130 140.973  0.00  0.00    +0.000 OA
ATOM     18  O   UNL     1     112.810 131.203 142.007  0.00  0.00    +0.000 OA
ATOM     19  C   UNL     1     113.476 129.037 141.011  0.00  0.00    +0.000 A 
ATOM     20  C   UNL     1     113.896 129.723 140.826  0.00  0.00    +0.000 A 
ATOM     21  C   UNL     1     112.834 129.073 141.528  0.00  0.00    +0.000 A 
ATOM     22  C   UNL     1     113.674 130.445 141.157  0.00  0.00    +0.000 A 
ATOM     23  C   UNL     1     112.613 129.795 141.860  0.00  0.00    +0.000 A 
ATOM     24  C   UNL     1     113.032 130.480 141.675  0.00  0.00    +0.000 A 
ENDBRANCH   6  19
BRANCH  12  26
ATOM     25  O   UNL     1     110.429 125.137 135.183  0.00  0.00    +0.000 OA
ATOM     26  C   UNL     1     111.726 126.035 137.089  0.00  0.00    +0.000 A 
ATOM     27  C   UNL     1     111.714 126.441 136.371  0.00  0.00    +0.000 A 
ATOM     28  C   UNL     1     111.306 125.330 137.172  0.00  0.00    +0.000 A 
ATOM     29  C   UNL     1     111.282 126.142 135.735  0.00  0.00    +0.000 A 
ATOM     30  C   UNL     1     110.874 125.030 136.536  0.00  0.00    +0.000 A 
ATOM     31  C   UNL     1     110.862 125.436 135.818  0.00  0.00    +0.000 A 
BRANCH  29  32
ATOM     32  O   UNL     1     111.270 126.547 135.017  0.00  0.00    +0.000 OA
ATOM     33  C   UNL     1     111.170 127.366 135.008  0.00  0.00    +0.000 C 
ENDBRANCH  29  32
ENDBRANCH  12  26
BRANCH  11  34
ATOM     34  O   UNL     1     112.397 129.131 140.058  0.00  0.00    +0.000 OA
BRANCH  34  42
ATOM     35  O   UNL     1     112.125 130.122 139.065  0.00  0.00    +0.000 OA
ATOM     36  O   UNL     1     109.737 130.119 139.717  0.00  0.00    +0.000 OA
ATOM     37  O   UNL     1     110.806 129.129 140.493  0.00  0.00    +0.000 OA
ATOM     38  O   UNL     1     110.260 131.111 138.507  0.00  0.00    +0.000 OA
ATOM     39  C   UNL     1     110.533 130.120 139.500  0.00  0.00    +0.000 C 
ATOM     40  C   UNL     1     111.068 129.625 139.888  0.00  0.00    +0.000 C 
ATOM     41  C   UNL     1     110.795 130.616 138.895  0.00  0.00    +0.000 C 
ATOM     42  C   UNL     1     111.864 129.626 139.670  0.00  0.00    +0.000 C 
ATOM     43  C   UNL     1     111.591 130.617 138.678  0.00  0.00    +0.000 C 
BRANCH  43  45
ATOM     44  O   UNL     1     112.657 131.267 137.983  0.00  0.00    +0.000 OA
ATOM     45  C   UNL     1     111.852 131.113 138.072  0.00  0.00    +0.000 C 
ENDBRANCH  43  45
ENDBRANCH  34  42
ENDBRANCH  11  34
TORSDOF 6
ENDMDL
MODEL 8
REMARK VINA RESULT:     -10.2      1.832      5.205
REMARK  Name = 131831437
REMARK  6 active torsions:
REMARK  status: ('A' for Active; 'I' for Inactive)
REMARK    1  A    between atoms: O_2  and  C_18
REMARK    2  A    between atoms: O_2  and  C_26
REMARK    3  A    between atoms: O_12  and  C_41
REMARK    4  A    between atoms: C_19  and  C_31
REMARK    5  A    between atoms: C_21  and  C_32
REMARK    6  A    between atoms: C_27  and  C_33
REMARK                            x       y       z     vdW  Elec       q    Type
REMARK                         _______ _______ _______ _____ _____    ______ ____
ROOT
ATOM      1  O   UNL     1     112.496 129.253 137.866  0.00  0.00    +0.000 OA
ATOM      2  O   UNL     1     110.725 130.206 135.753  0.00  0.00    +0.000 OA
ATOM      3  O   UNL     1     112.550 131.490 137.785  0.00  0.00    +0.000 OA
ATOM      4  O   UNL     1     109.833 130.664 134.691  0.00  0.00    +0.000 OA
ATOM      5  C   UNL     1     110.871 128.772 136.015  0.00  0.00    +0.000 A 
ATOM      6  C   UNL     1     110.316 128.590 135.385  0.00  0.00    +0.000 C 
ATOM      7  C   UNL     1     111.602 129.715 136.801  0.00  0.00    +0.000 A 
ATOM      8  C   UNL     1     111.800 130.533 136.977  0.00  0.00    +0.000 C 
ATOM      9  C   UNL     1     111.068 129.553 136.193  0.00  0.00    +0.000 A 
ATOM     10  C   UNL     1     112.355 130.708 137.609  0.00  0.00    +0.000 C 
ATOM     11  C   UNL     1     111.207 128.153 136.445  0.00  0.00    +0.000 A 
ATOM     12  C   UNL     1     112.705 130.063 138.057  0.00  0.00    +0.000 C 
ATOM     13  C   UNL     1     111.938 129.097 137.231  0.00  0.00    +0.000 A 
ATOM     14  C   UNL     1     109.963 129.230 134.934  0.00  0.00    +0.000 C 
ATOM     15  C   UNL     1     111.741 128.316 137.053  0.00  0.00    +0.000 A 
ATOM     16  C   UNL     1     110.168 130.043 135.119  0.00  0.00    +0.000 C 
ENDROOT
BRANCH   6  19
ATOM     17  O   UNL     1     108.501 126.389 135.565  0.00  0.00    +0.000 OA
ATOM     18  O   UNL     1     109.550 125.453 134.702  0.00  0.00    +0.000 OA
ATOM     19  C   UNL     1     110.125 127.806 135.214  0.00  0.00    +0.000 A 
ATOM     20  C   UNL     1     109.409 127.490 135.475  0.00  0.00    +0.000 A 
ATOM     21  C   UNL     1     110.650 127.338 134.782  0.00  0.00    +0.000 A 
ATOM     22  C   UNL     1     109.217 126.705 135.305  0.00  0.00    +0.000 A 
ATOM     23  C   UNL     1     110.458 126.554 134.612  0.00  0.00    +0.000 A 
ATOM     24  C   UNL     1     109.742 126.237 134.873  0.00  0.00    +0.000 A 
ENDBRANCH   6  19
BRANCH  12  26
ATOM     25  O   UNL     1     114.842 130.701 140.489  0.00  0.00    +0.000 OA
ATOM     26  C   UNL     1     113.239 130.223 138.665  0.00  0.00    +0.000 A 
ATOM     27  C   UNL     1     112.979 130.241 139.448  0.00  0.00    +0.000 A 
ATOM     28  C   UNL     1     114.033 130.364 138.491  0.00  0.00    +0.000 A 
ATOM     29  C   UNL     1     113.514 130.401 140.056  0.00  0.00    +0.000 A 
ATOM     30  C   UNL     1     114.567 130.523 139.099  0.00  0.00    +0.000 A 
ATOM     31  C   UNL     1     114.307 130.542 139.882  0.00  0.00    +0.000 A 
BRANCH  29  32
ATOM     32  O   UNL     1     113.254 130.419 140.839  0.00  0.00    +0.000 OA
ATOM     33  C   UNL     1     112.942 129.739 141.186  0.00  0.00    +0.000 C 
ENDBRANCH  29  32
ENDBRANCH  12  26
BRANCH  11  34
ATOM     34  O   UNL     1     111.010 127.372 136.267  0.00  0.00    +0.000 OA
BRANCH  34  42
ATOM     35  O   UNL     1     110.705 126.616 137.441  0.00  0.00    +0.000 OA
ATOM     36  O   UNL     1     112.747 125.259 137.098  0.00  0.00    +0.000 OA
ATOM     37  O   UNL     1     112.371 126.467 136.038  0.00  0.00    +0.000 OA
ATOM     38  O   UNL     1     111.761 124.956 138.386  0.00  0.00    +0.000 OA
ATOM     39  C   UNL     1     112.066 125.712 137.212  0.00  0.00    +0.000 C 
ATOM     40  C   UNL     1     111.878 126.316 136.682  0.00  0.00    +0.000 C 
ATOM     41  C   UNL     1     111.573 125.561 137.856  0.00  0.00    +0.000 C 
ATOM     42  C   UNL     1     111.198 126.768 136.796  0.00  0.00    +0.000 C 
ATOM     43  C   UNL     1     110.893 126.013 137.971  0.00  0.00    +0.000 C 
BRANCH  43  45
ATOM     44  O   UNL     1     109.644 126.186 138.642  0.00  0.00    +0.000 OA
ATOM     45  C   UNL     1     110.401 125.861 138.615  0.00  0.00    +0.000 C 
ENDBRANCH  43  45
ENDBRANCH  34  42
ENDBRANCH  11  34
TORSDOF 6
ENDMDL
MODEL 9
REMARK VINA RESULT:     -10.2      2.542      3.886
REMARK  Name = 131831437
REMARK  6 active torsions:
REMARK  status: ('A' for Active; 'I' for Inactive)
REMARK    1  A    between atoms: O_2  and  C_18
REMARK    2  A    between atoms: O_2  and  C_26
REMARK    3  A    between atoms: O_12  and  C_41
REMARK    4  A    between atoms: C_19  and  C_31
REMARK    5  A    between atoms: C_21  and  C_32
REMARK    6  A    between atoms: C_27  and  C_33
REMARK                            x       y       z     vdW  Elec       q    Type
REMARK                         _______ _______ _______ _____ _____    ______ ____
ROOT
ATOM      1  O   UNL     1     112.210 127.319 138.101  0.00  0.00    +0.000 OA
ATOM      2  O   UNL     1     112.337 130.125 137.316  0.00  0.00    +0.000 OA
ATOM      3  O   UNL     1     113.673 127.571 136.424  0.00  0.00    +0.000 OA
ATOM      4  O   UNL     1     112.386 131.534 136.937  0.00  0.00    +0.000 OA
ATOM      5  C   UNL     1     111.449 129.692 138.397  0.00  0.00    +0.000 A 
ATOM      6  C   UNL     1     111.178 130.498 138.512  0.00  0.00    +0.000 C 
ATOM      7  C   UNL     1     112.262 128.732 137.719  0.00  0.00    +0.000 A 
ATOM      8  C   UNL     1     112.846 128.557 137.113  0.00  0.00    +0.000 C 
ATOM      9  C   UNL     1     112.009 129.511 137.819  0.00  0.00    +0.000 A 
ATOM     10  C   UNL     1     113.113 127.747 137.003  0.00  0.00    +0.000 C 
ATOM     11  C   UNL     1     111.142 129.093 138.875  0.00  0.00    +0.000 A 
ATOM     12  C   UNL     1     112.793 127.124 137.501  0.00  0.00    +0.000 C 
ATOM     13  C   UNL     1     111.955 128.134 138.196  0.00  0.00    +0.000 A 
ATOM     14  C   UNL     1     111.494 131.126 138.018  0.00  0.00    +0.000 C 
ATOM     15  C   UNL     1     111.395 128.314 138.774  0.00  0.00    +0.000 A 
ATOM     16  C   UNL     1     112.077 130.938 137.416  0.00  0.00    +0.000 C 
ENDROOT
BRANCH   6  19
ATOM     17  O   UNL     1     110.532 131.508 141.107  0.00  0.00    +0.000 OA
ATOM     18  O   UNL     1     108.937 131.182 140.837  0.00  0.00    +0.000 OA
ATOM     19  C   UNL     1     110.617 130.669 139.093  0.00  0.00    +0.000 A 
ATOM     20  C   UNL     1     110.855 131.003 139.810  0.00  0.00    +0.000 A 
ATOM     21  C   UNL     1     109.820 130.506 138.958  0.00  0.00    +0.000 A 
ATOM     22  C   UNL     1     110.295 131.174 140.391  0.00  0.00    +0.000 A 
ATOM     23  C   UNL     1     109.260 130.677 139.540  0.00  0.00    +0.000 A 
ATOM     24  C   UNL     1     109.497 131.011 140.256  0.00  0.00    +0.000 A 
ENDBRANCH   6  19
BRANCH  12  26
ATOM     25  O   UNL     1     113.798 124.006 137.107  0.00  0.00    +0.000 OA
ATOM     26  C   UNL     1     113.044 126.344 137.402  0.00  0.00    +0.000 A 
ATOM     27  C   UNL     1     112.611 125.829 136.926  0.00  0.00    +0.000 A 
ATOM     28  C   UNL     1     113.728 126.081 137.780  0.00  0.00    +0.000 A 
ATOM     29  C   UNL     1     112.862 125.049 136.828  0.00  0.00    +0.000 A 
ATOM     30  C   UNL     1     113.980 125.301 137.681  0.00  0.00    +0.000 A 
ATOM     31  C   UNL     1     113.546 124.785 137.205  0.00  0.00    +0.000 A 
BRANCH  29  32
ATOM     32  O   UNL     1     112.428 124.533 136.351  0.00  0.00    +0.000 OA
ATOM     33  C   UNL     1     111.605 124.585 136.329  0.00  0.00    +0.000 C 
ENDBRANCH  29  32
ENDBRANCH  12  26
BRANCH  11  34
ATOM     34  O   UNL     1     110.581 129.273 139.454  0.00  0.00    +0.000 OA
BRANCH  34  42
ATOM     35  O   UNL     1     110.873 128.640 140.701  0.00  0.00    +0.000 OA
ATOM     36  O   UNL     1     108.874 127.205 140.440  0.00  0.00    +0.000 OA
ATOM     37  O   UNL     1     109.248 128.316 139.280  0.00  0.00    +0.000 OA
ATOM     38  O   UNL     1     109.832 127.050 141.775  0.00  0.00    +0.000 OA
ATOM     39  C   UNL     1     109.540 127.683 140.527  0.00  0.00    +0.000 C 
ATOM     40  C   UNL     1     109.728 128.239 139.947  0.00  0.00    +0.000 C 
ATOM     41  C   UNL     1     110.020 127.606 141.194  0.00  0.00    +0.000 C 
ATOM     42  C   UNL     1     110.394 128.718 140.034  0.00  0.00    +0.000 C 
ATOM     43  C   UNL     1     110.686 128.085 141.281  0.00  0.00    +0.000 C 
BRANCH  43  45
ATOM     44  O   UNL     1     111.740 128.574 142.113  0.00  0.00    +0.000 OA
ATOM     45  C   UNL     1     111.165 128.007 141.948  0.00  0.00    +0.000 C 
ENDBRANCH  43  45
ENDBRANCH  34  42
ENDBRANCH  11  34
TORSDOF 6
ENDMDL
MODEL 10
REMARK VINA RESULT:     -10.1      2.081      3.723
REMARK  Name = 131831437
REMARK  6 active torsions:
REMARK  status: ('A' for Active; 'I' for Inactive)
REMARK    1  A    between atoms: O_2  and  C_18
REMARK    2  A    between atoms: O_2  and  C_26
REMARK    3  A    between atoms: O_12  and  C_41
REMARK    4  A    between atoms: C_19  and  C_31
REMARK    5  A    between atoms: C_21  and  C_32
REMARK    6  A    between atoms: C_27  and  C_33
REMARK                            x       y       z     vdW  Elec       q    Type
REMARK                         _______ _______ _______ _____ _____    ______ ____
ROOT
ATOM      1  O   UNL     1     111.879 127.884 138.440  0.00  0.00    +0.000 OA
ATOM      2  O   UNL     1     110.439 126.656 136.220  0.00  0.00    +0.000 OA
ATOM      3  O   UNL     1     112.296 125.684 138.391  0.00  0.00    +0.000 OA
ATOM      4  O   UNL     1     109.710 126.060 135.104  0.00  0.00    +0.000 OA
ATOM      5  C   UNL     1     110.334 128.095 136.473  0.00  0.00    +0.000 A 
ATOM      6  C   UNL     1     109.805 128.185 135.803  0.00  0.00    +0.000 C 
ATOM      7  C   UNL     1     111.149 127.283 137.321  0.00  0.00    +0.000 A 
ATOM      8  C   UNL     1     111.462 126.508 137.521  0.00  0.00    +0.000 C 
ATOM      9  C   UNL     1     110.641 127.356 136.675  0.00  0.00    +0.000 A 
ATOM     10  C   UNL     1     111.991 126.425 138.192  0.00  0.00    +0.000 C 
ATOM     11  C   UNL     1     110.536 128.761 136.917  0.00  0.00    +0.000 A 
ATOM     12  C   UNL     1     112.201 127.118 138.655  0.00  0.00    +0.000 C 
ATOM     13  C   UNL     1     111.350 127.948 137.765  0.00  0.00    +0.000 A 
ATOM     14  C   UNL     1     109.591 127.496 135.337  0.00  0.00    +0.000 C 
ATOM     15  C   UNL     1     111.044 128.687 137.563  0.00  0.00    +0.000 A 
ATOM     16  C   UNL     1     109.910 126.727 135.547  0.00  0.00    +0.000 C 
ENDROOT
BRANCH   6  19
ATOM     17  O   UNL     1     107.669 130.084 135.868  0.00  0.00    +0.000 OA
ATOM     18  O   UNL     1     108.597 131.157 135.028  0.00  0.00    +0.000 OA
ATOM     19  C   UNL     1     109.503 128.929 135.609  0.00  0.00    +0.000 A 
ATOM     20  C   UNL     1     108.737 129.134 135.835  0.00  0.00    +0.000 A 
ATOM     21  C   UNL     1     109.968 129.465 135.189  0.00  0.00    +0.000 A 
ATOM     22  C   UNL     1     108.434 129.877 135.642  0.00  0.00    +0.000 A 
ATOM     23  C   UNL     1     109.665 130.208 134.996  0.00  0.00    +0.000 A 
ATOM     24  C   UNL     1     108.900 130.415 135.222  0.00  0.00    +0.000 A 
ENDBRANCH   6  19
BRANCH  12  26
ATOM     25  O   UNL     1     114.233 126.835 141.240  0.00  0.00    +0.000 OA
ATOM     26  C   UNL     1     112.709 127.047 139.301  0.00  0.00    +0.000 A 
ATOM     27  C   UNL     1     112.403 127.038 140.067  0.00  0.00    +0.000 A 
ATOM     28  C   UNL     1     113.523 126.985 139.182  0.00  0.00    +0.000 A 
ATOM     29  C   UNL     1     112.911 126.967 140.714  0.00  0.00    +0.000 A 
ATOM     30  C   UNL     1     114.031 126.915 139.828  0.00  0.00    +0.000 A 
ATOM     31  C   UNL     1     113.725 126.905 140.594  0.00  0.00    +0.000 A 
BRANCH  29  32
ATOM     32  O   UNL     1     112.605 126.958 141.480  0.00  0.00    +0.000 OA
ATOM     33  C   UNL     1     111.897 127.349 141.646  0.00  0.00    +0.000 C 
ENDBRANCH  29  32
ENDBRANCH  12  26
BRANCH  11  34
ATOM     34  O   UNL     1     110.230 129.500 136.716  0.00  0.00    +0.000 OA
BRANCH  34  42
ATOM     35  O   UNL     1     109.724 130.205 137.851  0.00  0.00    +0.000 OA
ATOM     36  O   UNL     1     111.557 131.855 137.643  0.00  0.00    +0.000 OA
ATOM     37  O   UNL     1     111.452 130.600 136.577  0.00  0.00    +0.000 OA
ATOM     38  O   UNL     1     110.440 132.011 138.848  0.00  0.00    +0.000 OA
ATOM     39  C   UNL     1     110.946 131.305 137.713  0.00  0.00    +0.000 C 
ATOM     40  C   UNL     1     110.893 130.677 137.179  0.00  0.00    +0.000 C 
ATOM     41  C   UNL     1     110.387 131.382 138.315  0.00  0.00    +0.000 C 
ATOM     42  C   UNL     1     110.282 130.127 137.249  0.00  0.00    +0.000 C 
ATOM     43  C   UNL     1     109.776 130.832 138.384  0.00  0.00    +0.000 C 
BRANCH  43  45
ATOM     44  O   UNL     1     108.577 130.394 139.025  0.00  0.00    +0.000 OA
ATOM     45  C   UNL     1     109.218 130.911 138.987  0.00  0.00    +0.000 C 
ENDBRANCH  43  45
ENDBRANCH  34  42
ENDBRANCH  11  34
TORSDOF 6
ENDMDL
