MODEL 1
REMARK VINA RESULT:      -9.9      0.000      0.000
REMARK  Name = 44257154
REMARK  4 active torsions:
REMARK  status: ('A' for Active; 'I' for Inactive)
REMARK    1  A    between atoms: O_1  and  C_13
REMARK    2  A    between atoms: O_1  and  C_15
REMARK    3  A    between atoms: C_18  and  C_22
REMARK    4  A    between atoms: C_19  and  C_23
REMARK                            x       y       z     vdW  Elec       q    Type
REMARK                         _______ _______ _______ _____ _____    ______ ____
ROOT
ATOM      1  O   UNL     1     105.642 124.405 147.724  0.00  0.00    +0.000 OA
ATOM      2  O   UNL     1     107.045 125.607 146.076  0.00  0.00    +0.000 OA
ATOM      3  O   UNL     1     108.166 125.604 146.985  0.00  0.00    +0.000 OA
ATOM      4  O   UNL     1     107.860 124.362 149.611  0.00  0.00    +0.000 OA
ATOM      5  C   UNL     1     105.797 125.014 146.440  0.00  0.00    +0.000 C 
ATOM      6  C   UNL     1     105.329 124.613 146.990  0.00  0.00    +0.000 C 
ATOM      7  C   UNL     1     106.578 125.206 146.626  0.00  0.00    +0.000 C 
ATOM      8  C   UNL     1     106.891 124.997 147.360  0.00  0.00    +0.000 A 
ATOM      9  C   UNL     1     106.423 124.597 147.908  0.00  0.00    +0.000 A 
ATOM     10  C   UNL     1     107.705 125.203 147.541  0.00  0.00    +0.000 A 
ATOM     11  C   UNL     1     106.737 124.374 148.677  0.00  0.00    +0.000 A 
ATOM     12  C   UNL     1     108.037 124.989 148.304  0.00  0.00    +0.000 A 
ATOM     13  C   UNL     1     107.550 124.571 148.876  0.00  0.00    +0.000 A 
ENDROOT
BRANCH   6  16
ATOM     14  O   UNL     1     102.525 125.027 147.358  0.00  0.00    +0.000 OA
ATOM     15  O   UNL     1     102.206 123.848 146.249  0.00  0.00    +0.000 OA
ATOM     16  C   UNL     1     104.549 124.422 146.804  0.00  0.00    +0.000 A 
ATOM     17  C   UNL     1     103.927 124.820 147.174  0.00  0.00    +0.000 A 
ATOM     18  C   UNL     1     104.389 123.832 146.249  0.00  0.00    +0.000 A 
ATOM     19  C   UNL     1     103.147 124.628 146.988  0.00  0.00    +0.000 A 
ATOM     20  C   UNL     1     103.608 123.641 146.065  0.00  0.00    +0.000 A 
ATOM     21  C   UNL     1     102.987 124.039 146.434  0.00  0.00    +0.000 A 
ENDBRANCH   6  16
BRANCH   5  22
ATOM     22  O   UNL     1     105.484 125.223 145.706  0.00  0.00    +0.000 OA
BRANCH  22  27
ATOM     23  O   UNL     1     105.372 126.611 146.025  0.00  0.00    +0.000 OA
ATOM     24  O   UNL     1     105.697 125.606 144.115  0.00  0.00    +0.000 OA
ATOM     25  O   UNL     1     105.691 127.186 143.639  0.00  0.00    +0.000 OA
ATOM     26  O   UNL     1     105.473 128.382 144.754  0.00  0.00    +0.000 OA
ATOM     27  C   UNL     1     105.481 126.012 145.468  0.00  0.00    +0.000 C 
ATOM     28  C   UNL     1     105.588 126.204 144.673  0.00  0.00    +0.000 C 
ATOM     29  C   UNL     1     105.585 126.994 144.435  0.00  0.00    +0.000 C 
ATOM     30  C   UNL     1     105.476 127.592 144.992  0.00  0.00    +0.000 C 
ATOM     31  C   UNL     1     105.369 127.400 145.788  0.00  0.00    +0.000 C 
BRANCH  31  33
ATOM     32  O   UNL     1     104.572 128.020 146.799  0.00  0.00    +0.000 OA
ATOM     33  C   UNL     1     105.260 127.998 146.344  0.00  0.00    +0.000 C 
ENDBRANCH  31  33
ENDBRANCH  22  27
ENDBRANCH   5  22
TORSDOF 4
ENDMDL
MODEL 2
REMARK VINA RESULT:      -9.4      1.513      4.108
REMARK  Name = 44257154
REMARK  4 active torsions:
REMARK  status: ('A' for Active; 'I' for Inactive)
REMARK    1  A    between atoms: O_1  and  C_13
REMARK    2  A    between atoms: O_1  and  C_15
REMARK    3  A    between atoms: C_18  and  C_22
REMARK    4  A    between atoms: C_19  and  C_23
REMARK                            x       y       z     vdW  Elec       q    Type
REMARK                         _______ _______ _______ _____ _____    ______ ____
ROOT
ATOM      1  O   UNL     1     103.801 125.848 147.293  0.00  0.00    +0.000 OA
ATOM      2  O   UNL     1     105.705 124.457 146.538  0.00  0.00    +0.000 OA
ATOM      3  O   UNL     1     104.816 123.374 146.197  0.00  0.00    +0.000 OA
ATOM      4  O   UNL     1     101.946 123.703 146.628  0.00  0.00    +0.000 OA
ATOM      5  C   UNL     1     105.205 125.681 147.080  0.00  0.00    +0.000 C 
ATOM      6  C   UNL     1     104.570 126.145 147.332  0.00  0.00    +0.000 C 
ATOM      7  C   UNL     1     105.070 124.921 146.790  0.00  0.00    +0.000 C 
ATOM      8  C   UNL     1     104.301 124.624 146.751  0.00  0.00    +0.000 A 
ATOM      9  C   UNL     1     103.667 125.087 147.003  0.00  0.00    +0.000 A 
ATOM     10  C   UNL     1     104.175 123.830 146.447  0.00  0.00    +0.000 A 
ATOM     11  C   UNL     1     102.862 124.789 146.968  0.00  0.00    +0.000 A 
ATOM     12  C   UNL     1     103.377 123.515 146.404  0.00  0.00    +0.000 A 
ATOM     13  C   UNL     1     102.716 123.998 146.666  0.00  0.00    +0.000 A 
ENDROOT
BRANCH   6  16
ATOM     14  O   UNL     1     104.689 127.969 149.528  0.00  0.00    +0.000 OA
ATOM     15  O   UNL     1     105.108 129.186 148.495  0.00  0.00    +0.000 OA
ATOM     16  C   UNL     1     104.704 126.905 147.622  0.00  0.00    +0.000 A 
ATOM     17  C   UNL     1     104.629 127.057 148.430  0.00  0.00    +0.000 A 
ATOM     18  C   UNL     1     104.914 127.513 147.105  0.00  0.00    +0.000 A 
ATOM     19  C   UNL     1     104.764 127.817 148.720  0.00  0.00    +0.000 A 
ATOM     20  C   UNL     1     105.048 128.273 147.397  0.00  0.00    +0.000 A 
ATOM     21  C   UNL     1     104.973 128.425 148.204  0.00  0.00    +0.000 A 
ENDBRANCH   6  16
BRANCH   5  22
ATOM     22  O   UNL     1     105.973 125.978 147.119  0.00  0.00    +0.000 OA
BRANCH  22  27
ATOM     23  O   UNL     1     106.326 125.278 148.313  0.00  0.00    +0.000 OA
ATOM     24  O   UNL     1     107.532 125.862 146.590  0.00  0.00    +0.000 OA
ATOM     25  O   UNL     1     108.664 125.103 147.520  0.00  0.00    +0.000 OA
ATOM     26  O   UNL     1     108.237 124.461 148.978  0.00  0.00    +0.000 OA
ATOM     27  C   UNL     1     106.539 125.599 147.583  0.00  0.00    +0.000 C 
ATOM     28  C   UNL     1     107.318 125.541 147.319  0.00  0.00    +0.000 C 
ATOM     29  C   UNL     1     107.885 125.161 147.784  0.00  0.00    +0.000 C 
ATOM     30  C   UNL     1     107.671 124.840 148.513  0.00  0.00    +0.000 C 
ATOM     31  C   UNL     1     106.892 124.898 148.778  0.00  0.00    +0.000 C 
BRANCH  31  33
ATOM     32  O   UNL     1     106.202 123.905 149.539  0.00  0.00    +0.000 OA
ATOM     33  C   UNL     1     106.679 124.578 149.507  0.00  0.00    +0.000 C 
ENDBRANCH  31  33
ENDBRANCH  22  27
ENDBRANCH   5  22
TORSDOF 4
ENDMDL
MODEL 3
REMARK VINA RESULT:      -9.2      0.927      3.532
REMARK  Name = 44257154
REMARK  4 active torsions:
REMARK  status: ('A' for Active; 'I' for Inactive)
REMARK    1  A    between atoms: O_1  and  C_13
REMARK    2  A    between atoms: O_1  and  C_15
REMARK    3  A    between atoms: C_18  and  C_22
REMARK    4  A    between atoms: C_19  and  C_23
REMARK                            x       y       z     vdW  Elec       q    Type
REMARK                         _______ _______ _______ _____ _____    ______ ____
ROOT
ATOM      1  O   UNL     1     106.701 125.490 146.856  0.00  0.00    +0.000 OA
ATOM      2  O   UNL     1     104.739 124.768 148.183  0.00  0.00    +0.000 OA
ATOM      3  O   UNL     1     105.596 124.273 149.233  0.00  0.00    +0.000 OA
ATOM      4  O   UNL     1     108.491 124.513 148.935  0.00  0.00    +0.000 OA
ATOM      5  C   UNL     1     105.284 125.370 147.007  0.00  0.00    +0.000 C 
ATOM      6  C   UNL     1     105.938 125.611 146.565  0.00  0.00    +0.000 C 
ATOM      7  C   UNL     1     105.393 125.009 147.741  0.00  0.00    +0.000 C 
ATOM      8  C   UNL     1     106.156 124.888 148.032  0.00  0.00    +0.000 A 
ATOM      9  C   UNL     1     106.809 125.129 147.590  0.00  0.00    +0.000 A 
ATOM     10  C   UNL     1     106.255 124.510 148.798  0.00  0.00    +0.000 A 
ATOM     11  C   UNL     1     107.608 125.009 147.882  0.00  0.00    +0.000 A 
ATOM     12  C   UNL     1     107.047 124.382 149.106  0.00  0.00    +0.000 A 
ATOM     13  C   UNL     1     107.728 124.633 148.646  0.00  0.00    +0.000 A 
ENDROOT
BRANCH   6  16
ATOM     14  O   UNL     1     106.151 125.539 143.716  0.00  0.00    +0.000 OA
ATOM     15  O   UNL     1     105.502 127.054 143.629  0.00  0.00    +0.000 OA
ATOM     16  C   UNL     1     105.829 125.972 145.831  0.00  0.00    +0.000 A 
ATOM     17  C   UNL     1     106.045 125.575 145.140  0.00  0.00    +0.000 A 
ATOM     18  C   UNL     1     105.505 126.729 145.788  0.00  0.00    +0.000 A 
ATOM     19  C   UNL     1     105.936 125.936 144.407  0.00  0.00    +0.000 A 
ATOM     20  C   UNL     1     105.396 127.090 145.054  0.00  0.00    +0.000 A 
ATOM     21  C   UNL     1     105.611 126.694 144.364  0.00  0.00    +0.000 A 
ENDBRANCH   6  16
BRANCH   5  22
ATOM     22  O   UNL     1     104.522 125.491 146.716  0.00  0.00    +0.000 OA
BRANCH  22  27
ATOM     23  O   UNL     1     104.285 124.152 146.275  0.00  0.00    +0.000 OA
ATOM     24  O   UNL     1     102.952 125.606 147.210  0.00  0.00    +0.000 OA
ATOM     25  O   UNL     1     101.930 124.325 147.018  0.00  0.00    +0.000 OA
ATOM     26  O   UNL     1     102.478 122.929 146.330  0.00  0.00    +0.000 OA
ATOM     27  C   UNL     1     104.011 124.851 146.619  0.00  0.00    +0.000 C 
ATOM     28  C   UNL     1     103.227 124.908 146.867  0.00  0.00    +0.000 C 
ATOM     29  C   UNL     1     102.715 124.267 146.770  0.00  0.00    +0.000 C 
ATOM     30  C   UNL     1     102.989 123.569 146.427  0.00  0.00    +0.000 C 
ATOM     31  C   UNL     1     103.774 123.512 146.179  0.00  0.00    +0.000 C 
BRANCH  31  33
ATOM     32  O   UNL     1     104.366 122.825 145.074  0.00  0.00    +0.000 OA
ATOM     33  C   UNL     1     104.048 122.814 145.836  0.00  0.00    +0.000 C 
ENDBRANCH  31  33
ENDBRANCH  22  27
ENDBRANCH   5  22
TORSDOF 4
ENDMDL
MODEL 4
REMARK VINA RESULT:      -9.2     11.692     12.932
REMARK  Name = 44257154
REMARK  4 active torsions:
REMARK  status: ('A' for Active; 'I' for Inactive)
REMARK    1  A    between atoms: O_1  and  C_13
REMARK    2  A    between atoms: O_1  and  C_15
REMARK    3  A    between atoms: C_18  and  C_22
REMARK    4  A    between atoms: C_19  and  C_23
REMARK                            x       y       z     vdW  Elec       q    Type
REMARK                         _______ _______ _______ _____ _____    ______ ____
ROOT
ATOM      1  O   UNL     1     111.906 125.766 136.133  0.00  0.00    +0.000 OA
ATOM      2  O   UNL     1     111.333 128.066 136.850  0.00  0.00    +0.000 OA
ATOM      3  O   UNL     1     110.096 128.020 136.108  0.00  0.00    +0.000 OA
ATOM      4  O   UNL     1     109.427 125.601 134.612  0.00  0.00    +0.000 OA
ATOM      5  C   UNL     1     112.228 126.952 136.863  0.00  0.00    +0.000 C 
ATOM      6  C   UNL     1     112.419 126.185 136.624  0.00  0.00    +0.000 C 
ATOM      7  C   UNL     1     111.524 127.299 136.611  0.00  0.00    +0.000 C 
ATOM      8  C   UNL     1     111.010 126.880 136.120  0.00  0.00    +0.000 A 
ATOM      9  C   UNL     1     111.201 126.114 135.881  0.00  0.00    +0.000 A 
ATOM     10  C   UNL     1     110.279 127.253 135.864  0.00  0.00    +0.000 A 
ATOM     11  C   UNL     1     110.675 125.667 135.370  0.00  0.00    +0.000 A 
ATOM     12  C   UNL     1     109.741 126.821 135.352  0.00  0.00    +0.000 A 
ATOM     13  C   UNL     1     109.939 126.023 135.103  0.00  0.00    +0.000 A 
ENDROOT
BRANCH   6  16
ATOM     14  O   UNL     1     115.077 125.294 136.066  0.00  0.00    +0.000 OA
ATOM     15  O   UNL     1     115.239 124.799 137.632  0.00  0.00    +0.000 OA
ATOM     16  C   UNL     1     113.124 125.839 136.877  0.00  0.00    +0.000 A 
ATOM     17  C   UNL     1     113.748 125.740 136.345  0.00  0.00    +0.000 A 
ATOM     18  C   UNL     1     113.205 125.591 137.659  0.00  0.00    +0.000 A 
ATOM     19  C   UNL     1     114.453 125.393 136.598  0.00  0.00    +0.000 A 
ATOM     20  C   UNL     1     113.911 125.245 137.911  0.00  0.00    +0.000 A 
ATOM     21  C   UNL     1     114.534 125.146 137.381  0.00  0.00    +0.000 A 
ENDBRANCH   6  16
BRANCH   5  22
ATOM     22  O   UNL     1     112.742 127.371 137.355  0.00  0.00    +0.000 OA
BRANCH  22  27
ATOM     23  O   UNL     1     113.244 128.227 136.326  0.00  0.00    +0.000 OA
ATOM     24  O   UNL     1     112.915 128.590 138.453  0.00  0.00    +0.000 OA
ATOM     25  O   UNL     1     113.503 130.055 137.973  0.00  0.00    +0.000 OA
ATOM     26  O   UNL     1     113.918 130.301 136.396  0.00  0.00    +0.000 OA
ATOM     27  C   UNL     1     113.036 128.103 137.115  0.00  0.00    +0.000 C 
ATOM     28  C   UNL     1     113.122 128.713 137.664  0.00  0.00    +0.000 C 
ATOM     29  C   UNL     1     113.417 129.446 137.424  0.00  0.00    +0.000 C 
ATOM     30  C   UNL     1     113.624 129.568 136.635  0.00  0.00    +0.000 C 
ATOM     31  C   UNL     1     113.538 128.958 136.086  0.00  0.00    +0.000 C 
BRANCH  31  33
ATOM     32  O   UNL     1     114.389 128.680 134.972  0.00  0.00    +0.000 OA
ATOM     33  C   UNL     1     113.746 129.081 135.298  0.00  0.00    +0.000 C 
ENDBRANCH  31  33
ENDBRANCH  22  27
ENDBRANCH   5  22
TORSDOF 4
ENDMDL
MODEL 5
REMARK VINA RESULT:      -9.1     10.994     12.546
REMARK  Name = 44257154
REMARK  4 active torsions:
REMARK  status: ('A' for Active; 'I' for Inactive)
REMARK    1  A    between atoms: O_1  and  C_13
REMARK    2  A    between atoms: O_1  and  C_15
REMARK    3  A    between atoms: C_18  and  C_22
REMARK    4  A    between atoms: C_19  and  C_23
REMARK                            x       y       z     vdW  Elec       q    Type
REMARK                         _______ _______ _______ _____ _____    ______ ____
ROOT
ATOM      1  O   UNL     1     111.809 129.564 135.867  0.00  0.00    +0.000 OA
ATOM      2  O   UNL     1     112.318 130.881 137.901  0.00  0.00    +0.000 OA
ATOM      3  O   UNL     1     113.713 130.955 137.538  0.00  0.00    +0.000 OA
ATOM      4  O   UNL     1     114.609 129.674 135.071  0.00  0.00    +0.000 OA
ATOM      5  C   UNL     1     111.376 130.193 137.075  0.00  0.00    +0.000 C 
ATOM      6  C   UNL     1     111.207 129.754 136.397  0.00  0.00    +0.000 C 
ATOM      7  C   UNL     1     112.149 130.442 137.222  0.00  0.00    +0.000 C 
ATOM      8  C   UNL     1     112.752 130.252 136.692  0.00  0.00    +0.000 A 
ATOM      9  C   UNL     1     112.582 129.814 136.015  0.00  0.00    +0.000 A 
ATOM     10  C   UNL     1     113.552 130.517 136.858  0.00  0.00    +0.000 A 
ATOM     11  C   UNL     1     113.201 129.609 135.455  0.00  0.00    +0.000 A 
ATOM     12  C   UNL     1     114.184 130.322 136.309  0.00  0.00    +0.000 A 
ATOM     13  C   UNL     1     114.008 129.865 135.603  0.00  0.00    +0.000 A 
ENDROOT
BRANCH   6  16
ATOM     14  O   UNL     1     108.759 130.012 134.943  0.00  0.00    +0.000 OA
ATOM     15  O   UNL     1     108.115 128.762 135.806  0.00  0.00    +0.000 OA
ATOM     16  C   UNL     1     110.434 129.506 136.250  0.00  0.00    +0.000 A 
ATOM     17  C   UNL     1     109.983 129.883 135.670  0.00  0.00    +0.000 A 
ATOM     18  C   UNL     1     110.112 128.881 136.681  0.00  0.00    +0.000 A 
ATOM     19  C   UNL     1     109.210 129.635 135.523  0.00  0.00    +0.000 A 
ATOM     20  C   UNL     1     109.339 128.633 136.533  0.00  0.00    +0.000 A 
ATOM     21  C   UNL     1     108.888 129.010 135.954  0.00  0.00    +0.000 A 
ENDBRANCH   6  16
BRANCH   5  22
ATOM     22  O   UNL     1     110.773 130.383 137.605  0.00  0.00    +0.000 OA
BRANCH  22  27
ATOM     23  O   UNL     1     110.673 131.750 137.199  0.00  0.00    +0.000 OA
ATOM     24  O   UNL     1     110.346 130.808 139.141  0.00  0.00    +0.000 OA
ATOM     25  O   UNL     1     110.032 132.388 139.503  0.00  0.00    +0.000 OA
ATOM     26  O   UNL     1     110.146 133.540 138.329  0.00  0.00    +0.000 OA
ATOM     27  C   UNL     1     110.617 131.172 137.786  0.00  0.00    +0.000 C 
ATOM     28  C   UNL     1     110.403 131.385 138.554  0.00  0.00    +0.000 C 
ATOM     29  C   UNL     1     110.246 132.175 138.735  0.00  0.00    +0.000 C 
ATOM     30  C   UNL     1     110.303 132.751 138.148  0.00  0.00    +0.000 C 
ATOM     31  C   UNL     1     110.517 132.539 137.380  0.00  0.00    +0.000 C 
BRANCH  31  33
ATOM     32  O   UNL     1     110.052 133.107 136.154  0.00  0.00    +0.000 OA
ATOM     33  C   UNL     1     110.574 133.115 136.793  0.00  0.00    +0.000 C 
ENDBRANCH  31  33
ENDBRANCH  22  27
ENDBRANCH   5  22
TORSDOF 4
ENDMDL
MODEL 6
REMARK VINA RESULT:      -9.1     10.087     12.289
REMARK  Name = 44257154
REMARK  4 active torsions:
REMARK  status: ('A' for Active; 'I' for Inactive)
REMARK    1  A    between atoms: O_1  and  C_13
REMARK    2  A    between atoms: O_1  and  C_15
REMARK    3  A    between atoms: C_18  and  C_22
REMARK    4  A    between atoms: C_19  and  C_23
REMARK                            x       y       z     vdW  Elec       q    Type
REMARK                         _______ _______ _______ _____ _____    ______ ____
ROOT
ATOM      1  O   UNL     1     113.553 126.806 136.789  0.00  0.00    +0.000 OA
ATOM      2  O   UNL     1     111.601 125.496 136.014  0.00  0.00    +0.000 OA
ATOM      3  O   UNL     1     112.264 124.258 136.345  0.00  0.00    +0.000 OA
ATOM      4  O   UNL     1     114.953 124.348 137.481  0.00  0.00    +0.000 OA
ATOM      5  C   UNL     1     112.237 126.757 136.233  0.00  0.00    +0.000 C 
ATOM      6  C   UNL     1     112.888 127.193 136.491  0.00  0.00    +0.000 C 
ATOM      7  C   UNL     1     112.252 125.933 136.272  0.00  0.00    +0.000 C 
ATOM      8  C   UNL     1     112.917 125.545 136.570  0.00  0.00    +0.000 A 
ATOM      9  C   UNL     1     113.567 125.982 136.828  0.00  0.00    +0.000 A 
ATOM     10  C   UNL     1     112.919 124.687 136.605  0.00  0.00    +0.000 A 
ATOM     11  C   UNL     1     114.265 125.591 137.139  0.00  0.00    +0.000 A 
ATOM     12  C   UNL     1     113.609 124.278 136.914  0.00  0.00    +0.000 A 
ATOM     13  C   UNL     1     114.287 124.733 137.183  0.00  0.00    +0.000 A 
ENDROOT
BRANCH   6  16
ATOM     14  O   UNL     1     112.674 129.729 137.792  0.00  0.00    +0.000 OA
ATOM     15  O   UNL     1     112.828 130.489 136.336  0.00  0.00    +0.000 OA
ATOM     16  C   UNL     1     112.873 128.017 136.452  0.00  0.00    +0.000 A 
ATOM     17  C   UNL     1     112.781 128.461 137.142  0.00  0.00    +0.000 A 
ATOM     18  C   UNL     1     112.950 128.397 135.724  0.00  0.00    +0.000 A 
ATOM     19  C   UNL     1     112.766 129.285 137.102  0.00  0.00    +0.000 A 
ATOM     20  C   UNL     1     112.935 129.221 135.685  0.00  0.00    +0.000 A 
ATOM     21  C   UNL     1     112.843 129.665 136.374  0.00  0.00    +0.000 A 
ENDBRANCH   6  16
BRANCH   5  22
ATOM     22  O   UNL     1     111.572 127.144 135.935  0.00  0.00    +0.000 OA
BRANCH  22  27
ATOM     23  O   UNL     1     110.778 126.919 137.102  0.00  0.00    +0.000 OA
ATOM     24  O   UNL     1     110.210 127.121 135.004  0.00  0.00    +0.000 OA
ATOM     25  O   UNL     1     108.735 126.884 135.705  0.00  0.00    +0.000 OA
ATOM     26  O   UNL     1     108.623 126.670 137.336  0.00  0.00    +0.000 OA
ATOM     27  C   UNL     1     110.835 127.026 136.286  0.00  0.00    +0.000 C 
ATOM     28  C   UNL     1     110.154 127.014 135.820  0.00  0.00    +0.000 C 
ATOM     29  C   UNL     1     109.416 126.895 136.170  0.00  0.00    +0.000 C 
ATOM     30  C   UNL     1     109.360 126.789 136.987  0.00  0.00    +0.000 C 
ATOM     31  C   UNL     1     110.041 126.800 137.452  0.00  0.00    +0.000 C 
BRANCH  31  33
ATOM     32  O   UNL     1     110.227 127.293 138.781  0.00  0.00    +0.000 OA
ATOM     33  C   UNL     1     109.985 126.694 138.268  0.00  0.00    +0.000 C 
ENDBRANCH  31  33
ENDBRANCH  22  27
ENDBRANCH   5  22
TORSDOF 4
ENDMDL
MODEL 7
REMARK VINA RESULT:      -9.1      9.049     11.077
REMARK  Name = 44257154
REMARK  4 active torsions:
REMARK  status: ('A' for Active; 'I' for Inactive)
REMARK    1  A    between atoms: O_1  and  C_13
REMARK    2  A    between atoms: O_1  and  C_15
REMARK    3  A    between atoms: C_18  and  C_22
REMARK    4  A    between atoms: C_19  and  C_23
REMARK                            x       y       z     vdW  Elec       q    Type
REMARK                         _______ _______ _______ _____ _____    ______ ____
ROOT
ATOM      1  O   UNL     1     113.803 126.198 138.363  0.00  0.00    +0.000 OA
ATOM      2  O   UNL     1     111.705 124.972 137.888  0.00  0.00    +0.000 OA
ATOM      3  O   UNL     1     112.324 124.283 136.782  0.00  0.00    +0.000 OA
ATOM      4  O   UNL     1     115.119 124.844 136.145  0.00  0.00    +0.000 OA
ATOM      5  C   UNL     1     112.435 125.919 138.671  0.00  0.00    +0.000 C 
ATOM      6  C   UNL     1     113.135 126.328 138.829  0.00  0.00    +0.000 C 
ATOM      7  C   UNL     1     112.405 125.381 138.046  0.00  0.00    +0.000 C 
ATOM      8  C   UNL     1     113.073 125.250 137.581  0.00  0.00    +0.000 A 
ATOM      9  C   UNL     1     113.771 125.659 137.739  0.00  0.00    +0.000 A 
ATOM     10  C   UNL     1     113.028 124.687 136.933  0.00  0.00    +0.000 A 
ATOM     11  C   UNL     1     114.474 125.532 137.261  0.00  0.00    +0.000 A 
ATOM     12  C   UNL     1     113.720 124.547 136.445  0.00  0.00    +0.000 A 
ATOM     13  C   UNL     1     114.449 124.972 136.609  0.00  0.00    +0.000 A 
ENDROOT
BRANCH   6  16
ATOM     14  O   UNL     1     113.227 129.026 139.766  0.00  0.00    +0.000 OA
ATOM     15  O   UNL     1     113.256 128.484 141.324  0.00  0.00    +0.000 OA
ATOM     16  C   UNL     1     113.165 126.866 139.453  0.00  0.00    +0.000 A 
ATOM     17  C   UNL     1     113.181 127.677 139.297  0.00  0.00    +0.000 A 
ATOM     18  C   UNL     1     113.180 126.595 140.232  0.00  0.00    +0.000 A 
ATOM     19  C   UNL     1     113.211 128.216 139.921  0.00  0.00    +0.000 A 
ATOM     20  C   UNL     1     113.210 127.135 140.855  0.00  0.00    +0.000 A 
ATOM     21  C   UNL     1     113.226 127.945 140.700  0.00  0.00    +0.000 A 
ENDBRANCH   6  16
BRANCH   5  22
ATOM     22  O   UNL     1     111.767 126.050 139.136  0.00  0.00    +0.000 OA
BRANCH  22  27
ATOM     23  O   UNL     1     111.090 126.826 138.145  0.00  0.00    +0.000 OA
ATOM     24  O   UNL     1     110.314 125.536 139.725  0.00  0.00    +0.000 OA
ATOM     25  O   UNL     1     108.911 126.055 139.029  0.00  0.00    +0.000 OA
ATOM     26  O   UNL     1     108.962 127.088 137.744  0.00  0.00    +0.000 OA
ATOM     27  C   UNL     1     111.066 126.309 138.788  0.00  0.00    +0.000 C 
ATOM     28  C   UNL     1     110.339 126.052 139.083  0.00  0.00    +0.000 C 
ATOM     29  C   UNL     1     109.637 126.312 138.734  0.00  0.00    +0.000 C 
ATOM     30  C   UNL     1     109.663 126.829 138.092  0.00  0.00    +0.000 C 
ATOM     31  C   UNL     1     110.390 127.085 137.797  0.00  0.00    +0.000 C 
BRANCH  31  33
ATOM     32  O   UNL     1     110.762 128.346 137.236  0.00  0.00    +0.000 OA
ATOM     33  C   UNL     1     110.415 127.602 137.155  0.00  0.00    +0.000 C 
ENDBRANCH  31  33
ENDBRANCH  22  27
ENDBRANCH   5  22
TORSDOF 4
ENDMDL
MODEL 8
REMARK VINA RESULT:      -9.1      9.876     12.043
REMARK  Name = 44257154
REMARK  4 active torsions:
REMARK  status: ('A' for Active; 'I' for Inactive)
REMARK    1  A    between atoms: O_1  and  C_13
REMARK    2  A    between atoms: O_1  and  C_15
REMARK    3  A    between atoms: C_18  and  C_22
REMARK    4  A    between atoms: C_19  and  C_23
REMARK                            x       y       z     vdW  Elec       q    Type
REMARK                         _______ _______ _______ _____ _____    ______ ____
ROOT
ATOM      1  O   UNL     1     113.548 127.305 136.648  0.00  0.00    +0.000 OA
ATOM      2  O   UNL     1     112.112 128.215 138.449  0.00  0.00    +0.000 OA
ATOM      3  O   UNL     1     112.328 129.562 137.979  0.00  0.00    +0.000 OA
ATOM      4  O   UNL     1     114.028 129.996 135.643  0.00  0.00    +0.000 OA
ATOM      5  C   UNL     1     112.715 127.098 137.792  0.00  0.00    +0.000 C 
ATOM      6  C   UNL     1     113.193 126.795 137.191  0.00  0.00    +0.000 C 
ATOM      7  C   UNL     1     112.591 127.912 137.848  0.00  0.00    +0.000 C 
ATOM      8  C   UNL     1     112.945 128.422 137.305  0.00  0.00    +0.000 A 
ATOM      9  C   UNL     1     113.423 128.119 136.706  0.00  0.00    +0.000 A 
ATOM     10  C   UNL     1     112.808 129.268 137.375  0.00  0.00    +0.000 A 
ATOM     11  C   UNL     1     113.798 128.639 136.134  0.00  0.00    +0.000 A 
ATOM     12  C   UNL     1     113.174 129.804 136.813  0.00  0.00    +0.000 A 
ATOM     13  C   UNL     1     113.673 129.488 136.188  0.00  0.00    +0.000 A 
ENDROOT
BRANCH   6  16
ATOM     14  O   UNL     1     114.897 124.523 137.517  0.00  0.00    +0.000 OA
ATOM     15  O   UNL     1     113.691 123.540 136.967  0.00  0.00    +0.000 OA
ATOM     16  C   UNL     1     113.317 125.981 137.135  0.00  0.00    +0.000 A 
ATOM     17  C   UNL     1     114.045 125.659 137.354  0.00  0.00    +0.000 A 
ATOM     18  C   UNL     1     112.714 125.490 136.860  0.00  0.00    +0.000 A 
ATOM     19  C   UNL     1     114.169 124.845 137.298  0.00  0.00    +0.000 A 
ATOM     20  C   UNL     1     112.839 124.676 136.804  0.00  0.00    +0.000 A 
ATOM     21  C   UNL     1     113.566 124.354 137.023  0.00  0.00    +0.000 A 
ENDBRANCH   6  16
BRANCH   5  22
ATOM     22  O   UNL     1     112.361 126.588 138.335  0.00  0.00    +0.000 OA
BRANCH  22  27
ATOM     23  O   UNL     1     113.247 126.935 139.400  0.00  0.00    +0.000 OA
ATOM     24  O   UNL     1     111.174 126.254 139.431  0.00  0.00    +0.000 OA
ATOM     25  O   UNL     1     111.467 126.434 141.045  0.00  0.00    +0.000 OA
ATOM     26  O   UNL     1     112.947 126.947 141.562  0.00  0.00    +0.000 OA
ATOM     27  C   UNL     1     112.507 126.678 139.141  0.00  0.00    +0.000 C 
ATOM     28  C   UNL     1     111.914 126.511 139.689  0.00  0.00    +0.000 C 
ATOM     29  C   UNL     1     112.060 126.601 140.497  0.00  0.00    +0.000 C 
ATOM     30  C   UNL     1     112.801 126.858 140.755  0.00  0.00    +0.000 C 
ATOM     31  C   UNL     1     113.394 127.024 140.207  0.00  0.00    +0.000 C 
BRANCH  31  33
ATOM     32  O   UNL     1     114.796 126.798 140.368  0.00  0.00    +0.000 OA
ATOM     33  C   UNL     1     114.134 127.281 140.465  0.00  0.00    +0.000 C 
ENDBRANCH  31  33
ENDBRANCH  22  27
ENDBRANCH   5  22
TORSDOF 4
ENDMDL
MODEL 9
REMARK VINA RESULT:      -9.1      9.822     11.811
REMARK  Name = 44257154
REMARK  4 active torsions:
REMARK  status: ('A' for Active; 'I' for Inactive)
REMARK    1  A    between atoms: O_1  and  C_13
REMARK    2  A    between atoms: O_1  and  C_15
REMARK    3  A    between atoms: C_18  and  C_22
REMARK    4  A    between atoms: C_19  and  C_23
REMARK                            x       y       z     vdW  Elec       q    Type
REMARK                         _______ _______ _______ _____ _____    ______ ____
ROOT
ATOM      1  O   UNL     1     113.102 126.105 138.630  0.00  0.00    +0.000 OA
ATOM      2  O   UNL     1     110.762 125.660 137.956  0.00  0.00    +0.000 OA
ATOM      3  O   UNL     1     110.274 126.141 139.226  0.00  0.00    +0.000 OA
ATOM      4  O   UNL     1     112.191 127.089 141.216  0.00  0.00    +0.000 OA
ATOM      5  C   UNL     1     112.159 125.642 137.660  0.00  0.00    +0.000 C 
ATOM      6  C   UNL     1     112.940 125.790 137.885  0.00  0.00    +0.000 C 
ATOM      7  C   UNL     1     111.542 125.809 138.181  0.00  0.00    +0.000 C 
ATOM      8  C   UNL     1     111.704 126.123 138.926  0.00  0.00    +0.000 A 
ATOM      9  C   UNL     1     112.483 126.271 139.151  0.00  0.00    +0.000 A 
ATOM     10  C   UNL     1     111.051 126.292 139.459  0.00  0.00    +0.000 A 
ATOM     11  C   UNL     1     112.666 126.598 139.924  0.00  0.00    +0.000 A 
ATOM     12  C   UNL     1     111.214 126.620 140.237  0.00  0.00    +0.000 A 
ATOM     13  C   UNL     1     112.026 126.774 140.471  0.00  0.00    +0.000 A 
ENDROOT
BRANCH   6  16
ATOM     14  O   UNL     1     114.901 126.682 136.007  0.00  0.00    +0.000 OA
ATOM     15  O   UNL     1     115.410 125.126 135.800  0.00  0.00    +0.000 OA
ATOM     16  C   UNL     1     113.557 125.624 137.364  0.00  0.00    +0.000 A 
ATOM     17  C   UNL     1     113.921 126.236 136.946  0.00  0.00    +0.000 A 
ATOM     18  C   UNL     1     113.812 124.846 137.260  0.00  0.00    +0.000 A 
ATOM     19  C   UNL     1     114.538 126.070 136.425  0.00  0.00    +0.000 A 
ATOM     20  C   UNL     1     114.430 124.680 136.739  0.00  0.00    +0.000 A 
ATOM     21  C   UNL     1     114.792 125.292 136.321  0.00  0.00    +0.000 A 
ENDBRANCH   6  16
BRANCH   5  22
ATOM     22  O   UNL     1     111.997 125.327 136.915  0.00  0.00    +0.000 OA
BRANCH  22  27
ATOM     23  O   UNL     1     111.520 126.563 136.379  0.00  0.00    +0.000 OA
ATOM     24  O   UNL     1     111.005 124.499 135.890  0.00  0.00    +0.000 OA
ATOM     25  O   UNL     1     110.030 125.320 134.842  0.00  0.00    +0.000 OA
ATOM     26  O   UNL     1     110.049 126.969 134.819  0.00  0.00    +0.000 OA
ATOM     27  C   UNL     1     111.511 125.738 136.391  0.00  0.00    +0.000 C 
ATOM     28  C   UNL     1     111.014 125.324 135.879  0.00  0.00    +0.000 C 
ATOM     29  C   UNL     1     110.527 125.735 135.354  0.00  0.00    +0.000 C 
ATOM     30  C   UNL     1     110.536 126.559 135.343  0.00  0.00    +0.000 C 
ATOM     31  C   UNL     1     111.033 126.973 135.855  0.00  0.00    +0.000 C 
BRANCH  31  33
ATOM     32  O   UNL     1     111.729 128.200 135.627  0.00  0.00    +0.000 OA
ATOM     33  C   UNL     1     111.042 127.798 135.844  0.00  0.00    +0.000 C 
ENDBRANCH  31  33
ENDBRANCH  22  27
ENDBRANCH   5  22
TORSDOF 4
ENDMDL
MODEL 10
REMARK VINA RESULT:      -9.0     10.765     11.746
REMARK  Name = 44257154
REMARK  4 active torsions:
REMARK  status: ('A' for Active; 'I' for Inactive)
REMARK    1  A    between atoms: O_1  and  C_13
REMARK    2  A    between atoms: O_1  and  C_15
REMARK    3  A    between atoms: C_18  and  C_22
REMARK    4  A    between atoms: C_19  and  C_23
REMARK                            x       y       z     vdW  Elec       q    Type
REMARK                         _______ _______ _______ _____ _____    ______ ____
ROOT
ATOM      1  O   UNL     1     113.318 126.084 138.925  0.00  0.00    +0.000 OA
ATOM      2  O   UNL     1     112.372 128.321 138.445  0.00  0.00    +0.000 OA
ATOM      3  O   UNL     1     113.069 128.890 139.573  0.00  0.00    +0.000 OA
ATOM      4  O   UNL     1     114.755 127.162 141.217  0.00  0.00    +0.000 OA
ATOM      5  C   UNL     1     112.494 126.934 138.123  0.00  0.00    +0.000 C 
ATOM      6  C   UNL     1     112.809 126.188 138.283  0.00  0.00    +0.000 C 
ATOM      7  C   UNL     1     112.688 127.575 138.605  0.00  0.00    +0.000 C 
ATOM      8  C   UNL     1     113.196 127.471 139.246  0.00  0.00    +0.000 A 
ATOM      9  C   UNL     1     113.511 126.726 139.406  0.00  0.00    +0.000 A 
ATOM     10  C   UNL     1     113.389 128.148 139.740  0.00  0.00    +0.000 A 
ATOM     11  C   UNL     1     114.041 126.604 140.071  0.00  0.00    +0.000 A 
ATOM     12  C   UNL     1     113.918 128.045 140.409  0.00  0.00    +0.000 A 
ATOM     13  C   UNL     1     114.247 127.269 140.576  0.00  0.00    +0.000 A 
ENDROOT
BRANCH   6  16
ATOM     14  O   UNL     1     113.543 124.294 136.273  0.00  0.00    +0.000 OA
ATOM     15  O   UNL     1     112.037 123.624 136.355  0.00  0.00    +0.000 OA
ATOM     16  C   UNL     1     112.616 125.547 137.802  0.00  0.00    +0.000 A 
ATOM     17  C   UNL     1     113.176 125.241 137.278  0.00  0.00    +0.000 A 
ATOM     18  C   UNL     1     111.863 125.212 137.843  0.00  0.00    +0.000 A 
ATOM     19  C   UNL     1     112.983 124.600 136.796  0.00  0.00    +0.000 A 
ATOM     20  C   UNL     1     111.671 124.571 137.360  0.00  0.00    +0.000 A 
ATOM     21  C   UNL     1     112.230 124.265 136.838  0.00  0.00    +0.000 A 
ENDBRANCH   6  16
BRANCH   5  22
ATOM     22  O   UNL     1     111.986 127.038 137.482  0.00  0.00    +0.000 OA
BRANCH  22  27
ATOM     23  O   UNL     1     112.958 127.717 136.684  0.00  0.00    +0.000 OA
ATOM     24  O   UNL     1     110.781 127.873 136.724  0.00  0.00    +0.000 OA
ATOM     25  O   UNL     1     111.151 128.969 135.547  0.00  0.00    +0.000 OA
ATOM     26  O   UNL     1     112.725 129.230 135.129  0.00  0.00    +0.000 OA
ATOM     27  C   UNL     1     112.171 127.586 136.894  0.00  0.00    +0.000 C 
ATOM     28  C   UNL     1     111.568 128.003 136.515  0.00  0.00    +0.000 C 
ATOM     29  C   UNL     1     111.753 128.552 135.926  0.00  0.00    +0.000 C 
ATOM     30  C   UNL     1     112.540 128.682 135.717  0.00  0.00    +0.000 C 
ATOM     31  C   UNL     1     113.143 128.264 136.096  0.00  0.00    +0.000 C 
BRANCH  31  33
ATOM     32  O   UNL     1     114.407 127.762 135.661  0.00  0.00    +0.000 OA
ATOM     33  C   UNL     1     113.929 128.395 135.887  0.00  0.00    +0.000 C 
ENDBRANCH  31  33
ENDBRANCH  22  27
ENDBRANCH   5  22
TORSDOF 4
ENDMDL
