MODEL 1
REMARK VINA RESULT:      -9.3      0.000      0.000
REMARK  Name = 44258794
REMARK  14 active torsions:
REMARK  status: ('A' for Active; 'I' for Inactive)
REMARK    1  A    between atoms: O_1  and  C_26
REMARK    2  A    between atoms: O_1  and  C_31
REMARK    3  A    between atoms: O_2  and  C_27
REMARK    4  A    between atoms: O_2  and  C_34
REMARK    5  A    between atoms: O_7  and  C_32
REMARK    6  A    between atoms: O_7  and  C_50
REMARK    7  A    between atoms: O_9  and  C_39
REMARK    8  A    between atoms: O_9  and  C_51
REMARK    9  A    between atoms: C_35  and  C_46
REMARK   10  A    between atoms: C_43  and  C_47
REMARK   11  A    between atoms: C_45  and  C_49
REMARK   12  A    between atoms: C_52  and  C_59
REMARK   13  A    between atoms: C_57  and  C_60
REMARK   14  A    between atoms: C_59  and  C_61
REMARK                            x       y       z     vdW  Elec       q    Type
REMARK                         _______ _______ _______ _____ _____    ______ ____
ROOT
ATOM      1  O   UNL     1     106.013 130.969 143.629  0.00  0.00    +0.000 OA
ATOM      2  O   UNL     1     105.591 131.256 141.207  0.00  0.00    +0.000 OA
ATOM      3  O   UNL     1     106.966 130.944 140.902  0.00  0.00    +0.000 OA
ATOM      4  C   UNL     1     108.050 130.534 142.818  0.00  0.00    +0.000 A 
ATOM      5  C   UNL     1     105.119 131.269 142.556  0.00  0.00    +0.000 A 
ATOM      6  C   UNL     1     107.407 130.648 143.378  0.00  0.00    +0.000 A 
ATOM      7  C   UNL     1     106.627 130.861 143.088  0.00  0.00    +0.000 A 
ATOM      8  C   UNL     1     106.485 130.956 142.280  0.00  0.00    +0.000 A 
ATOM      9  C   UNL     1     105.732 131.160 142.014  0.00  0.00    +0.000 A 
ATOM     10  C   UNL     1     107.903 130.634 141.978  0.00  0.00    +0.000 A 
ATOM     11  C   UNL     1     105.260 131.173 143.363  0.00  0.00    +0.000 A 
ATOM     12  C   UNL     1     107.116 130.846 141.707  0.00  0.00    +0.000 A 
ENDROOT
BRANCH  11  14
ATOM     13  O   UNL     1     102.806 131.606 145.527  0.00  0.00    +0.000 OA
ATOM     14  C   UNL     1     104.646 131.282 143.904  0.00  0.00    +0.000 A 
ATOM     15  C   UNL     1     104.439 132.043 144.145  0.00  0.00    +0.000 A 
ATOM     16  C   UNL     1     104.240 130.629 144.203  0.00  0.00    +0.000 A 
ATOM     17  C   UNL     1     103.825 132.151 144.687  0.00  0.00    +0.000 A 
ATOM     18  C   UNL     1     103.627 130.736 144.744  0.00  0.00    +0.000 A 
ATOM     19  C   UNL     1     103.420 131.498 144.986  0.00  0.00    +0.000 A 
ENDBRANCH  11  14
BRANCH   4  20
ATOM     20  O   UNL     1     108.803 130.330 143.088  0.00  0.00    +0.000 OA
BRANCH  20  27
ATOM     21  O   UNL     1     108.861 129.015 142.530  0.00  0.00    +0.000 OA
ATOM     22  O   UNL     1     111.236 129.370 141.938  0.00  0.00    +0.000 OA
ATOM     23  O   UNL     1     110.503 127.939 141.578  0.00  0.00    +0.000 OA
ATOM     24  C   UNL     1     110.020 129.851 142.513  0.00  0.00    +0.000 C 
ATOM     25  C   UNL     1     110.445 129.252 142.135  0.00  0.00    +0.000 C 
ATOM     26  C   UNL     1     110.077 128.536 141.956  0.00  0.00    +0.000 C 
ATOM     27  C   UNL     1     109.228 129.732 142.711  0.00  0.00    +0.000 C 
ATOM     28  C   UNL     1     109.285 128.418 142.153  0.00  0.00    +0.000 C 
BRANCH  28  30
ATOM     29  O   UNL     1     108.453 127.322 142.539  0.00  0.00    +0.000 OA
ATOM     30  C   UNL     1     108.918 127.702 141.973  0.00  0.00    +0.000 C 
ENDBRANCH  28  30
BRANCH  24  31
ATOM     31  O   UNL     1     110.388 130.567 142.693  0.00  0.00    +0.000 OA
BRANCH  31  36
ATOM     32  O   UNL     1     110.925 129.994 143.886  0.00  0.00    +0.000 OA
ATOM     33  O   UNL     1     111.065 132.019 143.085  0.00  0.00    +0.000 OA
ATOM     34  O   UNL     1     111.942 132.172 144.475  0.00  0.00    +0.000 OA
ATOM     35  O   UNL     1     112.140 130.872 145.473  0.00  0.00    +0.000 OA
ATOM     36  C   UNL     1     110.825 130.643 143.387  0.00  0.00    +0.000 C 
ATOM     37  C   UNL     1     111.164 131.370 143.584  0.00  0.00    +0.000 C 
ATOM     38  C   UNL     1     111.603 131.446 144.279  0.00  0.00    +0.000 C 
ATOM     39  C   UNL     1     111.702 130.796 144.778  0.00  0.00    +0.000 C 
ATOM     40  C   UNL     1     111.363 130.070 144.581  0.00  0.00    +0.000 C 
BRANCH  40  42
ATOM     41  O   UNL     1     110.806 129.069 145.436  0.00  0.00    +0.000 OA
ATOM     42  C   UNL     1     111.462 129.420 145.080  0.00  0.00    +0.000 C 
ENDBRANCH  40  42
ENDBRANCH  31  36
ENDBRANCH  24  31
ENDBRANCH  20  27
ENDBRANCH   4  20
BRANCH   5  43
ATOM     43  O   UNL     1     104.365 131.473 142.289  0.00  0.00    +0.000 OA
BRANCH  43  50
ATOM     44  O   UNL     1     104.006 130.171 141.827  0.00  0.00    +0.000 OA
ATOM     45  O   UNL     1     102.740 131.183 139.957  0.00  0.00    +0.000 OA
ATOM     46  O   UNL     1     102.802 129.542 140.118  0.00  0.00    +0.000 OA
ATOM     47  C   UNL     1     103.552 131.329 141.123  0.00  0.00    +0.000 C 
ATOM     48  C   UNL     1     103.162 130.846 140.580  0.00  0.00    +0.000 C 
ATOM     49  C   UNL     1     103.193 130.025 140.660  0.00  0.00    +0.000 C 
ATOM     50  C   UNL     1     103.974 130.991 141.746  0.00  0.00    +0.000 C 
ATOM     51  C   UNL     1     103.615 129.688 141.284  0.00  0.00    +0.000 C 
ATOM     52  C   UNL     1     103.646 128.867 141.364  0.00  0.00    +0.000 C 
BRANCH  47  53
ATOM     53  O   UNL     1     103.522 132.149 141.043  0.00  0.00    +0.000 OA
BRANCH  53  58
ATOM     54  O   UNL     1     102.201 132.152 141.590  0.00  0.00    +0.000 OA
ATOM     55  O   UNL     1     103.456 133.789 140.877  0.00  0.00    +0.000 OA
ATOM     56  O   UNL     1     102.103 134.612 141.341  0.00  0.00    +0.000 OA
ATOM     57  O   UNL     1     100.816 133.795 141.971  0.00  0.00    +0.000 OA
ATOM     58  C   UNL     1     102.845 132.560 141.275  0.00  0.00    +0.000 C 
ATOM     59  C   UNL     1     102.812 133.380 141.192  0.00  0.00    +0.000 C 
ATOM     60  C   UNL     1     102.136 133.792 141.424  0.00  0.00    +0.000 C 
ATOM     61  C   UNL     1     101.492 133.383 141.739  0.00  0.00    +0.000 C 
ATOM     62  C   UNL     1     101.525 132.563 141.823  0.00  0.00    +0.000 C 
BRANCH  62  64
ATOM     63  O   UNL     1     100.949 131.779 142.869  0.00  0.00    +0.000 OA
ATOM     64  C   UNL     1     100.882 132.155 142.137  0.00  0.00    +0.000 C 
ENDBRANCH  62  64
ENDBRANCH  53  58
ENDBRANCH  47  53
ENDBRANCH  43  50
ENDBRANCH   5  43
BRANCH   6  65
ATOM     65  C   UNL     1     107.539 130.555 144.186  0.00  0.00    +0.000 C 
BRANCH  65  66
ATOM     66  C   UNL     1     107.781 131.199 144.642  0.00  0.00    +0.000 C 
ATOM     67  C   UNL     1     107.883 131.113 145.456  0.00  0.00    +0.000 C 
ATOM     68  C   UNL     1     108.124 131.757 145.912  0.00  0.00    +0.000 C 
ATOM     69  C   UNL     1     107.743 130.383 145.815  0.00  0.00    +0.000 C 
ENDBRANCH  65  66
ENDBRANCH   6  65
TORSDOF 14
ENDMDL
MODEL 2
REMARK VINA RESULT:      -9.3      3.982      6.475
REMARK  Name = 44258794
REMARK  14 active torsions:
REMARK  status: ('A' for Active; 'I' for Inactive)
REMARK    1  A    between atoms: O_1  and  C_26
REMARK    2  A    between atoms: O_1  and  C_31
REMARK    3  A    between atoms: O_2  and  C_27
REMARK    4  A    between atoms: O_2  and  C_34
REMARK    5  A    between atoms: O_7  and  C_32
REMARK    6  A    between atoms: O_7  and  C_50
REMARK    7  A    between atoms: O_9  and  C_39
REMARK    8  A    between atoms: O_9  and  C_51
REMARK    9  A    between atoms: C_35  and  C_46
REMARK   10  A    between atoms: C_43  and  C_47
REMARK   11  A    between atoms: C_45  and  C_49
REMARK   12  A    between atoms: C_52  and  C_59
REMARK   13  A    between atoms: C_57  and  C_60
REMARK   14  A    between atoms: C_59  and  C_61
REMARK                            x       y       z     vdW  Elec       q    Type
REMARK                         _______ _______ _______ _____ _____    ______ ____
ROOT
ATOM      1  O   UNL     1     105.585 130.363 147.172  0.00  0.00    +0.000 OA
ATOM      2  O   UNL     1     107.491 131.350 145.938  0.00  0.00    +0.000 OA
ATOM      3  O   UNL     1     107.759 130.090 145.289  0.00  0.00    +0.000 OA
ATOM      4  C   UNL     1     106.266 128.583 146.006  0.00  0.00    +0.000 A 
ATOM      5  C   UNL     1     106.416 131.486 146.870  0.00  0.00    +0.000 A 
ATOM      6  C   UNL     1     105.811 129.072 146.546  0.00  0.00    +0.000 A 
ATOM      7  C   UNL     1     106.025 129.898 146.651  0.00  0.00    +0.000 A 
ATOM      8  C   UNL     1     106.660 130.227 146.240  0.00  0.00    +0.000 A 
ATOM      9  C   UNL     1     106.856 131.021 146.349  0.00  0.00    +0.000 A 
ATOM     10  C   UNL     1     106.927 128.925 145.578  0.00  0.00    +0.000 A 
ATOM     11  C   UNL     1     105.781 131.157 147.281  0.00  0.00    +0.000 A 
ATOM     12  C   UNL     1     107.125 129.752 145.696  0.00  0.00    +0.000 A 
ENDROOT
BRANCH  11  14
ATOM     13  O   UNL     1     104.023 133.019 149.363  0.00  0.00    +0.000 OA
ATOM     14  C   UNL     1     105.341 131.623 147.801  0.00  0.00    +0.000 A 
ATOM     15  C   UNL     1     104.631 131.961 147.553  0.00  0.00    +0.000 A 
ATOM     16  C   UNL     1     105.612 131.751 148.570  0.00  0.00    +0.000 A 
ATOM     17  C   UNL     1     104.191 132.427 148.073  0.00  0.00    +0.000 A 
ATOM     18  C   UNL     1     105.173 132.216 149.091  0.00  0.00    +0.000 A 
ATOM     19  C   UNL     1     104.463 132.554 148.842  0.00  0.00    +0.000 A 
ENDBRANCH  11  14
BRANCH   4  20
ATOM     20  O   UNL     1     106.068 127.788 145.898  0.00  0.00    +0.000 OA
BRANCH  20  27
ATOM     21  O   UNL     1     105.660 127.854 144.530  0.00  0.00    +0.000 OA
ATOM     22  O   UNL     1     106.821 125.715 144.082  0.00  0.00    +0.000 OA
ATOM     23  O   UNL     1     106.027 126.493 142.864  0.00  0.00    +0.000 OA
ATOM     24  C   UNL     1     106.444 126.752 144.991  0.00  0.00    +0.000 C 
ATOM     25  C   UNL     1     106.434 126.428 144.231  0.00  0.00    +0.000 C 
ATOM     26  C   UNL     1     106.037 126.817 143.623  0.00  0.00    +0.000 C 
ATOM     27  C   UNL     1     106.057 127.465 145.140  0.00  0.00    +0.000 C 
ATOM     28  C   UNL     1     105.650 127.531 143.772  0.00  0.00    +0.000 C 
BRANCH  28  30
ATOM     29  O   UNL     1     104.547 128.317 143.317  0.00  0.00    +0.000 OA
ATOM     30  C   UNL     1     105.253 127.919 143.163  0.00  0.00    +0.000 C 
ENDBRANCH  28  30
BRANCH  24  31
ATOM     31  O   UNL     1     106.842 126.362 145.600  0.00  0.00    +0.000 OA
BRANCH  31  36
ATOM     32  O   UNL     1     105.700 125.533 145.818  0.00  0.00    +0.000 OA
ATOM     33  O   UNL     1     107.601 125.656 146.883  0.00  0.00    +0.000 OA
ATOM     34  O   UNL     1     106.837 124.471 147.743  0.00  0.00    +0.000 OA
ATOM     35  O   UNL     1     105.315 123.995 147.319  0.00  0.00    +0.000 OA
ATOM     36  C   UNL     1     106.460 125.771 146.029  0.00  0.00    +0.000 C 
ATOM     37  C   UNL     1     106.840 125.417 146.671  0.00  0.00    +0.000 C 
ATOM     38  C   UNL     1     106.458 124.825 147.101  0.00  0.00    +0.000 C 
ATOM     39  C   UNL     1     105.696 124.587 146.889  0.00  0.00    +0.000 C 
ATOM     40  C   UNL     1     105.318 124.941 146.248  0.00  0.00    +0.000 C 
BRANCH  40  42
ATOM     41  O   UNL     1     103.910 125.187 146.204  0.00  0.00    +0.000 OA
ATOM     42  C   UNL     1     104.556 124.702 146.036  0.00  0.00    +0.000 C 
ENDBRANCH  40  42
ENDBRANCH  31  36
ENDBRANCH  24  31
ENDBRANCH  20  27
ENDBRANCH   4  20
BRANCH   5  43
ATOM     43  O   UNL     1     106.612 132.280 146.979  0.00  0.00    +0.000 OA
BRANCH  43  50
ATOM     44  O   UNL     1     106.088 132.740 145.732  0.00  0.00    +0.000 OA
ATOM     45  O   UNL     1     107.912 134.407 145.580  0.00  0.00    +0.000 OA
ATOM     46  O   UNL     1     106.779 134.311 144.384  0.00  0.00    +0.000 OA
ATOM     47  C   UNL     1     107.262 133.344 146.280  0.00  0.00    +0.000 C 
ATOM     48  C   UNL     1     107.304 133.851 145.631  0.00  0.00    +0.000 C 
ATOM     49  C   UNL     1     106.738 133.803 145.033  0.00  0.00    +0.000 C 
ATOM     50  C   UNL     1     106.654 132.788 146.330  0.00  0.00    +0.000 C 
ATOM     51  C   UNL     1     106.130 133.248 145.083  0.00  0.00    +0.000 C 
ATOM     52  C   UNL     1     105.564 133.200 144.485  0.00  0.00    +0.000 C 
BRANCH  47  53
ATOM     53  O   UNL     1     107.828 133.391 146.878  0.00  0.00    +0.000 OA
BRANCH  53  58
ATOM     54  O   UNL     1     107.164 134.538 147.414  0.00  0.00    +0.000 OA
ATOM     55  O   UNL     1     108.966 133.495 148.068  0.00  0.00    +0.000 OA
ATOM     56  O   UNL     1     108.871 134.693 149.198  0.00  0.00    +0.000 OA
ATOM     57  O   UNL     1     107.639 135.788 149.138  0.00  0.00    +0.000 OA
ATOM     58  C   UNL     1     107.780 133.990 147.443  0.00  0.00    +0.000 C 
ATOM     59  C   UNL     1     108.349 134.042 148.038  0.00  0.00    +0.000 C 
ATOM     60  C   UNL     1     108.302 134.641 148.603  0.00  0.00    +0.000 C 
ATOM     61  C   UNL     1     107.686 135.189 148.573  0.00  0.00    +0.000 C 
ATOM     62  C   UNL     1     107.117 135.138 147.979  0.00  0.00    +0.000 C 
BRANCH  62  64
ATOM     63  O   UNL     1     105.730 135.449 148.124  0.00  0.00    +0.000 OA
ATOM     64  C   UNL     1     106.501 135.685 147.949  0.00  0.00    +0.000 C 
ENDBRANCH  62  64
ENDBRANCH  53  58
ENDBRANCH  47  53
ENDBRANCH  43  50
ENDBRANCH   5  43
BRANCH   6  65
ATOM     65  C   UNL     1     105.175 128.752 146.961  0.00  0.00    +0.000 C 
BRANCH  65  66
ATOM     66  C   UNL     1     105.298 128.395 147.695  0.00  0.00    +0.000 C 
ATOM     67  C   UNL     1     104.658 128.105 148.126  0.00  0.00    +0.000 C 
ATOM     68  C   UNL     1     104.781 127.748 148.860  0.00  0.00    +0.000 C 
ATOM     69  C   UNL     1     103.893 128.171 147.824  0.00  0.00    +0.000 C 
ENDBRANCH  65  66
ENDBRANCH   6  65
TORSDOF 14
ENDMDL
MODEL 3
REMARK VINA RESULT:      -9.2      4.070      7.459
REMARK  Name = 44258794
REMARK  14 active torsions:
REMARK  status: ('A' for Active; 'I' for Inactive)
REMARK    1  A    between atoms: O_1  and  C_26
REMARK    2  A    between atoms: O_1  and  C_31
REMARK    3  A    between atoms: O_2  and  C_27
REMARK    4  A    between atoms: O_2  and  C_34
REMARK    5  A    between atoms: O_7  and  C_32
REMARK    6  A    between atoms: O_7  and  C_50
REMARK    7  A    between atoms: O_9  and  C_39
REMARK    8  A    between atoms: O_9  and  C_51
REMARK    9  A    between atoms: C_35  and  C_46
REMARK   10  A    between atoms: C_43  and  C_47
REMARK   11  A    between atoms: C_45  and  C_49
REMARK   12  A    between atoms: C_52  and  C_59
REMARK   13  A    between atoms: C_57  and  C_60
REMARK   14  A    between atoms: C_59  and  C_61
REMARK                            x       y       z     vdW  Elec       q    Type
REMARK                         _______ _______ _______ _____ _____    ______ ____
ROOT
ATOM      1  O   UNL     1     111.253 128.328 140.584  0.00  0.00    +0.000 OA
ATOM      2  O   UNL     1     108.802 128.101 140.313  0.00  0.00    +0.000 OA
ATOM      3  O   UNL     1     108.976 127.421 139.054  0.00  0.00    +0.000 OA
ATOM      4  C   UNL     1     111.168 127.258 138.624  0.00  0.00    +0.000 A 
ATOM      5  C   UNL     1     109.928 128.550 141.071  0.00  0.00    +0.000 A 
ATOM      6  C   UNL     1     111.484 127.648 139.322  0.00  0.00    +0.000 A 
ATOM      7  C   UNL     1     110.944 127.954 139.916  0.00  0.00    +0.000 A 
ATOM      8  C   UNL     1     110.127 127.879 139.826  0.00  0.00    +0.000 A 
ATOM      9  C   UNL     1     109.619 128.177 140.404  0.00  0.00    +0.000 A 
ATOM     10  C   UNL     1     110.318 127.179 138.530  0.00  0.00    +0.000 A 
ATOM     11  C   UNL     1     110.744 128.626 141.162  0.00  0.00    +0.000 A 
ATOM     12  C   UNL     1     109.795 127.492 139.135  0.00  0.00    +0.000 A 
ENDROOT
BRANCH  11  14
ATOM     13  O   UNL     1     111.977 130.119 143.833  0.00  0.00    +0.000 OA
ATOM     14  C   UNL     1     111.052 128.999 141.830  0.00  0.00    +0.000 A 
ATOM     15  C   UNL     1     111.273 129.794 141.793  0.00  0.00    +0.000 A 
ATOM     16  C   UNL     1     111.141 128.579 142.534  0.00  0.00    +0.000 A 
ATOM     17  C   UNL     1     111.581 130.167 142.461  0.00  0.00    +0.000 A 
ATOM     18  C   UNL     1     111.449 128.952 143.202  0.00  0.00    +0.000 A 
ATOM     19  C   UNL     1     111.669 129.746 143.165  0.00  0.00    +0.000 A 
ENDBRANCH  11  14
BRANCH   4  20
ATOM     20  O   UNL     1     111.679 126.960 138.048  0.00  0.00    +0.000 OA
BRANCH  20  27
ATOM     21  O   UNL     1     111.451 127.898 136.994  0.00  0.00    +0.000 OA
ATOM     22  O   UNL     1     111.292 126.035 135.372  0.00  0.00    +0.000 OA
ATOM     23  O   UNL     1     111.116 127.592 134.859  0.00  0.00    +0.000 OA
ATOM     24  C   UNL     1     111.486 126.498 136.711  0.00  0.00    +0.000 C 
ATOM     25  C   UNL     1     111.345 126.656 135.912  0.00  0.00    +0.000 C 
ATOM     26  C   UNL     1     111.257 127.435 135.656  0.00  0.00    +0.000 C 
ATOM     27  C   UNL     1     111.539 127.118 137.251  0.00  0.00    +0.000 C 
ATOM     28  C   UNL     1     111.310 128.056 136.197  0.00  0.00    +0.000 C 
BRANCH  28  30
ATOM     29  O   UNL     1     111.735 129.420 136.214  0.00  0.00    +0.000 OA
ATOM     30  C   UNL     1     111.222 128.834 135.940  0.00  0.00    +0.000 C 
ENDBRANCH  28  30
BRANCH  24  31
ATOM     31  O   UNL     1     111.573 125.718 136.967  0.00  0.00    +0.000 OA
BRANCH  31  36
ATOM     32  O   UNL     1     112.963 125.762 136.638  0.00  0.00    +0.000 OA
ATOM     33  O   UNL     1     111.710 124.117 137.338  0.00  0.00    +0.000 OA
ATOM     34  O   UNL     1     113.170 123.359 137.194  0.00  0.00    +0.000 OA
ATOM     35  O   UNL     1     114.491 124.203 136.680  0.00  0.00    +0.000 OA
ATOM     36  C   UNL     1     112.302 125.340 136.895  0.00  0.00    +0.000 C 
ATOM     37  C   UNL     1     112.371 124.538 137.081  0.00  0.00    +0.000 C 
ATOM     38  C   UNL     1     113.101 124.160 137.009  0.00  0.00    +0.000 C 
ATOM     39  C   UNL     1     113.762 124.582 136.752  0.00  0.00    +0.000 C 
ATOM     40  C   UNL     1     113.692 125.383 136.566  0.00  0.00    +0.000 C 
BRANCH  40  42
ATOM     41  O   UNL     1     114.636 126.440 136.753  0.00  0.00    +0.000 OA
ATOM     42  C   UNL     1     114.353 125.805 136.309  0.00  0.00    +0.000 C 
ENDBRANCH  40  42
ENDBRANCH  31  36
ENDBRANCH  24  31
ENDBRANCH  20  27
ENDBRANCH   4  20
BRANCH   5  43
ATOM     43  O   UNL     1     109.419 128.848 141.648  0.00  0.00    +0.000 OA
BRANCH  43  50
ATOM     44  O   UNL     1     108.991 129.975 140.883  0.00  0.00    +0.000 OA
ATOM     45  O   UNL     1     106.759 129.851 141.945  0.00  0.00    +0.000 OA
ATOM     46  O   UNL     1     107.076 131.019 140.824  0.00  0.00    +0.000 OA
ATOM     47  C   UNL     1     108.089 129.349 141.797  0.00  0.00    +0.000 C 
ATOM     48  C   UNL     1     107.503 129.892 141.591  0.00  0.00    +0.000 C 
ATOM     49  C   UNL     1     107.661 130.476 141.030  0.00  0.00    +0.000 C 
ATOM     50  C   UNL     1     108.833 129.390 141.443  0.00  0.00    +0.000 C 
ATOM     51  C   UNL     1     108.405 130.518 140.676  0.00  0.00    +0.000 C 
ATOM     52  C   UNL     1     108.564 131.102 140.116  0.00  0.00    +0.000 C 
BRANCH  47  53
ATOM     53  O   UNL     1     107.932 128.765 142.357  0.00  0.00    +0.000 OA
BRANCH  53  58
ATOM     54  O   UNL     1     108.051 129.734 143.401  0.00  0.00    +0.000 OA
ATOM     55  O   UNL     1     107.617 127.597 143.480  0.00  0.00    +0.000 OA
ATOM     56  O   UNL     1     107.578 127.982 145.084  0.00  0.00    +0.000 OA
ATOM     57  O   UNL     1     107.855 129.535 145.565  0.00  0.00    +0.000 OA
ATOM     58  C   UNL     1     107.913 128.957 143.159  0.00  0.00    +0.000 C 
ATOM     59  C   UNL     1     107.755 128.373 143.720  0.00  0.00    +0.000 C 
ATOM     60  C   UNL     1     107.736 128.566 144.522  0.00  0.00    +0.000 C 
ATOM     61  C   UNL     1     107.874 129.343 144.763  0.00  0.00    +0.000 C 
ATOM     62  C   UNL     1     108.032 129.927 144.203  0.00  0.00    +0.000 C 
BRANCH  62  64
ATOM     63  O   UNL     1     108.929 131.022 144.394  0.00  0.00    +0.000 OA
ATOM     64  C   UNL     1     108.170 130.703 144.444  0.00  0.00    +0.000 C 
ENDBRANCH  62  64
ENDBRANCH  53  58
ENDBRANCH  47  53
ENDBRANCH  43  50
ENDBRANCH   5  43
BRANCH   6  65
ATOM     65  C   UNL     1     112.299 127.728 139.420  0.00  0.00    +0.000 C 
BRANCH  65  66
ATOM     66  C   UNL     1     112.733 127.121 139.773  0.00  0.00    +0.000 C 
ATOM     67  C   UNL     1     113.537 127.224 139.925  0.00  0.00    +0.000 C 
ATOM     68  C   UNL     1     113.972 126.617 140.278  0.00  0.00    +0.000 C 
ATOM     69  C   UNL     1     113.908 127.934 139.725  0.00  0.00    +0.000 C 
ENDBRANCH  65  66
ENDBRANCH   6  65
TORSDOF 14
ENDMDL
MODEL 4
REMARK VINA RESULT:      -9.2      3.596      8.456
REMARK  Name = 44258794
REMARK  14 active torsions:
REMARK  status: ('A' for Active; 'I' for Inactive)
REMARK    1  A    between atoms: O_1  and  C_26
REMARK    2  A    between atoms: O_1  and  C_31
REMARK    3  A    between atoms: O_2  and  C_27
REMARK    4  A    between atoms: O_2  and  C_34
REMARK    5  A    between atoms: O_7  and  C_32
REMARK    6  A    between atoms: O_7  and  C_50
REMARK    7  A    between atoms: O_9  and  C_39
REMARK    8  A    between atoms: O_9  and  C_51
REMARK    9  A    between atoms: C_35  and  C_46
REMARK   10  A    between atoms: C_43  and  C_47
REMARK   11  A    between atoms: C_45  and  C_49
REMARK   12  A    between atoms: C_52  and  C_59
REMARK   13  A    between atoms: C_57  and  C_60
REMARK   14  A    between atoms: C_59  and  C_61
REMARK                            x       y       z     vdW  Elec       q    Type
REMARK                         _______ _______ _______ _____ _____    ______ ____
ROOT
ATOM      1  O   UNL     1     111.389 127.909 141.184  0.00  0.00    +0.000 OA
ATOM      2  O   UNL     1     110.170 127.459 139.077  0.00  0.00    +0.000 OA
ATOM      3  O   UNL     1     108.932 127.907 139.664  0.00  0.00    +0.000 OA
ATOM      4  C   UNL     1     109.326 128.528 141.779  0.00  0.00    +0.000 A 
ATOM      5  C   UNL     1     111.386 127.460 139.828  0.00  0.00    +0.000 A 
ATOM      6  C   UNL     1     110.169 128.371 141.824  0.00  0.00    +0.000 A 
ATOM      7  C   UNL     1     110.579 128.059 141.136  0.00  0.00    +0.000 A 
ATOM      8  C   UNL     1     110.173 127.908 140.433  0.00  0.00    +0.000 A 
ATOM      9  C   UNL     1     110.577 127.609 139.779  0.00  0.00    +0.000 A 
ATOM     10  C   UNL     1     108.903 128.372 141.048  0.00  0.00    +0.000 A 
ATOM     11  C   UNL     1     111.792 127.610 140.530  0.00  0.00    +0.000 A 
ATOM     12  C   UNL     1     109.329 128.060 140.371  0.00  0.00    +0.000 A 
ENDROOT
BRANCH  11  14
ATOM     13  O   UNL     1     115.032 127.012 140.723  0.00  0.00    +0.000 OA
ATOM     14  C   UNL     1     112.602 127.460 140.578  0.00  0.00    +0.000 A 
ATOM     15  C   UNL     1     112.872 126.702 140.761  0.00  0.00    +0.000 A 
ATOM     16  C   UNL     1     113.143 128.068 140.444  0.00  0.00    +0.000 A 
ATOM     17  C   UNL     1     113.682 126.552 140.809  0.00  0.00    +0.000 A 
ATOM     18  C   UNL     1     113.953 127.920 140.492  0.00  0.00    +0.000 A 
ATOM     19  C   UNL     1     114.222 127.162 140.674  0.00  0.00    +0.000 A 
ENDBRANCH  11  14
BRANCH   4  20
ATOM     20  O   UNL     1     108.924 128.828 142.436  0.00  0.00    +0.000 OA
BRANCH  20  27
ATOM     21  O   UNL     1     107.972 127.770 142.562  0.00  0.00    +0.000 OA
ATOM     22  O   UNL     1     106.229 129.411 143.184  0.00  0.00    +0.000 OA
ATOM     23  O   UNL     1     105.859 127.807 143.103  0.00  0.00    +0.000 OA
ATOM     24  C   UNL     1     107.577 129.120 142.810  0.00  0.00    +0.000 C 
ATOM     25  C   UNL     1     106.810 128.865 142.977  0.00  0.00    +0.000 C 
ATOM     26  C   UNL     1     106.625 128.062 142.936  0.00  0.00    +0.000 C 
ATOM     27  C   UNL     1     108.158 128.573 142.602  0.00  0.00    +0.000 C 
ATOM     28  C   UNL     1     107.207 127.514 142.729  0.00  0.00    +0.000 C 
BRANCH  28  30
ATOM     29  O   UNL     1     107.438 126.168 143.148  0.00  0.00    +0.000 OA
ATOM     30  C   UNL     1     107.022 126.712 142.688  0.00  0.00    +0.000 C 
ENDBRANCH  28  30
BRANCH  24  31
ATOM     31  O   UNL     1     107.761 129.923 142.851  0.00  0.00    +0.000 OA
BRANCH  31  36
ATOM     32  O   UNL     1     107.978 129.808 144.258  0.00  0.00    +0.000 OA
ATOM     33  O   UNL     1     107.961 131.557 142.953  0.00  0.00    +0.000 OA
ATOM     34  O   UNL     1     108.278 132.260 144.413  0.00  0.00    +0.000 OA
ATOM     35  O   UNL     1     108.395 131.327 145.769  0.00  0.00    +0.000 OA
ATOM     36  C   UNL     1     107.919 130.274 143.579  0.00  0.00    +0.000 C 
ATOM     37  C   UNL     1     108.019 131.092 143.631  0.00  0.00    +0.000 C 
ATOM     38  C   UNL     1     108.178 131.443 144.361  0.00  0.00    +0.000 C 
ATOM     39  C   UNL     1     108.236 130.976 145.040  0.00  0.00    +0.000 C 
ATOM     40  C   UNL     1     108.136 130.159 144.987  0.00  0.00    +0.000 C 
BRANCH  40  42
ATOM     41  O   UNL     1     108.762 129.095 145.709  0.00  0.00    +0.000 OA
ATOM     42  C   UNL     1     108.195 129.692 145.666  0.00  0.00    +0.000 C 
ENDBRANCH  40  42
ENDBRANCH  31  36
ENDBRANCH  24  31
ENDBRANCH  20  27
ENDBRANCH   4  20
BRANCH   5  43
ATOM     43  O   UNL     1     111.790 127.160 139.174  0.00  0.00    +0.000 OA
BRANCH  43  50
ATOM     44  O   UNL     1     111.849 128.374 138.424  0.00  0.00    +0.000 OA
ATOM     45  O   UNL     1     111.466 127.103 136.335  0.00  0.00    +0.000 OA
ATOM     46  O   UNL     1     111.653 128.741 136.281  0.00  0.00    +0.000 OA
ATOM     47  C   UNL     1     111.628 127.131 137.754  0.00  0.00    +0.000 C 
ATOM     48  C   UNL     1     111.594 127.526 137.031  0.00  0.00    +0.000 C 
ATOM     49  C   UNL     1     111.687 128.346 137.004  0.00  0.00    +0.000 C 
ATOM     50  C   UNL     1     111.755 127.554 138.451  0.00  0.00    +0.000 C 
ATOM     51  C   UNL     1     111.814 128.769 137.701  0.00  0.00    +0.000 C 
ATOM     52  C   UNL     1     111.907 129.589 137.674  0.00  0.00    +0.000 C 
BRANCH  47  53
ATOM     53  O   UNL     1     111.535 126.312 137.782  0.00  0.00    +0.000 OA
BRANCH  53  58
ATOM     54  O   UNL     1     112.920 126.129 137.479  0.00  0.00    +0.000 OA
ATOM     55  O   UNL     1     111.266 124.705 137.518  0.00  0.00    +0.000 OA
ATOM     56  O   UNL     1     112.516 123.719 137.084  0.00  0.00    +0.000 OA
ATOM     57  O   UNL     1     114.034 124.339 136.913  0.00  0.00    +0.000 OA
ATOM     58  C   UNL     1     112.160 125.819 137.565  0.00  0.00    +0.000 C 
ATOM     59  C   UNL     1     112.025 125.015 137.433  0.00  0.00    +0.000 C 
ATOM     60  C   UNL     1     112.650 124.523 137.216  0.00  0.00    +0.000 C 
ATOM     61  C   UNL     1     113.410 124.833 137.130  0.00  0.00    +0.000 C 
ATOM     62  C   UNL     1     113.545 125.636 137.262  0.00  0.00    +0.000 C 
BRANCH  62  64
ATOM     63  O   UNL     1     114.510 126.350 136.487  0.00  0.00    +0.000 OA
ATOM     64  C   UNL     1     114.304 125.945 137.176  0.00  0.00    +0.000 C 
ENDBRANCH  62  64
ENDBRANCH  53  58
ENDBRANCH  47  53
ENDBRANCH  43  50
ENDBRANCH   5  43
BRANCH   6  65
ATOM     65  C   UNL     1     110.583 128.518 142.522  0.00  0.00    +0.000 C 
BRANCH  65  66
ATOM     66  C   UNL     1     110.927 129.257 142.650  0.00  0.00    +0.000 C 
ATOM     67  C   UNL     1     111.378 129.391 143.327  0.00  0.00    +0.000 C 
ATOM     68  C   UNL     1     111.722 130.130 143.455  0.00  0.00    +0.000 C 
ATOM     69  C   UNL     1     111.485 128.786 143.878  0.00  0.00    +0.000 C 
ENDBRANCH  65  66
ENDBRANCH   6  65
TORSDOF 14
ENDMDL
MODEL 5
REMARK VINA RESULT:      -9.2      2.864      4.420
REMARK  Name = 44258794
REMARK  14 active torsions:
REMARK  status: ('A' for Active; 'I' for Inactive)
REMARK    1  A    between atoms: O_1  and  C_26
REMARK    2  A    between atoms: O_1  and  C_31
REMARK    3  A    between atoms: O_2  and  C_27
REMARK    4  A    between atoms: O_2  and  C_34
REMARK    5  A    between atoms: O_7  and  C_32
REMARK    6  A    between atoms: O_7  and  C_50
REMARK    7  A    between atoms: O_9  and  C_39
REMARK    8  A    between atoms: O_9  and  C_51
REMARK    9  A    between atoms: C_35  and  C_46
REMARK   10  A    between atoms: C_43  and  C_47
REMARK   11  A    between atoms: C_45  and  C_49
REMARK   12  A    between atoms: C_52  and  C_59
REMARK   13  A    between atoms: C_57  and  C_60
REMARK   14  A    between atoms: C_59  and  C_61
REMARK                            x       y       z     vdW  Elec       q    Type
REMARK                         _______ _______ _______ _____ _____    ______ ____
ROOT
ATOM      1  O   UNL     1     105.451 130.560 144.046  0.00  0.00    +0.000 OA
ATOM      2  O   UNL     1     103.852 130.190 142.193  0.00  0.00    +0.000 OA
ATOM      3  O   UNL     1     103.949 128.760 142.358  0.00  0.00    +0.000 OA
ATOM      4  C   UNL     1     105.370 128.327 144.033  0.00  0.00    +0.000 A 
ATOM      5  C   UNL     1     104.595 131.081 143.027  0.00  0.00    +0.000 A 
ATOM      6  C   UNL     1     105.584 129.129 144.255  0.00  0.00    +0.000 A 
ATOM      7  C   UNL     1     105.241 129.792 143.830  0.00  0.00    +0.000 A 
ATOM      8  C   UNL     1     104.708 129.669 143.211  0.00  0.00    +0.000 A 
ATOM      9  C   UNL     1     104.385 130.313 142.810  0.00  0.00    +0.000 A 
ATOM     10  C   UNL     1     104.815 128.198 143.391  0.00  0.00    +0.000 A 
ATOM     11  C   UNL     1     105.128 131.204 143.645  0.00  0.00    +0.000 A 
ATOM     12  C   UNL     1     104.482 128.874 142.977  0.00  0.00    +0.000 A 
ENDROOT
BRANCH  11  14
ATOM     13  O   UNL     1     105.966 134.276 144.511  0.00  0.00    +0.000 OA
ATOM     14  C   UNL     1     105.337 131.972 143.862  0.00  0.00    +0.000 A 
ATOM     15  C   UNL     1     104.963 132.338 144.500  0.00  0.00    +0.000 A 
ATOM     16  C   UNL     1     105.921 132.375 143.440  0.00  0.00    +0.000 A 
ATOM     17  C   UNL     1     105.173 133.106 144.717  0.00  0.00    +0.000 A 
ATOM     18  C   UNL     1     106.131 133.143 143.656  0.00  0.00    +0.000 A 
ATOM     19  C   UNL     1     105.757 133.508 144.294  0.00  0.00    +0.000 A 
ENDBRANCH  11  14
BRANCH   4  20
ATOM     20  O   UNL     1     105.695 127.683 144.437  0.00  0.00    +0.000 OA
BRANCH  20  27
ATOM     21  O   UNL     1     106.491 127.113 143.396  0.00  0.00    +0.000 OA
ATOM     22  O   UNL     1     105.669 124.860 144.001  0.00  0.00    +0.000 OA
ATOM     23  O   UNL     1     106.738 125.041 142.759  0.00  0.00    +0.000 OA
ATOM     24  C   UNL     1     105.681 126.272 144.219  0.00  0.00    +0.000 C 
ATOM     25  C   UNL     1     105.942 125.610 143.800  0.00  0.00    +0.000 C 
ATOM     26  C   UNL     1     106.477 125.702 143.178  0.00  0.00    +0.000 C 
ATOM     27  C   UNL     1     105.955 127.023 144.017  0.00  0.00    +0.000 C 
ATOM     28  C   UNL     1     106.751 126.453 142.976  0.00  0.00    +0.000 C 
BRANCH  28  30
ATOM     29  O   UNL     1     108.018 126.901 142.489  0.00  0.00    +0.000 OA
ATOM     30  C   UNL     1     107.286 126.544 142.355  0.00  0.00    +0.000 C 
ENDBRANCH  28  30
BRANCH  24  31
ATOM     31  O   UNL     1     105.147 126.180 144.841  0.00  0.00    +0.000 OA
BRANCH  31  36
ATOM     32  O   UNL     1     106.200 125.914 145.768  0.00  0.00    +0.000 OA
ATOM     33  O   UNL     1     104.060 125.501 145.879  0.00  0.00    +0.000 OA
ATOM     34  O   UNL     1     104.570 124.894 147.327  0.00  0.00    +0.000 OA
ATOM     35  O   UNL     1     106.167 124.967 147.735  0.00  0.00    +0.000 OA
ATOM     36  C   UNL     1     105.401 125.877 145.563  0.00  0.00    +0.000 C 
ATOM     37  C   UNL     1     104.858 125.537 146.083  0.00  0.00    +0.000 C 
ATOM     38  C   UNL     1     105.113 125.234 146.807  0.00  0.00    +0.000 C 
ATOM     39  C   UNL     1     105.912 125.270 147.011  0.00  0.00    +0.000 C 
ATOM     40  C   UNL     1     106.455 125.610 146.491  0.00  0.00    +0.000 C 
BRANCH  40  42
ATOM     41  O   UNL     1     107.611 126.377 146.835  0.00  0.00    +0.000 OA
ATOM     42  C   UNL     1     107.254 125.647 146.696  0.00  0.00    +0.000 C 
ENDBRANCH  40  42
ENDBRANCH  31  36
ENDBRANCH  24  31
ENDBRANCH  20  27
ENDBRANCH   4  20
BRANCH   5  43
ATOM     43  O   UNL     1     104.272 131.725 142.626  0.00  0.00    +0.000 OA
BRANCH  43  50
ATOM     44  O   UNL     1     102.997 131.691 143.269  0.00  0.00    +0.000 OA
ATOM     45  O   UNL     1     101.912 132.390 141.158  0.00  0.00    +0.000 OA
ATOM     46  O   UNL     1     100.998 132.123 142.506  0.00  0.00    +0.000 OA
ATOM     47  C   UNL     1     103.092 132.058 141.891  0.00  0.00    +0.000 C 
ATOM     48  C   UNL     1     102.273 132.157 141.862  0.00  0.00    +0.000 C 
ATOM     49  C   UNL     1     101.817 132.023 142.536  0.00  0.00    +0.000 C 
ATOM     50  C   UNL     1     103.454 131.825 142.595  0.00  0.00    +0.000 C 
ATOM     51  C   UNL     1     102.179 131.790 143.239  0.00  0.00    +0.000 C 
ATOM     52  C   UNL     1     101.722 131.657 143.913  0.00  0.00    +0.000 C 
BRANCH  47  53
ATOM     53  O   UNL     1     103.549 132.191 141.218  0.00  0.00    +0.000 OA
BRANCH  53  58
ATOM     54  O   UNL     1     103.453 133.602 141.432  0.00  0.00    +0.000 OA
ATOM     55  O   UNL     1     104.391 132.461 139.825  0.00  0.00    +0.000 OA
ATOM     56  O   UNL     1     104.716 134.005 139.343  0.00  0.00    +0.000 OA
ATOM     57  O   UNL     1     104.199 135.279 140.253  0.00  0.00    +0.000 OA
ATOM     58  C   UNL     1     103.711 132.963 140.977  0.00  0.00    +0.000 C 
ATOM     59  C   UNL     1     104.133 133.098 140.281  0.00  0.00    +0.000 C 
ATOM     60  C   UNL     1     104.295 133.870 140.040  0.00  0.00    +0.000 C 
ATOM     61  C   UNL     1     104.036 134.508 140.495  0.00  0.00    +0.000 C 
ATOM     62  C   UNL     1     103.615 134.374 141.191  0.00  0.00    +0.000 C 
BRANCH  62  64
ATOM     63  O   UNL     1     103.698 135.158 142.382  0.00  0.00    +0.000 OA
ATOM     64  C   UNL     1     103.357 135.011 141.646  0.00  0.00    +0.000 C 
ENDBRANCH  62  64
ENDBRANCH  53  58
ENDBRANCH  47  53
ENDBRANCH  43  50
ENDBRANCH   5  43
BRANCH   6  65
ATOM     65  C   UNL     1     106.116 129.261 144.871  0.00  0.00    +0.000 C 
BRANCH  65  66
ATOM     66  C   UNL     1     105.843 129.311 145.649  0.00  0.00    +0.000 C 
ATOM     67  C   UNL     1     106.370 129.474 146.261  0.00  0.00    +0.000 C 
ATOM     68  C   UNL     1     106.097 129.523 147.039  0.00  0.00    +0.000 C 
ATOM     69  C   UNL     1     107.171 129.589 146.098  0.00  0.00    +0.000 C 
ENDBRANCH  65  66
ENDBRANCH   6  65
TORSDOF 14
ENDMDL
MODEL 6
REMARK VINA RESULT:      -9.2      3.948      6.953
REMARK  Name = 44258794
REMARK  14 active torsions:
REMARK  status: ('A' for Active; 'I' for Inactive)
REMARK    1  A    between atoms: O_1  and  C_26
REMARK    2  A    between atoms: O_1  and  C_31
REMARK    3  A    between atoms: O_2  and  C_27
REMARK    4  A    between atoms: O_2  and  C_34
REMARK    5  A    between atoms: O_7  and  C_32
REMARK    6  A    between atoms: O_7  and  C_50
REMARK    7  A    between atoms: O_9  and  C_39
REMARK    8  A    between atoms: O_9  and  C_51
REMARK    9  A    between atoms: C_35  and  C_46
REMARK   10  A    between atoms: C_43  and  C_47
REMARK   11  A    between atoms: C_45  and  C_49
REMARK   12  A    between atoms: C_52  and  C_59
REMARK   13  A    between atoms: C_57  and  C_60
REMARK   14  A    between atoms: C_59  and  C_61
REMARK                            x       y       z     vdW  Elec       q    Type
REMARK                         _______ _______ _______ _____ _____    ______ ____
ROOT
ATOM      1  O   UNL     1     104.833 129.111 145.923  0.00  0.00    +0.000 OA
ATOM      2  O   UNL     1     105.491 126.944 144.923  0.00  0.00    +0.000 OA
ATOM      3  O   UNL     1     105.769 127.580 143.658  0.00  0.00    +0.000 OA
ATOM      4  C   UNL     1     105.351 129.772 143.852  0.00  0.00    +0.000 A 
ATOM      5  C   UNL     1     105.028 127.701 146.043  0.00  0.00    +0.000 A 
ATOM      6  C   UNL     1     105.098 129.801 144.673  0.00  0.00    +0.000 A 
ATOM      7  C   UNL     1     105.077 129.077 145.135  0.00  0.00    +0.000 A 
ATOM      8  C   UNL     1     105.296 128.355 144.802  0.00  0.00    +0.000 A 
ATOM      9  C   UNL     1     105.272 127.666 145.256  0.00  0.00    +0.000 A 
ATOM     10  C   UNL     1     105.579 129.020 143.505  0.00  0.00    +0.000 A 
ATOM     11  C   UNL     1     104.809 128.423 146.377  0.00  0.00    +0.000 A 
ATOM     12  C   UNL     1     105.551 128.307 143.983  0.00  0.00    +0.000 A 
ENDROOT
BRANCH  11  14
ATOM     13  O   UNL     1     103.833 128.556 149.526  0.00  0.00    +0.000 OA
ATOM     14  C   UNL     1     104.565 128.456 147.164  0.00  0.00    +0.000 A 
ATOM     15  C   UNL     1     105.097 128.685 147.752  0.00  0.00    +0.000 A 
ATOM     16  C   UNL     1     103.789 128.260 147.365  0.00  0.00    +0.000 A 
ATOM     17  C   UNL     1     104.853 128.719 148.539  0.00  0.00    +0.000 A 
ATOM     18  C   UNL     1     103.545 128.294 148.152  0.00  0.00    +0.000 A 
ATOM     19  C   UNL     1     104.077 128.523 148.739  0.00  0.00    +0.000 A 
ENDBRANCH  11  14
BRANCH   4  20
ATOM     20  O   UNL     1     105.374 130.463 143.400  0.00  0.00    +0.000 OA
BRANCH  20  27
ATOM     21  O   UNL     1     106.792 130.620 143.314  0.00  0.00    +0.000 OA
ATOM     22  O   UNL     1     106.579 131.238 140.928  0.00  0.00    +0.000 OA
ATOM     23  O   UNL     1     108.067 131.190 141.638  0.00  0.00    +0.000 OA
ATOM     24  C   UNL     1     105.976 130.850 142.164  0.00  0.00    +0.000 C 
ATOM     25  C   UNL     1     106.650 131.032 141.723  0.00  0.00    +0.000 C 
ATOM     26  C   UNL     1     107.394 131.008 142.079  0.00  0.00    +0.000 C 
ATOM     27  C   UNL     1     106.047 130.644 142.960  0.00  0.00    +0.000 C 
ATOM     28  C   UNL     1     107.465 130.802 142.874  0.00  0.00    +0.000 C 
BRANCH  28  30
ATOM     29  O   UNL     1     108.318 131.098 143.982  0.00  0.00    +0.000 OA
ATOM     30  C   UNL     1     108.208 130.778 143.229  0.00  0.00    +0.000 C 
ENDBRANCH  28  30
BRANCH  24  31
ATOM     31  O   UNL     1     105.232 130.874 141.808  0.00  0.00    +0.000 OA
BRANCH  31  36
ATOM     32  O   UNL     1     105.148 132.276 142.068  0.00  0.00    +0.000 OA
ATOM     33  O   UNL     1     103.824 130.947 140.953  0.00  0.00    +0.000 OA
ATOM     34  O   UNL     1     103.034 132.387 140.786  0.00  0.00    +0.000 OA
ATOM     35  O   UNL     1     103.654 133.753 141.474  0.00  0.00    +0.000 OA
ATOM     36  C   UNL     1     104.838 131.593 141.725  0.00  0.00    +0.000 C 
ATOM     37  C   UNL     1     104.133 131.630 141.297  0.00  0.00    +0.000 C 
ATOM     38  C   UNL     1     103.738 132.350 141.213  0.00  0.00    +0.000 C 
ATOM     39  C   UNL     1     104.048 133.033 141.557  0.00  0.00    +0.000 C 
ATOM     40  C   UNL     1     104.753 132.996 141.985  0.00  0.00    +0.000 C 
BRANCH  40  42
ATOM     41  O   UNL     1     105.142 133.730 143.148  0.00  0.00    +0.000 OA
ATOM     42  C   UNL     1     105.063 133.680 142.329  0.00  0.00    +0.000 C 
ENDBRANCH  40  42
ENDBRANCH  31  36
ENDBRANCH  24  31
ENDBRANCH  20  27
ENDBRANCH   4  20
BRANCH   5  43
ATOM     43  O   UNL     1     105.004 127.012 146.497  0.00  0.00    +0.000 OA
BRANCH  43  50
ATOM     44  O   UNL     1     106.414 126.901 146.692  0.00  0.00    +0.000 OA
ATOM     45  O   UNL     1     106.236 124.435 146.584  0.00  0.00    +0.000 OA
ATOM     46  O   UNL     1     107.707 125.147 146.815  0.00  0.00    +0.000 OA
ATOM     47  C   UNL     1     105.619 125.723 146.541  0.00  0.00    +0.000 C 
ATOM     48  C   UNL     1     106.295 125.257 146.620  0.00  0.00    +0.000 C 
ATOM     49  C   UNL     1     107.031 125.613 146.735  0.00  0.00    +0.000 C 
ATOM     50  C   UNL     1     105.678 126.545 146.577  0.00  0.00    +0.000 C 
ATOM     51  C   UNL     1     107.090 126.435 146.771  0.00  0.00    +0.000 C 
ATOM     52  C   UNL     1     107.825 126.791 146.886  0.00  0.00    +0.000 C 
BRANCH  47  53
ATOM     53  O   UNL     1     104.884 125.368 146.426  0.00  0.00    +0.000 OA
BRANCH  53  58
ATOM     54  O   UNL     1     104.811 125.069 147.822  0.00  0.00    +0.000 OA
ATOM     55  O   UNL     1     103.411 124.659 146.197  0.00  0.00    +0.000 OA
ATOM     56  O   UNL     1     102.602 124.006 147.478  0.00  0.00    +0.000 OA
ATOM     57  O   UNL     1     103.265 124.061 148.987  0.00  0.00    +0.000 OA
ATOM     58  C   UNL     1     104.479 125.041 147.066  0.00  0.00    +0.000 C 
ATOM     59  C   UNL     1     103.743 124.687 146.952  0.00  0.00    +0.000 C 
ATOM     60  C   UNL     1     103.339 124.360 147.593  0.00  0.00    +0.000 C 
ATOM     61  C   UNL     1     103.670 124.388 148.347  0.00  0.00    +0.000 C 
ATOM     62  C   UNL     1     104.406 124.742 148.462  0.00  0.00    +0.000 C 
BRANCH  62  64
ATOM     63  O   UNL     1     104.807 125.491 149.611  0.00  0.00    +0.000 OA
ATOM     64  C   UNL     1     104.737 124.769 149.217  0.00  0.00    +0.000 C 
ENDBRANCH  62  64
ENDBRANCH  53  58
ENDBRANCH  47  53
ENDBRANCH  43  50
ENDBRANCH   5  43
BRANCH   6  65
ATOM     65  C   UNL     1     104.877 130.518 145.014  0.00  0.00    +0.000 C 
BRANCH  65  66
ATOM     66  C   UNL     1     104.096 130.781 144.954  0.00  0.00    +0.000 C 
ATOM     67  C   UNL     1     103.862 131.470 145.342  0.00  0.00    +0.000 C 
ATOM     68  C   UNL     1     103.082 131.733 145.282  0.00  0.00    +0.000 C 
ATOM     69  C   UNL     1     104.407 131.898 145.790  0.00  0.00    +0.000 C 
ENDBRANCH  65  66
ENDBRANCH   6  65
TORSDOF 14
ENDMDL
MODEL 7
REMARK VINA RESULT:      -9.1      4.116      6.996
REMARK  Name = 44258794
REMARK  14 active torsions:
REMARK  status: ('A' for Active; 'I' for Inactive)
REMARK    1  A    between atoms: O_1  and  C_26
REMARK    2  A    between atoms: O_1  and  C_31
REMARK    3  A    between atoms: O_2  and  C_27
REMARK    4  A    between atoms: O_2  and  C_34
REMARK    5  A    between atoms: O_7  and  C_32
REMARK    6  A    between atoms: O_7  and  C_50
REMARK    7  A    between atoms: O_9  and  C_39
REMARK    8  A    between atoms: O_9  and  C_51
REMARK    9  A    between atoms: C_35  and  C_46
REMARK   10  A    between atoms: C_43  and  C_47
REMARK   11  A    between atoms: C_45  and  C_49
REMARK   12  A    between atoms: C_52  and  C_59
REMARK   13  A    between atoms: C_57  and  C_60
REMARK   14  A    between atoms: C_59  and  C_61
REMARK                            x       y       z     vdW  Elec       q    Type
REMARK                         _______ _______ _______ _____ _____    ______ ____
ROOT
ATOM      1  O   UNL     1     105.543 129.877 147.348  0.00  0.00    +0.000 OA
ATOM      2  O   UNL     1     107.191 128.818 145.835  0.00  0.00    +0.000 OA
ATOM      3  O   UNL     1     107.702 130.109 145.443  0.00  0.00    +0.000 OA
ATOM      4  C   UNL     1     106.557 131.694 146.534  0.00  0.00    +0.000 A 
ATOM      5  C   UNL     1     106.123 128.703 146.777  0.00  0.00    +0.000 A 
ATOM      6  C   UNL     1     106.019 131.201 146.988  0.00  0.00    +0.000 A 
ATOM      7  C   UNL     1     106.061 130.346 146.910  0.00  0.00    +0.000 A 
ATOM      8  C   UNL     1     106.611 129.993 146.406  0.00  0.00    +0.000 A 
ATOM      9  C   UNL     1     106.642 129.171 146.339  0.00  0.00    +0.000 A 
ATOM     10  C   UNL     1     107.129 131.327 146.009  0.00  0.00    +0.000 A 
ATOM     11  C   UNL     1     105.574 129.055 147.281  0.00  0.00    +0.000 A 
ATOM     12  C   UNL     1     107.156 130.471 145.944  0.00  0.00    +0.000 A 
ENDROOT
BRANCH  11  14
ATOM     13  O   UNL     1     103.499 127.179 149.032  0.00  0.00    +0.000 OA
ATOM     14  C   UNL     1     105.055 128.586 147.719  0.00  0.00    +0.000 A 
ATOM     15  C   UNL     1     105.299 128.262 148.438  0.00  0.00    +0.000 A 
ATOM     16  C   UNL     1     104.293 128.442 147.439  0.00  0.00    +0.000 A 
ATOM     17  C   UNL     1     104.780 127.793 148.876  0.00  0.00    +0.000 A 
ATOM     18  C   UNL     1     103.774 127.973 147.876  0.00  0.00    +0.000 A 
ATOM     19  C   UNL     1     104.018 127.648 148.594  0.00  0.00    +0.000 A 
ENDBRANCH  11  14
BRANCH   4  20
ATOM     20  O   UNL     1     106.524 132.517 146.602  0.00  0.00    +0.000 OA
BRANCH  20  27
ATOM     21  O   UNL     1     106.020 132.822 145.300  0.00  0.00    +0.000 OA
ATOM     22  O   UNL     1     107.586 134.730 145.142  0.00  0.00    +0.000 OA
ATOM     23  O   UNL     1     106.561 134.400 143.893  0.00  0.00    +0.000 OA
ATOM     24  C   UNL     1     107.055 133.623 145.872  0.00  0.00    +0.000 C 
ATOM     25  C   UNL     1     107.065 134.095 145.194  0.00  0.00    +0.000 C 
ATOM     26  C   UNL     1     106.551 133.929 144.570  0.00  0.00    +0.000 C 
ATOM     27  C   UNL     1     106.533 132.987 145.925  0.00  0.00    +0.000 C 
ATOM     28  C   UNL     1     106.029 133.292 144.623  0.00  0.00    +0.000 C 
BRANCH  28  30
ATOM     29  O   UNL     1     104.713 133.009 144.145  0.00  0.00    +0.000 OA
ATOM     30  C   UNL     1     105.516 133.127 143.999  0.00  0.00    +0.000 C 
ENDBRANCH  28  30
BRANCH  24  31
ATOM     31  O   UNL     1     107.569 133.789 146.496  0.00  0.00    +0.000 OA
BRANCH  31  36
ATOM     32  O   UNL     1     106.630 134.728 147.023  0.00  0.00    +0.000 OA
ATOM     33  O   UNL     1     108.548 134.036 147.801  0.00  0.00    +0.000 OA
ATOM     34  O   UNL     1     108.098 135.099 148.981  0.00  0.00    +0.000 OA
ATOM     35  O   UNL     1     106.669 135.915 148.855  0.00  0.00    +0.000 OA
ATOM     36  C   UNL     1     107.344 134.320 147.085  0.00  0.00    +0.000 C 
ATOM     37  C   UNL     1     107.834 134.444 147.738  0.00  0.00    +0.000 C 
ATOM     38  C   UNL     1     107.609 134.975 148.328  0.00  0.00    +0.000 C 
ATOM     39  C   UNL     1     106.894 135.384 148.265  0.00  0.00    +0.000 C 
ATOM     40  C   UNL     1     106.405 135.260 147.612  0.00  0.00    +0.000 C 
BRANCH  40  42
ATOM     41  O   UNL     1     105.621 136.301 147.024  0.00  0.00    +0.000 OA
ATOM     42  C   UNL     1     105.690 135.668 147.550  0.00  0.00    +0.000 C 
ENDBRANCH  40  42
ENDBRANCH  31  36
ENDBRANCH  24  31
ENDBRANCH  20  27
ENDBRANCH   4  20
BRANCH   5  43
ATOM     43  O   UNL     1     106.154 127.881 146.711  0.00  0.00    +0.000 OA
BRANCH  43  50
ATOM     44  O   UNL     1     105.563 127.824 145.412  0.00  0.00    +0.000 OA
ATOM     45  O   UNL     1     106.953 125.851 144.864  0.00  0.00    +0.000 OA
ATOM     46  O   UNL     1     105.897 126.453 143.748  0.00  0.00    +0.000 OA
ATOM     47  C   UNL     1     106.554 126.866 145.788  0.00  0.00    +0.000 C 
ATOM     48  C   UNL     1     106.489 126.509 145.047  0.00  0.00    +0.000 C 
ATOM     49  C   UNL     1     105.961 126.810 144.489  0.00  0.00    +0.000 C 
ATOM     50  C   UNL     1     106.091 127.523 145.971  0.00  0.00    +0.000 C 
ATOM     51  C   UNL     1     105.498 127.467 144.672  0.00  0.00    +0.000 C 
ATOM     52  C   UNL     1     104.970 127.768 144.113  0.00  0.00    +0.000 C 
BRANCH  47  53
ATOM     53  O   UNL     1     107.082 126.566 146.346  0.00  0.00    +0.000 OA
BRANCH  53  58
ATOM     54  O   UNL     1     106.125 125.568 146.713  0.00  0.00    +0.000 OA
ATOM     55  O   UNL     1     108.140 125.959 147.457  0.00  0.00    +0.000 OA
ATOM     56  O   UNL     1     107.712 124.659 148.379  0.00  0.00    +0.000 OA
ATOM     57  O   UNL     1     106.228 123.965 148.190  0.00  0.00    +0.000 OA
ATOM     58  C   UNL     1     106.868 125.916 146.807  0.00  0.00    +0.000 C 
ATOM     59  C   UNL     1     107.397 125.612 147.363  0.00  0.00    +0.000 C 
ATOM     60  C   UNL     1     107.183 124.962 147.823  0.00  0.00    +0.000 C 
ATOM     61  C   UNL     1     106.441 124.615 147.729  0.00  0.00    +0.000 C 
ATOM     62  C   UNL     1     105.912 124.918 147.173  0.00  0.00    +0.000 C 
BRANCH  62  64
ATOM     63  O   UNL     1     105.039 124.037 146.464  0.00  0.00    +0.000 OA
ATOM     64  C   UNL     1     105.170 124.572 147.079  0.00  0.00    +0.000 C 
ENDBRANCH  62  64
ENDBRANCH  53  58
ENDBRANCH  47  53
ENDBRANCH  43  50
ENDBRANCH   5  43
BRANCH   6  65
ATOM     65  C   UNL     1     105.467 131.545 147.494  0.00  0.00    +0.000 C 
BRANCH  65  66
ATOM     66  C   UNL     1     105.661 131.682 148.285  0.00  0.00    +0.000 C 
ATOM     67  C   UNL     1     105.106 132.018 148.793  0.00  0.00    +0.000 C 
ATOM     68  C   UNL     1     105.299 132.154 149.584  0.00  0.00    +0.000 C 
ATOM     69  C   UNL     1     104.356 132.218 148.513  0.00  0.00    +0.000 C 
ENDBRANCH  65  66
ENDBRANCH   6  65
TORSDOF 14
ENDMDL
MODEL 8
REMARK VINA RESULT:      -9.1      3.295      6.197
REMARK  Name = 44258794
REMARK  14 active torsions:
REMARK  status: ('A' for Active; 'I' for Inactive)
REMARK    1  A    between atoms: O_1  and  C_26
REMARK    2  A    between atoms: O_1  and  C_31
REMARK    3  A    between atoms: O_2  and  C_27
REMARK    4  A    between atoms: O_2  and  C_34
REMARK    5  A    between atoms: O_7  and  C_32
REMARK    6  A    between atoms: O_7  and  C_50
REMARK    7  A    between atoms: O_9  and  C_39
REMARK    8  A    between atoms: O_9  and  C_51
REMARK    9  A    between atoms: C_35  and  C_46
REMARK   10  A    between atoms: C_43  and  C_47
REMARK   11  A    between atoms: C_45  and  C_49
REMARK   12  A    between atoms: C_52  and  C_59
REMARK   13  A    between atoms: C_57  and  C_60
REMARK   14  A    between atoms: C_59  and  C_61
REMARK                            x       y       z     vdW  Elec       q    Type
REMARK                         _______ _______ _______ _____ _____    ______ ____
ROOT
ATOM      1  O   UNL     1     108.997 128.969 141.052  0.00  0.00    +0.000 OA
ATOM      2  O   UNL     1     108.672 126.932 142.420  0.00  0.00    +0.000 OA
ATOM      3  O   UNL     1     109.663 126.222 141.650  0.00  0.00    +0.000 OA
ATOM      4  C   UNL     1     110.462 127.596 140.072  0.00  0.00    +0.000 A 
ATOM      5  C   UNL     1     108.341 128.291 142.125  0.00  0.00    +0.000 A 
ATOM      6  C   UNL     1     110.003 128.301 140.245  0.00  0.00    +0.000 A 
ATOM      7  C   UNL     1     109.436 128.289 140.890  0.00  0.00    +0.000 A 
ATOM      8  C   UNL     1     109.327 127.610 141.347  0.00  0.00    +0.000 A 
ATOM      9  C   UNL     1     108.780 127.611 141.964  0.00  0.00    +0.000 A 
ATOM     10  C   UNL     1     110.350 126.889 140.547  0.00  0.00    +0.000 A 
ATOM     11  C   UNL     1     108.450 128.970 141.669  0.00  0.00    +0.000 A 
ATOM     12  C   UNL     1     109.778 126.896 141.188  0.00  0.00    +0.000 A 
ENDROOT
BRANCH  11  14
ATOM     13  O   UNL     1     106.693 131.688 142.315  0.00  0.00    +0.000 OA
ATOM     14  C   UNL     1     108.011 129.649 141.831  0.00  0.00    +0.000 A 
ATOM     15  C   UNL     1     108.274 130.185 142.400  0.00  0.00    +0.000 A 
ATOM     16  C   UNL     1     107.308 129.793 141.423  0.00  0.00    +0.000 A 
ATOM     17  C   UNL     1     107.835 130.865 142.562  0.00  0.00    +0.000 A 
ATOM     18  C   UNL     1     106.869 130.472 141.584  0.00  0.00    +0.000 A 
ATOM     19  C   UNL     1     107.132 131.008 142.153  0.00  0.00    +0.000 A 
ENDBRANCH  11  14
BRANCH   4  20
ATOM     20  O   UNL     1     111.010 127.598 139.454  0.00  0.00    +0.000 OA
BRANCH  20  27
ATOM     21  O   UNL     1     112.211 127.591 140.227  0.00  0.00    +0.000 OA
ATOM     22  O   UNL     1     113.207 125.950 138.666  0.00  0.00    +0.000 OA
ATOM     23  O   UNL     1     114.076 126.490 139.959  0.00  0.00    +0.000 OA
ATOM     24  C   UNL     1     112.108 126.774 139.060  0.00  0.00    +0.000 C 
ATOM     25  C   UNL     1     112.875 126.497 139.186  0.00  0.00    +0.000 C 
ATOM     26  C   UNL     1     113.309 126.767 139.833  0.00  0.00    +0.000 C 
ATOM     27  C   UNL     1     111.776 127.321 139.580  0.00  0.00    +0.000 C 
ATOM     28  C   UNL     1     112.977 127.315 140.353  0.00  0.00    +0.000 C 
BRANCH  28  30
ATOM     29  O   UNL     1     113.420 128.389 141.186  0.00  0.00    +0.000 OA
ATOM     30  C   UNL     1     113.412 127.585 141.000  0.00  0.00    +0.000 C 
ENDBRANCH  28  30
BRANCH  24  31
ATOM     31  O   UNL     1     111.673 126.503 138.413  0.00  0.00    +0.000 OA
BRANCH  31  36
ATOM     32  O   UNL     1     112.307 127.474 137.578  0.00  0.00    +0.000 OA
ATOM     33  O   UNL     1     110.857 125.912 137.107  0.00  0.00    +0.000 OA
ATOM     34  O   UNL     1     111.084 126.588 135.618  0.00  0.00    +0.000 OA
ATOM     35  O   UNL     1     112.126 127.855 135.437  0.00  0.00    +0.000 OA
ATOM     36  C   UNL     1     111.786 126.841 137.670  0.00  0.00    +0.000 C 
ATOM     37  C   UNL     1     111.378 126.545 137.016  0.00  0.00    +0.000 C 
ATOM     38  C   UNL     1     111.491 126.883 136.271  0.00  0.00    +0.000 C 
ATOM     39  C   UNL     1     112.013 127.517 136.181  0.00  0.00    +0.000 C 
ATOM     40  C   UNL     1     112.420 127.812 136.834  0.00  0.00    +0.000 C 
BRANCH  40  42
ATOM     41  O   UNL     1     112.764 129.177 137.080  0.00  0.00    +0.000 OA
ATOM     42  C   UNL     1     112.942 128.445 136.744  0.00  0.00    +0.000 C 
ENDBRANCH  40  42
ENDBRANCH  31  36
ENDBRANCH  24  31
ENDBRANCH  20  27
ENDBRANCH   4  20
BRANCH   5  43
ATOM     43  O   UNL     1     107.794 128.291 142.743  0.00  0.00    +0.000 OA
BRANCH  43  50
ATOM     44  O   UNL     1     106.851 127.445 142.085  0.00  0.00    +0.000 OA
ATOM     45  O   UNL     1     106.178 126.495 144.269  0.00  0.00    +0.000 OA
ATOM     46  O   UNL     1     105.459 125.965 142.882  0.00  0.00    +0.000 OA
ATOM     47  C   UNL     1     106.986 127.393 143.507  0.00  0.00    +0.000 C 
ATOM     48  C   UNL     1     106.402 126.811 143.541  0.00  0.00    +0.000 C 
ATOM     49  C   UNL     1     106.043 126.546 142.847  0.00  0.00    +0.000 C 
ATOM     50  C   UNL     1     107.211 127.710 142.778  0.00  0.00    +0.000 C 
ATOM     51  C   UNL     1     106.267 126.863 142.119  0.00  0.00    +0.000 C 
ATOM     52  C   UNL     1     105.907 126.598 141.426  0.00  0.00    +0.000 C 
BRANCH  47  53
ATOM     53  O   UNL     1     107.346 127.659 144.199  0.00  0.00    +0.000 OA
BRANCH  53  58
ATOM     54  O   UNL     1     106.184 128.431 144.511  0.00  0.00    +0.000 OA
ATOM     55  O   UNL     1     108.127 128.309 145.500  0.00  0.00    +0.000 OA
ATOM     56  O   UNL     1     107.355 129.407 146.460  0.00  0.00    +0.000 OA
ATOM     57  O   UNL     1     105.804 129.853 146.121  0.00  0.00    +0.000 OA
ATOM     58  C   UNL     1     106.961 128.207 144.680  0.00  0.00    +0.000 C 
ATOM     59  C   UNL     1     107.351 128.533 145.330  0.00  0.00    +0.000 C 
ATOM     60  C   UNL     1     106.965 129.081 145.810  0.00  0.00    +0.000 C 
ATOM     61  C   UNL     1     106.189 129.304 145.640  0.00  0.00    +0.000 C 
ATOM     62  C   UNL     1     105.798 128.980 144.991  0.00  0.00    +0.000 C 
BRANCH  62  64
ATOM     63  O   UNL     1     104.862 129.664 144.157  0.00  0.00    +0.000 OA
ATOM     64  C   UNL     1     105.023 129.203 144.822  0.00  0.00    +0.000 C 
ENDBRANCH  62  64
ENDBRANCH  53  58
ENDBRANCH  47  53
ENDBRANCH  43  50
ENDBRANCH   5  43
BRANCH   6  65
ATOM     65  C   UNL     1     110.105 128.984 139.794  0.00  0.00    +0.000 C 
BRANCH  65  66
ATOM     66  C   UNL     1     109.678 129.084 139.095  0.00  0.00    +0.000 C 
ATOM     67  C   UNL     1     109.755 129.781 138.661  0.00  0.00    +0.000 C 
ATOM     68  C   UNL     1     109.328 129.882 137.962  0.00  0.00    +0.000 C 
ATOM     69  C   UNL     1     110.258 130.379 138.926  0.00  0.00    +0.000 C 
ENDBRANCH  65  66
ENDBRANCH   6  65
TORSDOF 14
ENDMDL
MODEL 9
REMARK VINA RESULT:      -9.1      3.778      8.263
REMARK  Name = 44258794
REMARK  14 active torsions:
REMARK  status: ('A' for Active; 'I' for Inactive)
REMARK    1  A    between atoms: O_1  and  C_26
REMARK    2  A    between atoms: O_1  and  C_31
REMARK    3  A    between atoms: O_2  and  C_27
REMARK    4  A    between atoms: O_2  and  C_34
REMARK    5  A    between atoms: O_7  and  C_32
REMARK    6  A    between atoms: O_7  and  C_50
REMARK    7  A    between atoms: O_9  and  C_39
REMARK    8  A    between atoms: O_9  and  C_51
REMARK    9  A    between atoms: C_35  and  C_46
REMARK   10  A    between atoms: C_43  and  C_47
REMARK   11  A    between atoms: C_45  and  C_49
REMARK   12  A    between atoms: C_52  and  C_59
REMARK   13  A    between atoms: C_57  and  C_60
REMARK   14  A    between atoms: C_59  and  C_61
REMARK                            x       y       z     vdW  Elec       q    Type
REMARK                         _______ _______ _______ _____ _____    ______ ____
ROOT
ATOM      1  O   UNL     1     108.943 126.676 140.260  0.00  0.00    +0.000 OA
ATOM      2  O   UNL     1     110.047 128.730 141.092  0.00  0.00    +0.000 OA
ATOM      3  O   UNL     1     109.179 128.764 142.243  0.00  0.00    +0.000 OA
ATOM      4  C   UNL     1     107.776 127.022 142.134  0.00  0.00    +0.000 A 
ATOM      5  C   UNL     1     109.931 127.698 140.111  0.00  0.00    +0.000 A 
ATOM      6  C   UNL     1     108.044 126.664 141.400  0.00  0.00    +0.000 A 
ATOM      7  C   UNL     1     108.691 127.024 140.965  0.00  0.00    +0.000 A 
ATOM      8  C   UNL     1     109.059 127.709 141.242  0.00  0.00    +0.000 A 
ATOM      9  C   UNL     1     109.679 128.046 140.815  0.00  0.00    +0.000 A 
ATOM     10  C   UNL     1     108.159 127.734 142.423  0.00  0.00    +0.000 A 
ATOM     11  C   UNL     1     109.564 127.013 139.833  0.00  0.00    +0.000 A 
ATOM     12  C   UNL     1     108.805 128.080 141.974  0.00  0.00    +0.000 A 
ENDROOT
BRANCH  11  14
ATOM     13  O   UNL     1     110.575 125.623 137.017  0.00  0.00    +0.000 OA
ATOM     14  C   UNL     1     109.816 126.666 139.129  0.00  0.00    +0.000 A 
ATOM     15  C   UNL     1     109.528 126.941 138.407  0.00  0.00    +0.000 A 
ATOM     16  C   UNL     1     110.357 126.043 139.147  0.00  0.00    +0.000 A 
ATOM     17  C   UNL     1     109.781 126.594 137.702  0.00  0.00    +0.000 A 
ATOM     18  C   UNL     1     110.610 125.695 138.444  0.00  0.00    +0.000 A 
ATOM     19  C   UNL     1     110.322 125.971 137.721  0.00  0.00    +0.000 A 
ENDBRANCH  11  14
BRANCH   4  20
ATOM     20  O   UNL     1     107.155 126.682 142.560  0.00  0.00    +0.000 OA
BRANCH  20  27
ATOM     21  O   UNL     1     106.086 127.570 142.225  0.00  0.00    +0.000 OA
ATOM     22  O   UNL     1     105.433 127.682 144.609  0.00  0.00    +0.000 OA
ATOM     23  O   UNL     1     104.583 128.531 143.481  0.00  0.00    +0.000 OA
ATOM     24  C   UNL     1     106.295 127.181 143.584  0.00  0.00    +0.000 C 
ATOM     25  C   UNL     1     105.651 127.644 143.815  0.00  0.00    +0.000 C 
ATOM     26  C   UNL     1     105.226 128.069 143.250  0.00  0.00    +0.000 C 
ATOM     27  C   UNL     1     106.512 127.144 142.790  0.00  0.00    +0.000 C 
ATOM     28  C   UNL     1     105.443 128.032 142.455  0.00  0.00    +0.000 C 
BRANCH  28  30
ATOM     29  O   UNL     1     104.817 128.104 141.173  0.00  0.00    +0.000 OA
ATOM     30  C   UNL     1     105.018 128.456 141.891  0.00  0.00    +0.000 C 
ENDBRANCH  28  30
BRANCH  24  31
ATOM     31  O   UNL     1     106.720 126.757 144.149  0.00  0.00    +0.000 OA
BRANCH  31  36
ATOM     32  O   UNL     1     105.848 125.629 144.060  0.00  0.00    +0.000 OA
ATOM     33  O   UNL     1     107.168 126.292 145.667  0.00  0.00    +0.000 OA
ATOM     34  O   UNL     1     106.520 124.929 146.338  0.00  0.00    +0.000 OA
ATOM     35  O   UNL     1     105.424 124.034 145.489  0.00  0.00    +0.000 OA
ATOM     36  C   UNL     1     106.396 126.077 144.484  0.00  0.00    +0.000 C 
ATOM     37  C   UNL     1     106.620 125.844 145.244  0.00  0.00    +0.000 C 
ATOM     38  C   UNL     1     106.296 125.163 145.579  0.00  0.00    +0.000 C 
ATOM     39  C   UNL     1     105.748 124.714 145.154  0.00  0.00    +0.000 C 
ATOM     40  C   UNL     1     105.524 124.948 144.395  0.00  0.00    +0.000 C 
BRANCH  40  42
ATOM     41  O   UNL     1     105.174 124.201 143.228  0.00  0.00    +0.000 OA
ATOM     42  C   UNL     1     104.976 124.499 143.971  0.00  0.00    +0.000 C 
ENDBRANCH  40  42
ENDBRANCH  31  36
ENDBRANCH  24  31
ENDBRANCH  20  27
ENDBRANCH   4  20
BRANCH   5  43
ATOM     43  O   UNL     1     110.552 128.035 139.684  0.00  0.00    +0.000 OA
BRANCH  43  50
ATOM     44  O   UNL     1     111.591 127.608 140.566  0.00  0.00    +0.000 OA
ATOM     45  O   UNL     1     112.836 129.699 140.111  0.00  0.00    +0.000 OA
ATOM     46  O   UNL     1     113.460 128.574 141.146  0.00  0.00    +0.000 OA
ATOM     47  C   UNL     1     111.694 128.867 139.897  0.00  0.00    +0.000 C 
ATOM     48  C   UNL     1     112.421 129.002 140.263  0.00  0.00    +0.000 C 
ATOM     49  C   UNL     1     112.733 128.440 140.780  0.00  0.00    +0.000 C 
ATOM     50  C   UNL     1     111.279 128.171 140.049  0.00  0.00    +0.000 C 
ATOM     51  C   UNL     1     112.318 127.743 140.931  0.00  0.00    +0.000 C 
ATOM     52  C   UNL     1     112.630 127.181 141.448  0.00  0.00    +0.000 C 
BRANCH  47  53
ATOM     53  O   UNL     1     111.381 129.429 139.381  0.00  0.00    +0.000 OA
BRANCH  53  58
ATOM     54  O   UNL     1     112.277 128.985 138.358  0.00  0.00    +0.000 OA
ATOM     55  O   UNL     1     110.728 130.523 138.333  0.00  0.00    +0.000 OA
ATOM     56  O   UNL     1     111.297 130.627 136.787  0.00  0.00    +0.000 OA
ATOM     57  O   UNL     1     112.518 129.637 136.289  0.00  0.00    +0.000 OA
ATOM     58  C   UNL     1     111.665 129.480 138.608  0.00  0.00    +0.000 C 
ATOM     59  C   UNL     1     111.339 130.028 138.084  0.00  0.00    +0.000 C 
ATOM     60  C   UNL     1     111.623 130.080 137.311  0.00  0.00    +0.000 C 
ATOM     61  C   UNL     1     112.234 129.584 137.062  0.00  0.00    +0.000 C 
ATOM     62  C   UNL     1     112.561 129.037 137.585  0.00  0.00    +0.000 C 
BRANCH  62  64
ATOM     63  O   UNL     1     113.046 127.729 137.278  0.00  0.00    +0.000 OA
ATOM     64  C   UNL     1     113.171 128.542 137.336  0.00  0.00    +0.000 C 
ENDBRANCH  62  64
ENDBRANCH  53  58
ENDBRANCH  47  53
ENDBRANCH  43  50
ENDBRANCH   5  43
BRANCH   6  65
ATOM     65  C   UNL     1     107.682 125.980 141.116  0.00  0.00    +0.000 C 
BRANCH  65  66
ATOM     66  C   UNL     1     107.977 125.238 141.327  0.00  0.00    +0.000 C 
ATOM     67  C   UNL     1     107.629 124.555 141.025  0.00  0.00    +0.000 C 
ATOM     68  C   UNL     1     107.924 123.813 141.236  0.00  0.00    +0.000 C 
ATOM     69  C   UNL     1     106.985 124.611 140.512  0.00  0.00    +0.000 C 
ENDBRANCH  65  66
ENDBRANCH   6  65
TORSDOF 14
ENDMDL
MODEL 10
REMARK VINA RESULT:      -9.1      3.519      8.035
REMARK  Name = 44258794
REMARK  14 active torsions:
REMARK  status: ('A' for Active; 'I' for Inactive)
REMARK    1  A    between atoms: O_1  and  C_26
REMARK    2  A    between atoms: O_1  and  C_31
REMARK    3  A    between atoms: O_2  and  C_27
REMARK    4  A    between atoms: O_2  and  C_34
REMARK    5  A    between atoms: O_7  and  C_32
REMARK    6  A    between atoms: O_7  and  C_50
REMARK    7  A    between atoms: O_9  and  C_39
REMARK    8  A    between atoms: O_9  and  C_51
REMARK    9  A    between atoms: C_35  and  C_46
REMARK   10  A    between atoms: C_43  and  C_47
REMARK   11  A    between atoms: C_45  and  C_49
REMARK   12  A    between atoms: C_52  and  C_59
REMARK   13  A    between atoms: C_57  and  C_60
REMARK   14  A    between atoms: C_59  and  C_61
REMARK                            x       y       z     vdW  Elec       q    Type
REMARK                         _______ _______ _______ _____ _____    ______ ____
ROOT
ATOM      1  O   UNL     1     109.228 128.845 140.432  0.00  0.00    +0.000 OA
ATOM      2  O   UNL     1     110.460 126.703 140.287  0.00  0.00    +0.000 OA
ATOM      3  O   UNL     1     109.637 126.128 141.323  0.00  0.00    +0.000 OA
ATOM      4  C   UNL     1     108.150 127.663 141.991  0.00  0.00    +0.000 A 
ATOM      5  C   UNL     1     110.258 128.047 139.845  0.00  0.00    +0.000 A 
ATOM      6  C   UNL     1     108.372 128.316 141.478  0.00  0.00    +0.000 A 
ATOM      7  C   UNL     1     109.019 128.216 140.922  0.00  0.00    +0.000 A 
ATOM      8  C   UNL     1     109.430 127.501 140.873  0.00  0.00    +0.000 A 
ATOM      9  C   UNL     1     110.049 127.417 140.335  0.00  0.00    +0.000 A 
ATOM     10  C   UNL     1     108.577 126.920 141.941  0.00  0.00    +0.000 A 
ATOM     11  C   UNL     1     109.848 128.761 139.893  0.00  0.00    +0.000 A 
ATOM     12  C   UNL     1     109.221 126.838 141.378  0.00  0.00    +0.000 A 
ENDROOT
BRANCH  11  14
ATOM     13  O   UNL     1     110.684 131.279 137.932  0.00  0.00    +0.000 OA
ATOM     14  C   UNL     1     110.057 129.391 139.403  0.00  0.00    +0.000 A 
ATOM     15  C   UNL     1     110.576 129.971 139.676  0.00  0.00    +0.000 A 
ATOM     16  C   UNL     1     109.747 129.440 138.640  0.00  0.00    +0.000 A 
ATOM     17  C   UNL     1     110.785 130.601 139.186  0.00  0.00    +0.000 A 
ATOM     18  C   UNL     1     109.956 130.069 138.149  0.00  0.00    +0.000 A 
ATOM     19  C   UNL     1     110.475 130.650 138.422  0.00  0.00    +0.000 A 
ENDBRANCH  11  14
BRANCH   4  20
ATOM     20  O   UNL     1     107.530 127.750 142.530  0.00  0.00    +0.000 OA
BRANCH  20  27
ATOM     21  O   UNL     1     106.639 126.767 141.999  0.00  0.00    +0.000 OA
ATOM     22  O   UNL     1     106.108 126.011 144.295  0.00  0.00    +0.000 OA
ATOM     23  O   UNL     1     105.395 125.280 143.001  0.00  0.00    +0.000 OA
ATOM     24  C   UNL     1     106.819 126.881 143.412  0.00  0.00    +0.000 C 
ATOM     25  C   UNL     1     106.285 126.263 143.530  0.00  0.00    +0.000 C 
ATOM     26  C   UNL     1     105.929 125.897 142.882  0.00  0.00    +0.000 C 
ATOM     27  C   UNL     1     106.996 127.133 142.647  0.00  0.00    +0.000 C 
ATOM     28  C   UNL     1     106.106 126.149 142.117  0.00  0.00    +0.000 C 
BRANCH  28  30
ATOM     29  O   UNL     1     105.403 126.240 140.876  0.00  0.00    +0.000 OA
ATOM     30  C   UNL     1     105.749 125.784 141.470  0.00  0.00    +0.000 C 
ENDBRANCH  28  30
BRANCH  24  31
ATOM     31  O   UNL     1     107.176 127.246 144.060  0.00  0.00    +0.000 OA
BRANCH  31  36
ATOM     32  O   UNL     1     106.036 128.094 144.215  0.00  0.00    +0.000 OA
ATOM     33  O   UNL     1     107.832 127.877 145.436  0.00  0.00    +0.000 OA
ATOM     34  O   UNL     1     107.020 129.042 146.278  0.00  0.00    +0.000 OA
ATOM     35  O   UNL     1     105.552 129.574 145.745  0.00  0.00    +0.000 OA
ATOM     36  C   UNL     1     106.770 127.827 144.481  0.00  0.00    +0.000 C 
ATOM     37  C   UNL     1     107.098 128.144 145.169  0.00  0.00    +0.000 C 
ATOM     38  C   UNL     1     106.693 128.725 145.590  0.00  0.00    +0.000 C 
ATOM     39  C   UNL     1     105.958 128.992 145.323  0.00  0.00    +0.000 C 
ATOM     40  C   UNL     1     105.631 128.675 144.636  0.00  0.00    +0.000 C 
BRANCH  40  42
ATOM     41  O   UNL     1     104.842 129.363 143.661  0.00  0.00    +0.000 OA
ATOM     42  C   UNL     1     104.896 128.942 144.369  0.00  0.00    +0.000 C 
ENDBRANCH  40  42
ENDBRANCH  31  36
ENDBRANCH  24  31
ENDBRANCH  20  27
ENDBRANCH   4  20
BRANCH   5  43
ATOM     43  O   UNL     1     110.877 127.962 139.307  0.00  0.00    +0.000 OA
BRANCH  43  50
ATOM     44  O   UNL     1     111.925 128.017 140.275  0.00  0.00    +0.000 OA
ATOM     45  O   UNL     1     113.248 126.410 138.936  0.00  0.00    +0.000 OA
ATOM     46  O   UNL     1     113.855 127.000 140.353  0.00  0.00    +0.000 OA
ATOM     47  C   UNL     1     112.063 127.186 139.121  0.00  0.00    +0.000 C 
ATOM     48  C   UNL     1     112.807 126.945 139.383  0.00  0.00    +0.000 C 
ATOM     49  C   UNL     1     113.111 127.240 140.091  0.00  0.00    +0.000 C 
ATOM     50  C   UNL     1     111.622 127.721 139.567  0.00  0.00    +0.000 C 
ATOM     51  C   UNL     1     112.670 127.776 140.537  0.00  0.00    +0.000 C 
ATOM     52  C   UNL     1     112.973 128.071 141.245  0.00  0.00    +0.000 C 
BRANCH  47  53
ATOM     53  O   UNL     1     111.759 126.891 138.413  0.00  0.00    +0.000 OA
BRANCH  53  58
ATOM     54  O   UNL     1     112.595 127.788 137.680  0.00  0.00    +0.000 OA
ATOM     55  O   UNL     1     111.084 126.367 137.001  0.00  0.00    +0.000 OA
ATOM     56  O   UNL     1     111.583 127.002 135.563  0.00  0.00    +0.000 OA
ATOM     57  O   UNL     1     112.757 128.160 135.535  0.00  0.00    +0.000 OA
ATOM     58  C   UNL     1     112.008 127.208 137.694  0.00  0.00    +0.000 C 
ATOM     59  C   UNL     1     111.671 126.946 136.988  0.00  0.00    +0.000 C 
ATOM     60  C   UNL     1     111.921 127.264 136.269  0.00  0.00    +0.000 C 
ATOM     61  C   UNL     1     112.508 127.843 136.255  0.00  0.00    +0.000 C 
ATOM     62  C   UNL     1     112.845 128.106 136.960  0.00  0.00    +0.000 C 
BRANCH  62  64
ATOM     63  O   UNL     1     113.282 129.431 137.264  0.00  0.00    +0.000 OA
ATOM     64  C   UNL     1     113.431 128.685 136.946  0.00  0.00    +0.000 C 
ENDBRANCH  62  64
ENDBRANCH  53  58
ENDBRANCH  47  53
ENDBRANCH  43  50
ENDBRANCH   5  43
BRANCH   6  65
ATOM     65  C   UNL     1     107.968 129.033 141.520  0.00  0.00    +0.000 C 
BRANCH  65  66
ATOM     66  C   UNL     1     108.206 129.611 142.060  0.00  0.00    +0.000 C 
ATOM     67  C   UNL     1     107.818 130.338 142.083  0.00  0.00    +0.000 C 
ATOM     68  C   UNL     1     108.056 130.916 142.623  0.00  0.00    +0.000 C 
ATOM     69  C   UNL     1     107.192 130.489 141.568  0.00  0.00    +0.000 C 
ENDBRANCH  65  66
ENDBRANCH   6  65
TORSDOF 14
ENDMDL
