MODEL 1
REMARK VINA RESULT:      -8.4      0.000      0.000
REMARK  Name = 11361284
REMARK  5 active torsions:
REMARK  status: ('A' for Active; 'I' for Inactive)
REMARK    1  A    between atoms: O_2  and  C_14
REMARK    2  A    between atoms: O_3  and  C_18
REMARK    3  A    between atoms: O_4  and  C_19
REMARK    4  A    between atoms: O_8  and  C_24
REMARK    5  A    between atoms: C_11  and  C_13
REMARK                            x       y       z     vdW  Elec       q    Type
REMARK                         _______ _______ _______ _____ _____    ______ ____
ROOT
ATOM      1  O   UNL     1     105.301 124.398 147.382  0.00  0.00    +0.000 OA
ATOM      2  O   UNL     1     107.536 125.884 146.313  0.00  0.00    +0.000 OA
ATOM      3  O   UNL     1     106.292 125.786 145.590  0.00  0.00    +0.000 OA
ATOM      4  O   UNL     1     108.458 125.498 147.675  0.00  0.00    +0.000 OA
ATOM      5  C   UNL     1     106.406 125.132 146.855  0.00  0.00    +0.000 A 
ATOM      6  C   UNL     1     104.854 124.589 146.715  0.00  0.00    +0.000 A 
ATOM      7  C   UNL     1     106.076 124.669 147.452  0.00  0.00    +0.000 A 
ATOM      8  C   UNL     1     105.185 125.051 146.117  0.00  0.00    +0.000 A 
ATOM      9  C   UNL     1     105.961 125.323 146.187  0.00  0.00    +0.000 A 
ATOM     10  C   UNL     1     107.214 125.421 146.915  0.00  0.00    +0.000 A 
ATOM     11  C   UNL     1     106.530 124.463 148.153  0.00  0.00    +0.000 A 
ATOM     12  C   UNL     1     107.338 124.743 148.231  0.00  0.00    +0.000 A 
ATOM     13  C   UNL     1     107.683 125.225 147.608  0.00  0.00    +0.000 A 
ENDROOT
BRANCH   6  15
ATOM     14  O   UNL     1     102.964 122.756 145.603  0.00  0.00    +0.000 OA
ATOM     15  C   UNL     1     104.079 124.317 146.645  0.00  0.00    +0.000 A 
ATOM     16  C   UNL     1     103.472 124.691 147.061  0.00  0.00    +0.000 A 
ATOM     17  C   UNL     1     103.909 123.672 146.159  0.00  0.00    +0.000 A 
ATOM     18  C   UNL     1     102.696 124.419 146.991  0.00  0.00    +0.000 A 
ATOM     19  C   UNL     1     103.134 123.401 146.089  0.00  0.00    +0.000 A 
ATOM     20  C   UNL     1     102.527 123.774 146.505  0.00  0.00    +0.000 A 
BRANCH  16  21
ATOM     21  O   UNL     1     103.641 125.335 147.547  0.00  0.00    +0.000 OA
ATOM     22  C   UNL     1     103.043 125.681 147.996  0.00  0.00    +0.000 C 
ENDBRANCH  16  21
BRANCH  20  23
ATOM     23  O   UNL     1     101.750 123.503 146.436  0.00  0.00    +0.000 OA
ATOM     24  C   UNL     1     101.124 123.980 146.677  0.00  0.00    +0.000 C 
ENDBRANCH  20  23
ENDBRANCH   6  15
BRANCH   8  25
ATOM     25  O   UNL     1     104.740 125.243 145.450  0.00  0.00    +0.000 OA
ATOM     26  C   UNL     1     105.110 125.557 144.783  0.00  0.00    +0.000 C 
ENDBRANCH   8  25
BRANCH  12  27
ATOM     27  O   UNL     1     107.782 124.550 148.899  0.00  0.00    +0.000 OA
ATOM     28  C   UNL     1     107.401 124.380 149.612  0.00  0.00    +0.000 C 
ENDBRANCH  12  27
TORSDOF 5
ENDMDL
MODEL 2
REMARK VINA RESULT:      -7.7     11.550     13.471
REMARK  Name = 11361284
REMARK  5 active torsions:
REMARK  status: ('A' for Active; 'I' for Inactive)
REMARK    1  A    between atoms: O_2  and  C_14
REMARK    2  A    between atoms: O_3  and  C_18
REMARK    3  A    between atoms: O_4  and  C_19
REMARK    4  A    between atoms: O_8  and  C_24
REMARK    5  A    between atoms: C_11  and  C_13
REMARK                            x       y       z     vdW  Elec       q    Type
REMARK                         _______ _______ _______ _____ _____    ______ ____
ROOT
ATOM      1  O   UNL     1     113.305 127.319 136.211  0.00  0.00    +0.000 OA
ATOM      2  O   UNL     1     113.059 129.782 137.702  0.00  0.00    +0.000 OA
ATOM      3  O   UNL     1     112.386 128.581 138.132  0.00  0.00    +0.000 OA
ATOM      4  O   UNL     1     114.066 130.566 136.594  0.00  0.00    +0.000 OA
ATOM      5  C   UNL     1     113.184 128.537 136.947  0.00  0.00    +0.000 A 
ATOM      6  C   UNL     1     112.813 126.941 136.755  0.00  0.00    +0.000 A 
ATOM      7  C   UNL     1     113.490 128.117 136.307  0.00  0.00    +0.000 A 
ATOM      8  C   UNL     1     112.507 127.362 137.395  0.00  0.00    +0.000 A 
ATOM      9  C   UNL     1     112.692 128.160 137.492  0.00  0.00    +0.000 A 
ATOM     10  C   UNL     1     113.370 129.370 137.059  0.00  0.00    +0.000 A 
ATOM     11  C   UNL     1     114.004 128.499 135.733  0.00  0.00    +0.000 A 
ATOM     12  C   UNL     1     114.201 129.330 135.828  0.00  0.00    +0.000 A 
ATOM     13  C   UNL     1     113.882 129.768 136.496  0.00  0.00    +0.000 A 
ENDROOT
BRANCH   6  15
ATOM     14  O   UNL     1     110.987 124.908 135.919  0.00  0.00    +0.000 OA
ATOM     15  C   UNL     1     112.627 126.144 136.659  0.00  0.00    +0.000 A 
ATOM     16  C   UNL     1     113.169 125.564 136.885  0.00  0.00    +0.000 A 
ATOM     17  C   UNL     1     111.900 125.924 136.337  0.00  0.00    +0.000 A 
ATOM     18  C   UNL     1     112.984 124.765 136.789  0.00  0.00    +0.000 A 
ATOM     19  C   UNL     1     111.714 125.127 136.241  0.00  0.00    +0.000 A 
ATOM     20  C   UNL     1     112.256 124.547 136.467  0.00  0.00    +0.000 A 
BRANCH  16  21
ATOM     21  O   UNL     1     113.897 125.782 137.207  0.00  0.00    +0.000 OA
ATOM     22  C   UNL     1     114.464 125.208 137.370  0.00  0.00    +0.000 C 
ENDBRANCH  16  21
BRANCH  20  23
ATOM     23  O   UNL     1     112.071 123.749 136.371  0.00  0.00    +0.000 OA
ATOM     24  C   UNL     1     112.064 123.246 137.024  0.00  0.00    +0.000 C 
ENDBRANCH  20  23
ENDBRANCH   6  15
BRANCH   8  25
ATOM     25  O   UNL     1     112.015 126.985 137.940  0.00  0.00    +0.000 OA
ATOM     26  C   UNL     1     111.551 127.431 138.456  0.00  0.00    +0.000 C 
ENDBRANCH   8  25
BRANCH  12  27
ATOM     27  O   UNL     1     114.693 129.705 135.282  0.00  0.00    +0.000 OA
ATOM     28  C   UNL     1     114.951 129.299 134.612  0.00  0.00    +0.000 C 
ENDBRANCH  12  27
TORSDOF 5
ENDMDL
MODEL 3
REMARK VINA RESULT:      -7.7      1.006      4.607
REMARK  Name = 11361284
REMARK  5 active torsions:
REMARK  status: ('A' for Active; 'I' for Inactive)
REMARK    1  A    between atoms: O_2  and  C_14
REMARK    2  A    between atoms: O_3  and  C_18
REMARK    3  A    between atoms: O_4  and  C_19
REMARK    4  A    between atoms: O_8  and  C_24
REMARK    5  A    between atoms: C_11  and  C_13
REMARK                            x       y       z     vdW  Elec       q    Type
REMARK                         _______ _______ _______ _____ _____    ______ ____
ROOT
ATOM      1  O   UNL     1     104.805 124.045 146.754  0.00  0.00    +0.000 OA
ATOM      2  O   UNL     1     101.945 124.300 147.077  0.00  0.00    +0.000 OA
ATOM      3  O   UNL     1     102.857 124.876 148.035  0.00  0.00    +0.000 OA
ATOM      4  O   UNL     1     101.695 123.423 145.654  0.00  0.00    +0.000 OA
ATOM      5  C   UNL     1     103.391 124.170 146.913  0.00  0.00    +0.000 A 
ATOM      6  C   UNL     1     104.922 124.474 147.449  0.00  0.00    +0.000 A 
ATOM      7  C   UNL     1     104.041 123.893 146.486  0.00  0.00    +0.000 A 
ATOM      8  C   UNL     1     104.272 124.751 147.876  0.00  0.00    +0.000 A 
ATOM      9  C   UNL     1     103.506 124.599 147.608  0.00  0.00    +0.000 A 
ATOM     10  C   UNL     1     102.588 124.019 146.644  0.00  0.00    +0.000 A 
ATOM     11  C   UNL     1     103.933 123.445 145.760  0.00  0.00    +0.000 A 
ATOM     12  C   UNL     1     103.139 123.284 145.475  0.00  0.00    +0.000 A 
ATOM     13  C   UNL     1     102.462 123.573 145.920  0.00  0.00    +0.000 A 
ENDROOT
BRANCH   6  15
ATOM     14  O   UNL     1     107.049 123.956 149.287  0.00  0.00    +0.000 OA
ATOM     15  C   UNL     1     105.686 124.626 147.718  0.00  0.00    +0.000 A 
ATOM     16  C   UNL     1     106.153 125.188 147.336  0.00  0.00    +0.000 A 
ATOM     17  C   UNL     1     105.985 124.215 148.368  0.00  0.00    +0.000 A 
ATOM     18  C   UNL     1     106.919 125.341 147.605  0.00  0.00    +0.000 A 
ATOM     19  C   UNL     1     106.750 124.367 148.637  0.00  0.00    +0.000 A 
ATOM     20  C   UNL     1     107.217 124.930 148.255  0.00  0.00    +0.000 A 
BRANCH  16  21
ATOM     21  O   UNL     1     105.856 125.600 146.686  0.00  0.00    +0.000 OA
ATOM     22  C   UNL     1     106.321 126.163 146.305  0.00  0.00    +0.000 C 
ENDBRANCH  16  21
BRANCH  20  23
ATOM     23  O   UNL     1     107.982 125.082 148.523  0.00  0.00    +0.000 OA
ATOM     24  C   UNL     1     108.630 124.887 148.053  0.00  0.00    +0.000 C 
ENDBRANCH  20  23
ENDBRANCH   6  15
BRANCH   8  25
ATOM     25  O   UNL     1     104.388 125.179 148.572  0.00  0.00    +0.000 OA
ATOM     26  C   UNL     1     103.742 125.379 149.045  0.00  0.00    +0.000 C 
ENDBRANCH   8  25
BRANCH  12  27
ATOM     27  O   UNL     1     103.026 122.855 144.780  0.00  0.00    +0.000 OA
ATOM     28  C   UNL     1     103.655 122.740 144.259  0.00  0.00    +0.000 C 
ENDBRANCH  12  27
TORSDOF 5
ENDMDL
MODEL 4
REMARK VINA RESULT:      -7.7     11.570     13.082
REMARK  Name = 11361284
REMARK  5 active torsions:
REMARK  status: ('A' for Active; 'I' for Inactive)
REMARK    1  A    between atoms: O_2  and  C_14
REMARK    2  A    between atoms: O_3  and  C_18
REMARK    3  A    between atoms: O_4  and  C_19
REMARK    4  A    between atoms: O_8  and  C_24
REMARK    5  A    between atoms: C_11  and  C_13
REMARK                            x       y       z     vdW  Elec       q    Type
REMARK                         _______ _______ _______ _____ _____    ______ ____
ROOT
ATOM      1  O   UNL     1     112.395 126.642 136.540  0.00  0.00    +0.000 OA
ATOM      2  O   UNL     1     111.474 123.943 136.077  0.00  0.00    +0.000 OA
ATOM      3  O   UNL     1     110.695 125.079 135.650  0.00  0.00    +0.000 OA
ATOM      4  O   UNL     1     112.862 123.330 136.823  0.00  0.00    +0.000 OA
ATOM      5  C   UNL     1     111.941 125.307 136.312  0.00  0.00    +0.000 A 
ATOM      6  C   UNL     1     111.716 126.936 136.175  0.00  0.00    +0.000 A 
ATOM      7  C   UNL     1     112.508 125.828 136.609  0.00  0.00    +0.000 A 
ATOM      8  C   UNL     1     111.149 126.415 135.878  0.00  0.00    +0.000 A 
ATOM      9  C   UNL     1     111.262 125.600 135.947  0.00  0.00    +0.000 A 
ATOM     10  C   UNL     1     112.046 124.456 136.377  0.00  0.00    +0.000 A 
ATOM     11  C   UNL     1     113.219 125.535 136.991  0.00  0.00    +0.000 A 
ATOM     12  C   UNL     1     113.342 124.688 137.065  0.00  0.00    +0.000 A 
ATOM     13  C   UNL     1     112.751 124.145 136.756  0.00  0.00    +0.000 A 
ENDROOT
BRANCH   6  15
ATOM     14  O   UNL     1     111.819 129.327 134.613  0.00  0.00    +0.000 OA
ATOM     15  C   UNL     1     111.603 127.750 136.107  0.00  0.00    +0.000 A 
ATOM     16  C   UNL     1     111.326 128.183 136.752  0.00  0.00    +0.000 A 
ATOM     17  C   UNL     1     111.768 128.131 135.394  0.00  0.00    +0.000 A 
ATOM     18  C   UNL     1     111.213 128.998 136.684  0.00  0.00    +0.000 A 
ATOM     19  C   UNL     1     111.655 128.945 135.326  0.00  0.00    +0.000 A 
ATOM     20  C   UNL     1     111.378 129.379 135.970  0.00  0.00    +0.000 A 
BRANCH  16  21
ATOM     21  O   UNL     1     111.162 127.803 137.465  0.00  0.00    +0.000 OA
ATOM     22  C   UNL     1     110.980 128.246 138.136  0.00  0.00    +0.000 C 
ENDBRANCH  16  21
BRANCH  20  23
ATOM     23  O   UNL     1     111.265 130.194 135.902  0.00  0.00    +0.000 OA
ATOM     24  C   UNL     1     110.533 130.525 136.087  0.00  0.00    +0.000 C 
ENDBRANCH  20  23
ENDBRANCH   6  15
BRANCH   8  25
ATOM     25  O   UNL     1     110.470 126.708 135.513  0.00  0.00    +0.000 OA
ATOM     26  C   UNL     1     110.019 126.218 135.027  0.00  0.00    +0.000 C 
ENDBRANCH   8  25
BRANCH  12  27
ATOM     27  O   UNL     1     114.022 124.397 137.431  0.00  0.00    +0.000 OA
ATOM     28  C   UNL     1     114.667 124.896 137.558  0.00  0.00    +0.000 C 
ENDBRANCH  12  27
TORSDOF 5
ENDMDL
MODEL 5
REMARK VINA RESULT:      -7.6      1.766      2.374
REMARK  Name = 11361284
REMARK  5 active torsions:
REMARK  status: ('A' for Active; 'I' for Inactive)
REMARK    1  A    between atoms: O_2  and  C_14
REMARK    2  A    between atoms: O_3  and  C_18
REMARK    3  A    between atoms: O_4  and  C_19
REMARK    4  A    between atoms: O_8  and  C_24
REMARK    5  A    between atoms: C_11  and  C_13
REMARK                            x       y       z     vdW  Elec       q    Type
REMARK                         _______ _______ _______ _____ _____    ______ ____
ROOT
ATOM      1  O   UNL     1     104.052 125.347 146.847  0.00  0.00    +0.000 OA
ATOM      2  O   UNL     1     106.147 124.442 145.074  0.00  0.00    +0.000 OA
ATOM      3  O   UNL     1     105.044 123.581 145.424  0.00  0.00    +0.000 OA
ATOM      4  O   UNL     1     106.925 125.936 145.215  0.00  0.00    +0.000 OA
ATOM      5  C   UNL     1     105.088 124.901 145.971  0.00  0.00    +0.000 A 
ATOM      6  C   UNL     1     103.676 124.616 146.775  0.00  0.00    +0.000 A 
ATOM      7  C   UNL     1     104.757 125.490 146.445  0.00  0.00    +0.000 A 
ATOM      8  C   UNL     1     104.006 124.027 146.301  0.00  0.00    +0.000 A 
ATOM      9  C   UNL     1     104.713 124.170 145.898  0.00  0.00    +0.000 A 
ATOM     10  C   UNL     1     105.824 125.037 145.546  0.00  0.00    +0.000 A 
ATOM     11  C   UNL     1     105.139 126.255 146.528  0.00  0.00    +0.000 A 
ATOM     12  C   UNL     1     105.874 126.410 146.112  0.00  0.00    +0.000 A 
ATOM     13  C   UNL     1     106.219 125.796 145.618  0.00  0.00    +0.000 A 
ENDROOT
BRANCH   6  15
ATOM     14  O   UNL     1     100.836 124.295 146.753  0.00  0.00    +0.000 OA
ATOM     15  C   UNL     1     102.970 124.473 147.177  0.00  0.00    +0.000 A 
ATOM     16  C   UNL     1     102.978 124.348 147.992  0.00  0.00    +0.000 A 
ATOM     17  C   UNL     1     102.256 124.455 146.764  0.00  0.00    +0.000 A 
ATOM     18  C   UNL     1     102.271 124.205 148.395  0.00  0.00    +0.000 A 
ATOM     19  C   UNL     1     101.550 124.313 147.166  0.00  0.00    +0.000 A 
ATOM     20  C   UNL     1     101.558 124.188 147.981  0.00  0.00    +0.000 A 
BRANCH  16  21
ATOM     21  O   UNL     1     103.691 124.366 148.406  0.00  0.00    +0.000 OA
ATOM     22  C   UNL     1     103.690 124.366 149.230  0.00  0.00    +0.000 C 
ENDBRANCH  16  21
BRANCH  20  23
ATOM     23  O   UNL     1     100.851 124.045 148.384  0.00  0.00    +0.000 OA
ATOM     24  C   UNL     1     100.761 123.355 148.825  0.00  0.00    +0.000 C 
ENDBRANCH  20  23
ENDBRANCH   6  15
BRANCH   8  25
ATOM     25  O   UNL     1     103.631 123.296 146.228  0.00  0.00    +0.000 OA
ATOM     26  C   UNL     1     103.793 122.812 145.580  0.00  0.00    +0.000 C 
ENDBRANCH   8  25
BRANCH  12  27
ATOM     27  O   UNL     1     106.248 127.142 146.186  0.00  0.00    +0.000 OA
ATOM     28  C   UNL     1     105.918 127.726 146.666  0.00  0.00    +0.000 C 
ENDBRANCH  12  27
TORSDOF 5
ENDMDL
MODEL 6
REMARK VINA RESULT:      -7.6      8.975     10.836
REMARK  Name = 11361284
REMARK  5 active torsions:
REMARK  status: ('A' for Active; 'I' for Inactive)
REMARK    1  A    between atoms: O_2  and  C_14
REMARK    2  A    between atoms: O_3  and  C_18
REMARK    3  A    between atoms: O_4  and  C_19
REMARK    4  A    between atoms: O_8  and  C_24
REMARK    5  A    between atoms: C_11  and  C_13
REMARK                            x       y       z     vdW  Elec       q    Type
REMARK                         _______ _______ _______ _____ _____    ______ ____
ROOT
ATOM      1  O   UNL     1     111.538 131.784 145.256  0.00  0.00    +0.000 OA
ATOM      2  O   UNL     1     111.923 132.477 142.477  0.00  0.00    +0.000 OA
ATOM      3  O   UNL     1     111.872 133.495 143.498  0.00  0.00    +0.000 OA
ATOM      4  O   UNL     1     111.859 130.843 142.049  0.00  0.00    +0.000 OA
ATOM      5  C   UNL     1     111.728 132.125 143.882  0.00  0.00    +0.000 A 
ATOM      6  C   UNL     1     111.571 132.583 145.459  0.00  0.00    +0.000 A 
ATOM      7  C   UNL     1     111.617 131.555 144.468  0.00  0.00    +0.000 A 
ATOM      8  C   UNL     1     111.682 133.153 144.874  0.00  0.00    +0.000 A 
ATOM      9  C   UNL     1     111.761 132.924 144.084  0.00  0.00    +0.000 A 
ATOM     10  C   UNL     1     111.812 131.900 143.056  0.00  0.00    +0.000 A 
ATOM     11  C   UNL     1     111.582 130.720 144.269  0.00  0.00    +0.000 A 
ATOM     12  C   UNL     1     111.664 130.475 143.450  0.00  0.00    +0.000 A 
ATOM     13  C   UNL     1     111.779 131.070 142.839  0.00  0.00    +0.000 A 
ENDROOT
BRANCH   6  15
ATOM     14  O   UNL     1     110.005 133.722 147.561  0.00  0.00    +0.000 OA
ATOM     15  C   UNL     1     111.492 132.812 146.247  0.00  0.00    +0.000 A 
ATOM     16  C   UNL     1     112.117 132.701 146.774  0.00  0.00    +0.000 A 
ATOM     17  C   UNL     1     110.788 133.153 146.510  0.00  0.00    +0.000 A 
ATOM     18  C   UNL     1     112.038 132.930 147.563  0.00  0.00    +0.000 A 
ATOM     19  C   UNL     1     110.709 133.382 147.298  0.00  0.00    +0.000 A 
ATOM     20  C   UNL     1     111.334 133.270 147.825  0.00  0.00    +0.000 A 
BRANCH  16  21
ATOM     21  O   UNL     1     112.821 132.360 146.512  0.00  0.00    +0.000 OA
ATOM     22  C   UNL     1     113.429 132.207 147.047  0.00  0.00    +0.000 C 
ENDBRANCH  16  21
BRANCH  20  23
ATOM     23  O   UNL     1     111.255 133.499 148.614  0.00  0.00    +0.000 OA
ATOM     24  C   UNL     1     111.841 133.304 149.160  0.00  0.00    +0.000 C 
ENDBRANCH  20  23
ENDBRANCH   6  15
BRANCH   8  25
ATOM     25  O   UNL     1     111.714 133.952 145.076  0.00  0.00    +0.000 OA
ATOM     26  C   UNL     1     111.793 134.525 144.487  0.00  0.00    +0.000 C 
ENDBRANCH   8  25
BRANCH  12  27
ATOM     27  O   UNL     1     111.631 129.676 143.250  0.00  0.00    +0.000 OA
ATOM     28  C   UNL     1     111.641 129.102 143.842  0.00  0.00    +0.000 C 
ENDBRANCH  12  27
TORSDOF 5
ENDMDL
MODEL 7
REMARK VINA RESULT:      -7.6      6.427      8.207
REMARK  Name = 11361284
REMARK  5 active torsions:
REMARK  status: ('A' for Active; 'I' for Inactive)
REMARK    1  A    between atoms: O_2  and  C_14
REMARK    2  A    between atoms: O_3  and  C_18
REMARK    3  A    between atoms: O_4  and  C_19
REMARK    4  A    between atoms: O_8  and  C_24
REMARK    5  A    between atoms: C_11  and  C_13
REMARK                            x       y       z     vdW  Elec       q    Type
REMARK                         _______ _______ _______ _____ _____    ______ ____
ROOT
ATOM      1  O   UNL     1     103.602 130.057 142.163  0.00  0.00    +0.000 OA
ATOM      2  O   UNL     1     104.239 127.578 140.822  0.00  0.00    +0.000 OA
ATOM      3  O   UNL     1     103.338 128.536 140.229  0.00  0.00    +0.000 OA
ATOM      4  O   UNL     1     105.249 127.133 142.102  0.00  0.00    +0.000 OA
ATOM      5  C   UNL     1     103.918 128.832 141.501  0.00  0.00    +0.000 A 
ATOM      6  C   UNL     1     103.110 130.270 141.536  0.00  0.00    +0.000 A 
ATOM      7  C   UNL     1     104.005 129.339 142.146  0.00  0.00    +0.000 A 
ATOM      8  C   UNL     1     103.022 129.763 140.891  0.00  0.00    +0.000 A 
ATOM      9  C   UNL     1     103.426 129.043 140.874  0.00  0.00    +0.000 A 
ATOM     10  C   UNL     1     104.333 128.079 141.471  0.00  0.00    +0.000 A 
ATOM     11  C   UNL     1     104.515 129.129 142.806  0.00  0.00    +0.000 A 
ATOM     12  C   UNL     1     104.938 128.381 142.794  0.00  0.00    +0.000 A 
ATOM     13  C   UNL     1     104.846 127.853 142.122  0.00  0.00    +0.000 A 
ENDROOT
BRANCH   6  15
ATOM     14  O   UNL     1     100.712 131.752 142.007  0.00  0.00    +0.000 OA
ATOM     15  C   UNL     1     102.706 130.989 141.553  0.00  0.00    +0.000 A 
ATOM     16  C   UNL     1     103.098 131.686 141.352  0.00  0.00    +0.000 A 
ATOM     17  C   UNL     1     101.911 131.011 141.771  0.00  0.00    +0.000 A 
ATOM     18  C   UNL     1     102.694 132.406 141.369  0.00  0.00    +0.000 A 
ATOM     19  C   UNL     1     101.507 131.729 141.788  0.00  0.00    +0.000 A 
ATOM     20  C   UNL     1     101.899 132.427 141.587  0.00  0.00    +0.000 A 
BRANCH  16  21
ATOM     21  O   UNL     1     103.893 131.665 141.133  0.00  0.00    +0.000 OA
ATOM     22  C   UNL     1     104.284 132.362 140.933  0.00  0.00    +0.000 C 
ENDBRANCH  16  21
BRANCH  20  23
ATOM     23  O   UNL     1     101.495 133.147 141.604  0.00  0.00    +0.000 OA
ATOM     24  C   UNL     1     101.789 133.774 142.050  0.00  0.00    +0.000 C 
ENDBRANCH  20  23
ENDBRANCH   6  15
BRANCH   8  25
ATOM     25  O   UNL     1     102.530 129.974 140.263  0.00  0.00    +0.000 OA
ATOM     26  C   UNL     1     102.259 129.398 139.739  0.00  0.00    +0.000 C 
ENDBRANCH   8  25
BRANCH  12  27
ATOM     27  O   UNL     1     105.429 128.172 143.423  0.00  0.00    +0.000 OA
ATOM     28  C   UNL     1     105.449 128.637 144.104  0.00  0.00    +0.000 C 
ENDBRANCH  12  27
TORSDOF 5
ENDMDL
MODEL 8
REMARK VINA RESULT:      -7.6      1.089      2.498
REMARK  Name = 11361284
REMARK  5 active torsions:
REMARK  status: ('A' for Active; 'I' for Inactive)
REMARK    1  A    between atoms: O_2  and  C_14
REMARK    2  A    between atoms: O_3  and  C_18
REMARK    3  A    between atoms: O_4  and  C_19
REMARK    4  A    between atoms: O_8  and  C_24
REMARK    5  A    between atoms: C_11  and  C_13
REMARK                            x       y       z     vdW  Elec       q    Type
REMARK                         _______ _______ _______ _____ _____    ______ ____
ROOT
ATOM      1  O   UNL     1     104.443 125.086 146.452  0.00  0.00    +0.000 OA
ATOM      2  O   UNL     1     106.850 125.404 148.019  0.00  0.00    +0.000 OA
ATOM      3  O   UNL     1     105.664 124.813 148.588  0.00  0.00    +0.000 OA
ATOM      4  O   UNL     1     107.634 126.102 146.695  0.00  0.00    +0.000 OA
ATOM      5  C   UNL     1     105.634 125.244 147.226  0.00  0.00    +0.000 A 
ATOM      6  C   UNL     1     104.065 124.746 147.102  0.00  0.00    +0.000 A 
ATOM      7  C   UNL     1     105.227 125.335 146.514  0.00  0.00    +0.000 A 
ATOM      8  C   UNL     1     104.472 124.655 147.814  0.00  0.00    +0.000 A 
ATOM      9  C   UNL     1     105.257 124.904 147.876  0.00  0.00    +0.000 A 
ATOM     10  C   UNL     1     106.451 125.499 147.303  0.00  0.00    +0.000 A 
ATOM     11  C   UNL     1     105.609 125.688 145.829  0.00  0.00    +0.000 A 
ATOM     12  C   UNL     1     106.425 125.949 145.888  0.00  0.00    +0.000 A 
ATOM     13  C   UNL     1     106.849 125.854 146.630  0.00  0.00    +0.000 A 
ENDROOT
BRANCH   6  15
ATOM     14  O   UNL     1     101.294 125.126 147.689  0.00  0.00    +0.000 OA
ATOM     15  C   UNL     1     103.282 124.497 147.041  0.00  0.00    +0.000 A 
ATOM     16  C   UNL     1     103.099 123.809 146.624  0.00  0.00    +0.000 A 
ATOM     17  C   UNL     1     102.680 124.936 147.395  0.00  0.00    +0.000 A 
ATOM     18  C   UNL     1     102.314 123.560 146.562  0.00  0.00    +0.000 A 
ATOM     19  C   UNL     1     101.896 124.687 147.334  0.00  0.00    +0.000 A 
ATOM     20  C   UNL     1     101.713 123.999 146.917  0.00  0.00    +0.000 A 
BRANCH  16  21
ATOM     21  O   UNL     1     103.700 123.370 146.268  0.00  0.00    +0.000 OA
ATOM     22  C   UNL     1     103.512 122.739 145.772  0.00  0.00    +0.000 C 
ENDBRANCH  16  21
BRANCH  20  23
ATOM     23  O   UNL     1     100.929 123.750 146.855  0.00  0.00    +0.000 OA
ATOM     24  C   UNL     1     100.710 123.004 147.129  0.00  0.00    +0.000 C 
ENDBRANCH  20  23
ENDBRANCH   6  15
BRANCH   8  25
ATOM     25  O   UNL     1     104.095 124.315 148.464  0.00  0.00    +0.000 OA
ATOM     26  C   UNL     1     104.378 124.456 149.226  0.00  0.00    +0.000 C 
ENDBRANCH   8  25
BRANCH  12  27
ATOM     27  O   UNL     1     106.800 126.288 145.236  0.00  0.00    +0.000 OA
ATOM     28  C   UNL     1     106.396 126.366 144.521  0.00  0.00    +0.000 C 
ENDBRANCH  12  27
TORSDOF 5
ENDMDL
MODEL 9
REMARK VINA RESULT:      -7.5     12.471     13.813
REMARK  Name = 11361284
REMARK  5 active torsions:
REMARK  status: ('A' for Active; 'I' for Inactive)
REMARK    1  A    between atoms: O_2  and  C_14
REMARK    2  A    between atoms: O_3  and  C_18
REMARK    3  A    between atoms: O_4  and  C_19
REMARK    4  A    between atoms: O_8  and  C_24
REMARK    5  A    between atoms: C_11  and  C_13
REMARK                            x       y       z     vdW  Elec       q    Type
REMARK                         _______ _______ _______ _____ _____    ______ ____
ROOT
ATOM      1  O   UNL     1     113.116 126.927 136.488  0.00  0.00    +0.000 OA
ATOM      2  O   UNL     1     110.843 125.302 135.751  0.00  0.00    +0.000 OA
ATOM      3  O   UNL     1     110.837 126.729 135.543  0.00  0.00    +0.000 OA
ATOM      4  O   UNL     1     111.645 123.917 136.294  0.00  0.00    +0.000 OA
ATOM      5  C   UNL     1     111.993 126.123 136.124  0.00  0.00    +0.000 A 
ATOM      6  C   UNL     1     112.721 127.601 136.222  0.00  0.00    +0.000 A 
ATOM      7  C   UNL     1     112.753 126.189 136.439  0.00  0.00    +0.000 A 
ATOM      8  C   UNL     1     111.961 127.535 135.906  0.00  0.00    +0.000 A 
ATOM      9  C   UNL     1     111.597 126.795 135.858  0.00  0.00    +0.000 A 
ATOM     10  C   UNL     1     111.603 125.358 136.068  0.00  0.00    +0.000 A 
ATOM     11  C   UNL     1     113.176 125.495 136.721  0.00  0.00    +0.000 A 
ATOM     12  C   UNL     1     112.802 124.723 136.672  0.00  0.00    +0.000 A 
ATOM     13  C   UNL     1     112.010 124.654 136.344  0.00  0.00    +0.000 A 
ENDROOT
BRANCH   6  15
ATOM     14  O   UNL     1     114.127 129.754 134.976  0.00  0.00    +0.000 OA
ATOM     15  C   UNL     1     113.084 128.339 136.270  0.00  0.00    +0.000 A 
ATOM     16  C   UNL     1     113.107 128.741 136.990  0.00  0.00    +0.000 A 
ATOM     17  C   UNL     1     113.424 128.678 135.599  0.00  0.00    +0.000 A 
ATOM     18  C   UNL     1     113.471 129.481 137.039  0.00  0.00    +0.000 A 
ATOM     19  C   UNL     1     113.787 129.416 135.647  0.00  0.00    +0.000 A 
ATOM     20  C   UNL     1     113.810 129.818 136.367  0.00  0.00    +0.000 A 
BRANCH  16  21
ATOM     21  O   UNL     1     112.767 128.404 137.662  0.00  0.00    +0.000 OA
ATOM     22  C   UNL     1     112.864 128.763 138.398  0.00  0.00    +0.000 C 
ENDBRANCH  16  21
BRANCH  20  23
ATOM     23  O   UNL     1     114.174 130.557 136.416  0.00  0.00    +0.000 OA
ATOM     24  C   UNL     1     113.765 131.197 136.736  0.00  0.00    +0.000 C 
ENDBRANCH  20  23
ENDBRANCH   6  15
BRANCH   8  25
ATOM     25  O   UNL     1     111.565 128.207 135.640  0.00  0.00    +0.000 OA
ATOM     26  C   UNL     1     110.935 128.133 135.112  0.00  0.00    +0.000 C 
ENDBRANCH   8  25
BRANCH  12  27
ATOM     27  O   UNL     1     113.201 124.052 136.940  0.00  0.00    +0.000 OA
ATOM     28  C   UNL     1     113.962 124.120 137.250  0.00  0.00    +0.000 C 
ENDBRANCH  12  27
TORSDOF 5
ENDMDL
MODEL 10
REMARK VINA RESULT:      -7.4      9.793     11.588
REMARK  Name = 11361284
REMARK  5 active torsions:
REMARK  status: ('A' for Active; 'I' for Inactive)
REMARK    1  A    between atoms: O_2  and  C_14
REMARK    2  A    between atoms: O_3  and  C_18
REMARK    3  A    between atoms: O_4  and  C_19
REMARK    4  A    between atoms: O_8  and  C_24
REMARK    5  A    between atoms: C_11  and  C_13
REMARK                            x       y       z     vdW  Elec       q    Type
REMARK                         _______ _______ _______ _____ _____    ______ ____
ROOT
ATOM      1  O   UNL     1     111.741 126.267 138.566  0.00  0.00    +0.000 OA
ATOM      2  O   UNL     1     114.175 126.626 140.082  0.00  0.00    +0.000 OA
ATOM      3  O   UNL     1     114.213 126.233 138.694  0.00  0.00    +0.000 OA
ATOM      4  O   UNL     1     113.274 127.039 141.451  0.00  0.00    +0.000 OA
ATOM      5  C   UNL     1     112.944 126.445 139.316  0.00  0.00    +0.000 A 
ATOM      6  C   UNL     1     112.186 126.066 137.900  0.00  0.00    +0.000 A 
ATOM      7  C   UNL     1     112.120 126.456 139.273  0.00  0.00    +0.000 A 
ATOM      8  C   UNL     1     113.010 126.055 137.943  0.00  0.00    +0.000 A 
ATOM      9  C   UNL     1     113.389 126.245 138.651  0.00  0.00    +0.000 A 
ATOM     10  C   UNL     1     113.351 126.640 140.048  0.00  0.00    +0.000 A 
ATOM     11  C   UNL     1     111.645 126.663 139.960  0.00  0.00    +0.000 A 
ATOM     12  C   UNL     1     112.034 126.861 140.699  0.00  0.00    +0.000 A 
ATOM     13  C   UNL     1     112.893 126.850 140.744  0.00  0.00    +0.000 A 
ENDROOT
BRANCH   6  15
ATOM     14  O   UNL     1     111.277 124.110 136.025  0.00  0.00    +0.000 OA
ATOM     15  C   UNL     1     111.808 125.877 137.193  0.00  0.00    +0.000 A 
ATOM     16  C   UNL     1     111.504 126.477 136.714  0.00  0.00    +0.000 A 
ATOM     17  C   UNL     1     111.732 125.088 136.962  0.00  0.00    +0.000 A 
ATOM     18  C   UNL     1     111.125 126.288 136.005  0.00  0.00    +0.000 A 
ATOM     19  C   UNL     1     111.353 124.899 136.255  0.00  0.00    +0.000 A 
ATOM     20  C   UNL     1     111.050 125.499 135.776  0.00  0.00    +0.000 A 
BRANCH  16  21
ATOM     21  O   UNL     1     111.580 127.266 136.943  0.00  0.00    +0.000 OA
ATOM     22  C   UNL     1     111.283 127.865 136.461  0.00  0.00    +0.000 C 
ENDBRANCH  16  21
BRANCH  20  23
ATOM     23  O   UNL     1     110.671 125.310 135.067  0.00  0.00    +0.000 OA
ATOM     24  C   UNL     1     109.945 125.654 134.884  0.00  0.00    +0.000 C 
ENDBRANCH  20  23
ENDBRANCH   6  15
BRANCH   8  25
ATOM     25  O   UNL     1     113.455 125.855 137.278  0.00  0.00    +0.000 OA
ATOM     26  C   UNL     1     114.227 125.578 137.367  0.00  0.00    +0.000 C 
ENDBRANCH   8  25
BRANCH  12  27
ATOM     27  O   UNL     1     111.587 127.061 141.363  0.00  0.00    +0.000 OA
ATOM     28  C   UNL     1     110.768 126.957 141.355  0.00  0.00    +0.000 C 
ENDBRANCH  12  27
TORSDOF 5
ENDMDL
