MODEL 1
REMARK VINA RESULT:     -10.3      0.000      0.000
REMARK  Name = 44257737
REMARK  9 active torsions:
REMARK  status: ('A' for Active; 'I' for Inactive)
REMARK    1  A    between atoms: O_1  and  C_17
REMARK    2  A    between atoms: O_1  and  C_21
REMARK    3  A    between atoms: O_6  and  C_24
REMARK    4  A    between atoms: O_6  and  C_35
REMARK    5  A    between atoms: O_7  and  C_25
REMARK    6  A    between atoms: O_7  and  C_36
REMARK    7  A    between atoms: C_19  and  C_27
REMARK    8  A    between atoms: C_22  and  C_28
REMARK    9  A    between atoms: C_38  and  C_42
REMARK                            x       y       z     vdW  Elec       q    Type
REMARK                         _______ _______ _______ _____ _____    ______ ____
ROOT
ATOM      1  O   UNL     1     112.927 127.523 136.065  0.00  0.00    +0.000 OA
ATOM      2  O   UNL     1     113.294 128.499 138.309  0.00  0.00    +0.000 OA
ATOM      3  O   UNL     1     113.009 129.484 137.018  0.00  0.00    +0.000 OA
ATOM      4  C   UNL     1     113.191 127.355 137.459  0.00  0.00    +0.000 C 
ATOM      5  C   UNL     1     113.172 128.174 137.561  0.00  0.00    +0.000 C 
ATOM      6  C   UNL     1     113.069 127.030 136.711  0.00  0.00    +0.000 C 
ATOM      7  C   UNL     1     113.029 128.667 136.915  0.00  0.00    +0.000 C 
ATOM      8  C   UNL     1     112.907 128.340 136.167  0.00  0.00    +0.000 C 
ENDROOT
BRANCH   6  13
ATOM      9  O   UNL     1     111.656 126.232 136.382  0.00  0.00    +0.000 OA
ATOM     10  O   UNL     1     114.501 126.218 136.834  0.00  0.00    +0.000 OA
ATOM     11  O   UNL     1     113.151 123.756 136.300  0.00  0.00    +0.000 OA
ATOM     12  O   UNL     1     111.728 123.721 136.068  0.00  0.00    +0.000 OA
ATOM     13  C   UNL     1     113.089 126.211 136.608  0.00  0.00    +0.000 A 
ATOM     14  C   UNL     1     112.395 125.799 136.444  0.00  0.00    +0.000 A 
ATOM     15  C   UNL     1     113.805 125.806 136.670  0.00  0.00    +0.000 A 
ATOM     16  C   UNL     1     112.414 124.980 136.341  0.00  0.00    +0.000 A 
ATOM     17  C   UNL     1     113.826 124.987 136.567  0.00  0.00    +0.000 A 
ATOM     18  C   UNL     1     113.130 124.574 136.403  0.00  0.00    +0.000 A 
ATOM     19  C   UNL     1     111.697 124.539 136.169  0.00  0.00    +0.000 A 
ATOM     20  C   UNL     1     110.927 125.808 136.211  0.00  0.00    +0.000 A 
ATOM     21  C   UNL     1     110.949 124.956 136.104  0.00  0.00    +0.000 A 
BRANCH  20  23
ATOM     22  O   UNL     1     108.070 127.441 135.967  0.00  0.00    +0.000 OA
ATOM     23  C   UNL     1     110.213 126.216 136.150  0.00  0.00    +0.000 A 
ATOM     24  C   UNL     1     109.960 126.496 135.416  0.00  0.00    +0.000 A 
ATOM     25  C   UNL     1     109.753 126.344 136.822  0.00  0.00    +0.000 A 
ATOM     26  C   UNL     1     109.245 126.905 135.356  0.00  0.00    +0.000 A 
ATOM     27  C   UNL     1     109.039 126.752 136.762  0.00  0.00    +0.000 A 
ATOM     28  C   UNL     1     108.784 127.033 136.029  0.00  0.00    +0.000 A 
ENDBRANCH  20  23
ENDBRANCH   6  13
BRANCH   8  30
ATOM     29  O   UNL     1     113.211 128.750 134.832  0.00  0.00    +0.000 OA
ATOM     30  C   UNL     1     112.765 128.833 135.521  0.00  0.00    +0.000 C 
ENDBRANCH   8  30
BRANCH   4  31
ATOM     31  O   UNL     1     113.334 126.862 138.105  0.00  0.00    +0.000 OA
BRANCH  31  34
ATOM     32  O   UNL     1     112.148 127.241 138.807  0.00  0.00    +0.000 OA
ATOM     33  O   UNL     1     114.102 126.603 139.542  0.00  0.00    +0.000 OA
ATOM     34  C   UNL     1     112.933 126.987 138.816  0.00  0.00    +0.000 C 
ATOM     35  C   UNL     1     113.317 126.858 139.534  0.00  0.00    +0.000 C 
ATOM     36  C   UNL     1     112.917 126.983 140.244  0.00  0.00    +0.000 C 
ATOM     37  C   UNL     1     112.132 127.237 140.236  0.00  0.00    +0.000 C 
ATOM     38  C   UNL     1     111.748 127.366 139.518  0.00  0.00    +0.000 C 
ATOM     39  C   UNL     1     110.963 127.621 139.509  0.00  0.00    +0.000 C 
BRANCH  36  40
ATOM     40  O   UNL     1     113.301 126.853 140.962  0.00  0.00    +0.000 OA
BRANCH  40  42
ATOM     41  O   UNL     1     113.919 128.107 141.262  0.00  0.00    +0.000 OA
ATOM     42  C   UNL     1     113.975 127.291 141.155  0.00  0.00    +0.000 C 
ATOM     43  C   UNL     1     114.702 126.912 141.241  0.00  0.00    +0.000 C 
ENDBRANCH  40  42
ENDBRANCH  36  40
BRANCH  37  44
ATOM     44  O   UNL     1     111.732 127.362 140.946  0.00  0.00    +0.000 OA
BRANCH  44  46
ATOM     45  O   UNL     1     111.251 126.042 141.205  0.00  0.00    +0.000 OA
ATOM     46  C   UNL     1     111.120 126.856 141.170  0.00  0.00    +0.000 C 
ATOM     47  C   UNL     1     110.379 127.162 141.360  0.00  0.00    +0.000 C 
ENDBRANCH  44  46
ENDBRANCH  37  44
ENDBRANCH  31  34
ENDBRANCH   4  31
TORSDOF 9
ENDMDL
MODEL 2
REMARK VINA RESULT:     -10.3      2.168      3.933
REMARK  Name = 44257737
REMARK  9 active torsions:
REMARK  status: ('A' for Active; 'I' for Inactive)
REMARK    1  A    between atoms: O_1  and  C_17
REMARK    2  A    between atoms: O_1  and  C_21
REMARK    3  A    between atoms: O_6  and  C_24
REMARK    4  A    between atoms: O_6  and  C_35
REMARK    5  A    between atoms: O_7  and  C_25
REMARK    6  A    between atoms: O_7  and  C_36
REMARK    7  A    between atoms: C_19  and  C_27
REMARK    8  A    between atoms: C_22  and  C_28
REMARK    9  A    between atoms: C_38  and  C_42
REMARK                            x       y       z     vdW  Elec       q    Type
REMARK                         _______ _______ _______ _____ _____    ______ ____
ROOT
ATOM      1  O   UNL     1     113.257 128.889 135.187  0.00  0.00    +0.000 OA
ATOM      2  O   UNL     1     113.364 130.022 137.384  0.00  0.00    +0.000 OA
ATOM      3  O   UNL     1     114.619 130.160 136.323  0.00  0.00    +0.000 OA
ATOM      4  C   UNL     1     112.665 129.197 136.450  0.00  0.00    +0.000 C 
ATOM      5  C   UNL     1     113.328 129.645 136.652  0.00  0.00    +0.000 C 
ATOM      6  C   UNL     1     112.629 128.820 135.718  0.00  0.00    +0.000 C 
ATOM      7  C   UNL     1     113.956 129.714 136.122  0.00  0.00    +0.000 C 
ATOM      8  C   UNL     1     113.920 129.335 135.389  0.00  0.00    +0.000 C 
ENDROOT
BRANCH   6  13
ATOM      9  O   UNL     1     112.572 127.228 136.170  0.00  0.00    +0.000 OA
ATOM     10  O   UNL     1     111.392 129.516 134.878  0.00  0.00    +0.000 OA
ATOM     11  O   UNL     1     109.975 127.034 134.907  0.00  0.00    +0.000 OA
ATOM     12  O   UNL     1     110.532 125.865 135.544  0.00  0.00    +0.000 OA
ATOM     13  C   UNL     1     111.966 128.373 135.516  0.00  0.00    +0.000 A 
ATOM     14  C   UNL     1     111.921 127.579 135.733  0.00  0.00    +0.000 A 
ATOM     15  C   UNL     1     111.347 128.721 135.095  0.00  0.00    +0.000 A 
ATOM     16  C   UNL     1     111.258 127.131 135.531  0.00  0.00    +0.000 A 
ATOM     17  C   UNL     1     110.683 128.275 134.892  0.00  0.00    +0.000 A 
ATOM     18  C   UNL     1     110.639 127.479 135.110  0.00  0.00    +0.000 A 
ATOM     19  C   UNL     1     111.199 126.303 135.751  0.00  0.00    +0.000 A 
ATOM     20  C   UNL     1     112.532 126.400 136.400  0.00  0.00    +0.000 A 
ATOM     21  C   UNL     1     111.840 125.935 136.189  0.00  0.00    +0.000 A 
BRANCH  20  23
ATOM     22  O   UNL     1     115.012 125.019 138.082  0.00  0.00    +0.000 OA
ATOM     23  C   UNL     1     113.152 126.055 136.821  0.00  0.00    +0.000 A 
ATOM     24  C   UNL     1     113.787 125.718 136.416  0.00  0.00    +0.000 A 
ATOM     25  C   UNL     1     113.136 126.046 137.645  0.00  0.00    +0.000 A 
ATOM     26  C   UNL     1     114.407 125.373 136.837  0.00  0.00    +0.000 A 
ATOM     27  C   UNL     1     113.756 125.701 138.066  0.00  0.00    +0.000 A 
ATOM     28  C   UNL     1     114.392 125.364 137.662  0.00  0.00    +0.000 A 
ENDBRANCH  20  23
ENDBRANCH   6  13
BRANCH   8  30
ATOM     29  O   UNL     1     114.958 128.730 134.614  0.00  0.00    +0.000 OA
ATOM     30  C   UNL     1     114.548 129.404 134.858  0.00  0.00    +0.000 C 
ENDBRANCH   8  30
BRANCH   4  31
ATOM     31  O   UNL     1     112.037 129.128 136.981  0.00  0.00    +0.000 OA
BRANCH  31  34
ATOM     32  O   UNL     1     111.712 130.520 136.959  0.00  0.00    +0.000 OA
ATOM     33  O   UNL     1     111.503 129.029 138.539  0.00  0.00    +0.000 OA
ATOM     34  C   UNL     1     111.741 129.800 137.360  0.00  0.00    +0.000 C 
ATOM     35  C   UNL     1     111.474 129.750 138.139  0.00  0.00    +0.000 C 
ATOM     36  C   UNL     1     111.179 130.420 138.517  0.00  0.00    +0.000 C 
ATOM     37  C   UNL     1     111.149 131.141 138.117  0.00  0.00    +0.000 C 
ATOM     38  C   UNL     1     111.416 131.191 137.338  0.00  0.00    +0.000 C 
ATOM     39  C   UNL     1     111.388 131.911 136.937  0.00  0.00    +0.000 C 
BRANCH  36  40
ATOM     40  O   UNL     1     110.912 130.370 139.296  0.00  0.00    +0.000 OA
BRANCH  40  42
ATOM     41  O   UNL     1     112.091 130.700 140.032  0.00  0.00    +0.000 OA
ATOM     42  C   UNL     1     111.444 130.205 139.905  0.00  0.00    +0.000 C 
ATOM     43  C   UNL     1     111.329 129.544 140.385  0.00  0.00    +0.000 C 
ENDBRANCH  40  42
ENDBRANCH  36  40
BRANCH  37  44
ATOM     44  O   UNL     1     110.854 131.812 138.495  0.00  0.00    +0.000 OA
BRANCH  44  46
ATOM     45  O   UNL     1     109.454 131.727 138.221  0.00  0.00    +0.000 OA
ATOM     46  C   UNL     1     110.155 132.161 138.229  0.00  0.00    +0.000 C 
ATOM     47  C   UNL     1     110.157 132.945 137.973  0.00  0.00    +0.000 C 
ENDBRANCH  44  46
ENDBRANCH  37  44
ENDBRANCH  31  34
ENDBRANCH   4  31
TORSDOF 9
ENDMDL
MODEL 3
REMARK VINA RESULT:     -10.3      1.659      3.368
REMARK  Name = 44257737
REMARK  9 active torsions:
REMARK  status: ('A' for Active; 'I' for Inactive)
REMARK    1  A    between atoms: O_1  and  C_17
REMARK    2  A    between atoms: O_1  and  C_21
REMARK    3  A    between atoms: O_6  and  C_24
REMARK    4  A    between atoms: O_6  and  C_35
REMARK    5  A    between atoms: O_7  and  C_25
REMARK    6  A    between atoms: O_7  and  C_36
REMARK    7  A    between atoms: C_19  and  C_27
REMARK    8  A    between atoms: C_22  and  C_28
REMARK    9  A    between atoms: C_38  and  C_42
REMARK                            x       y       z     vdW  Elec       q    Type
REMARK                         _______ _______ _______ _____ _____    ______ ____
ROOT
ATOM      1  O   UNL     1     111.444 126.135 139.077  0.00  0.00    +0.000 OA
ATOM      2  O   UNL     1     111.282 128.546 139.610  0.00  0.00    +0.000 OA
ATOM      3  O   UNL     1     109.977 127.562 139.835  0.00  0.00    +0.000 OA
ATOM      4  C   UNL     1     112.042 127.430 139.142  0.00  0.00    +0.000 C 
ATOM      5  C   UNL     1     111.336 127.743 139.432  0.00  0.00    +0.000 C 
ATOM      6  C   UNL     1     112.096 126.627 138.964  0.00  0.00    +0.000 C 
ATOM      7  C   UNL     1     110.683 127.251 139.545  0.00  0.00    +0.000 C 
ATOM      8  C   UNL     1     110.738 126.447 139.367  0.00  0.00    +0.000 C 
ENDROOT
BRANCH   6  13
ATOM      9  O   UNL     1     112.156 126.118 137.389  0.00  0.00    +0.000 OA
ATOM     10  O   UNL     1     113.416 126.519 139.949  0.00  0.00    +0.000 OA
ATOM     11  O   UNL     1     114.923 125.378 137.806  0.00  0.00    +0.000 OA
ATOM     12  O   UNL     1     114.329 125.161 136.509  0.00  0.00    +0.000 OA
ATOM     13  C   UNL     1     112.803 126.315 138.674  0.00  0.00    +0.000 A 
ATOM     14  C   UNL     1     112.850 126.057 137.892  0.00  0.00    +0.000 A 
ATOM     15  C   UNL     1     113.462 126.261 139.166  0.00  0.00    +0.000 A 
ATOM     16  C   UNL     1     113.556 125.744 137.602  0.00  0.00    +0.000 A 
ATOM     17  C   UNL     1     114.169 125.949 138.877  0.00  0.00    +0.000 A 
ATOM     18  C   UNL     1     114.216 125.690 138.095  0.00  0.00    +0.000 A 
ATOM     19  C   UNL     1     113.618 125.472 136.789  0.00  0.00    +0.000 A 
ATOM     20  C   UNL     1     112.198 125.851 136.573  0.00  0.00    +0.000 A 
ATOM     21  C   UNL     1     112.934 125.525 136.272  0.00  0.00    +0.000 A 
BRANCH  20  23
ATOM     22  O   UNL     1     109.553 126.072 134.612  0.00  0.00    +0.000 OA
ATOM     23  C   UNL     1     111.537 125.906 136.083  0.00  0.00    +0.000 A 
ATOM     24  C   UNL     1     111.002 125.279 136.040  0.00  0.00    +0.000 A 
ATOM     25  C   UNL     1     111.411 126.588 135.637  0.00  0.00    +0.000 A 
ATOM     26  C   UNL     1     110.341 125.335 135.549  0.00  0.00    +0.000 A 
ATOM     27  C   UNL     1     110.750 126.644 135.147  0.00  0.00    +0.000 A 
ATOM     28  C   UNL     1     110.215 126.017 135.102  0.00  0.00    +0.000 A 
ENDBRANCH  20  23
ENDBRANCH   6  13
BRANCH   8  30
ATOM     29  O   UNL     1     110.181 125.218 139.840  0.00  0.00    +0.000 OA
ATOM     30  C   UNL     1     110.085 125.955 139.479  0.00  0.00    +0.000 C 
ENDBRANCH   8  30
BRANCH   4  31
ATOM     31  O   UNL     1     112.695 127.923 139.029  0.00  0.00    +0.000 OA
BRANCH  31  34
ATOM     32  O   UNL     1     112.085 128.737 138.026  0.00  0.00    +0.000 OA
ATOM     33  O   UNL     1     113.534 129.231 139.582  0.00  0.00    +0.000 OA
ATOM     34  C   UNL     1     112.600 128.658 138.666  0.00  0.00    +0.000 C 
ATOM     35  C   UNL     1     113.019 129.312 138.942  0.00  0.00    +0.000 C 
ATOM     36  C   UNL     1     112.924 130.046 138.578  0.00  0.00    +0.000 C 
ATOM     37  C   UNL     1     112.410 130.127 137.939  0.00  0.00    +0.000 C 
ATOM     38  C   UNL     1     111.990 129.472 137.662  0.00  0.00    +0.000 C 
ATOM     39  C   UNL     1     111.475 129.552 137.023  0.00  0.00    +0.000 C 
BRANCH  36  40
ATOM     40  O   UNL     1     113.344 130.700 138.855  0.00  0.00    +0.000 OA
BRANCH  40  42
ATOM     41  O   UNL     1     114.565 130.639 138.114  0.00  0.00    +0.000 OA
ATOM     42  C   UNL     1     114.170 130.699 138.836  0.00  0.00    +0.000 C 
ATOM     43  C   UNL     1     114.599 130.758 139.538  0.00  0.00    +0.000 C 
ENDBRANCH  40  42
ENDBRANCH  36  40
BRANCH  37  44
ATOM     44  O   UNL     1     112.315 130.860 137.575  0.00  0.00    +0.000 OA
BRANCH  44  46
ATOM     45  O   UNL     1     111.298 131.441 138.393  0.00  0.00    +0.000 OA
ATOM     46  C   UNL     1     111.600 131.267 137.646  0.00  0.00    +0.000 C 
ATOM     47  C   UNL     1     111.189 131.500 136.970  0.00  0.00    +0.000 C 
ENDBRANCH  44  46
ENDBRANCH  37  44
ENDBRANCH  31  34
ENDBRANCH   4  31
TORSDOF 9
ENDMDL
MODEL 4
REMARK VINA RESULT:     -10.3      1.130      2.555
REMARK  Name = 44257737
REMARK  9 active torsions:
REMARK  status: ('A' for Active; 'I' for Inactive)
REMARK    1  A    between atoms: O_1  and  C_17
REMARK    2  A    between atoms: O_1  and  C_21
REMARK    3  A    between atoms: O_6  and  C_24
REMARK    4  A    between atoms: O_6  and  C_35
REMARK    5  A    between atoms: O_7  and  C_25
REMARK    6  A    between atoms: O_7  and  C_36
REMARK    7  A    between atoms: C_19  and  C_27
REMARK    8  A    between atoms: C_22  and  C_28
REMARK    9  A    between atoms: C_38  and  C_42
REMARK                            x       y       z     vdW  Elec       q    Type
REMARK                         _______ _______ _______ _____ _____    ______ ____
ROOT
ATOM      1  O   UNL     1     111.983 126.027 136.105  0.00  0.00    +0.000 OA
ATOM      2  O   UNL     1     111.996 125.338 138.481  0.00  0.00    +0.000 OA
ATOM      3  O   UNL     1     111.045 124.539 137.397  0.00  0.00    +0.000 OA
ATOM      4  C   UNL     1     112.463 126.197 137.439  0.00  0.00    +0.000 C 
ATOM      5  C   UNL     1     111.992 125.568 137.690  0.00  0.00    +0.000 C 
ATOM      6  C   UNL     1     112.458 126.427 136.647  0.00  0.00    +0.000 C 
ATOM      7  C   UNL     1     111.516 125.168 137.147  0.00  0.00    +0.000 C 
ATOM      8  C   UNL     1     111.512 125.398 136.355  0.00  0.00    +0.000 C 
ENDROOT
BRANCH   6  13
ATOM      9  O   UNL     1     111.726 127.843 136.201  0.00  0.00    +0.000 OA
ATOM     10  O   UNL     1     114.099 126.259 136.598  0.00  0.00    +0.000 OA
ATOM     11  O   UNL     1     114.345 128.942 135.646  0.00  0.00    +0.000 OA
ATOM     12  O   UNL     1     113.181 129.768 135.434  0.00  0.00    +0.000 OA
ATOM     13  C   UNL     1     112.930 127.056 136.397  0.00  0.00    +0.000 A 
ATOM     14  C   UNL     1     112.581 127.768 136.171  0.00  0.00    +0.000 A 
ATOM     15  C   UNL     1     113.750 126.972 136.372  0.00  0.00    +0.000 A 
ATOM     16  C   UNL     1     113.053 128.398 135.921  0.00  0.00    +0.000 A 
ATOM     17  C   UNL     1     114.222 127.600 136.122  0.00  0.00    +0.000 A 
ATOM     18  C   UNL     1     113.873 128.314 135.896  0.00  0.00    +0.000 A 
ATOM     19  C   UNL     1     112.702 129.145 135.683  0.00  0.00    +0.000 A 
ATOM     20  C   UNL     1     111.356 128.583 135.967  0.00  0.00    +0.000 A 
ATOM     21  C   UNL     1     111.848 129.238 135.706  0.00  0.00    +0.000 A 
BRANCH  20  23
ATOM     22  O   UNL     1     108.074 128.908 136.070  0.00  0.00    +0.000 OA
ATOM     23  C   UNL     1     110.536 128.665 135.993  0.00  0.00    +0.000 A 
ATOM     24  C   UNL     1     110.080 128.450 135.339  0.00  0.00    +0.000 A 
ATOM     25  C   UNL     1     110.172 128.960 136.671  0.00  0.00    +0.000 A 
ATOM     26  C   UNL     1     109.259 128.532 135.366  0.00  0.00    +0.000 A 
ATOM     27  C   UNL     1     109.352 129.041 136.698  0.00  0.00    +0.000 A 
ATOM     28  C   UNL     1     108.895 128.827 136.045  0.00  0.00    +0.000 A 
ENDBRANCH  20  23
ENDBRANCH   6  13
BRANCH   8  30
ATOM     29  O   UNL     1     111.033 125.227 135.019  0.00  0.00    +0.000 OA
ATOM     30  C   UNL     1     111.036 124.998 135.812  0.00  0.00    +0.000 C 
ENDBRANCH   8  30
BRANCH   4  31
ATOM     31  O   UNL     1     112.939 126.597 137.982  0.00  0.00    +0.000 OA
BRANCH  31  34
ATOM     32  O   UNL     1     111.859 127.079 138.784  0.00  0.00    +0.000 OA
ATOM     33  O   UNL     1     113.885 126.475 139.328  0.00  0.00    +0.000 OA
ATOM     34  C   UNL     1     112.636 126.808 138.720  0.00  0.00    +0.000 C 
ATOM     35  C   UNL     1     113.109 126.747 139.393  0.00  0.00    +0.000 C 
ATOM     36  C   UNL     1     112.806 126.958 140.130  0.00  0.00    +0.000 C 
ATOM     37  C   UNL     1     112.029 127.229 140.196  0.00  0.00    +0.000 C 
ATOM     38  C   UNL     1     111.556 127.290 139.523  0.00  0.00    +0.000 C 
ATOM     39  C   UNL     1     110.780 127.561 139.587  0.00  0.00    +0.000 C 
BRANCH  36  40
ATOM     40  O   UNL     1     113.279 126.897 140.803  0.00  0.00    +0.000 OA
BRANCH  40  42
ATOM     41  O   UNL     1     113.907 128.180 140.828  0.00  0.00    +0.000 OA
ATOM     42  C   UNL     1     113.960 127.359 140.872  0.00  0.00    +0.000 C 
ATOM     43  C   UNL     1     114.694 126.998 140.985  0.00  0.00    +0.000 C 
ENDBRANCH  40  42
ENDBRANCH  36  40
BRANCH  37  44
ATOM     44  O   UNL     1     111.726 127.440 140.933  0.00  0.00    +0.000 OA
BRANCH  44  46
ATOM     45  O   UNL     1     111.235 126.173 141.373  0.00  0.00    +0.000 OA
ATOM     46  C   UNL     1     111.131 126.986 141.280  0.00  0.00    +0.000 C 
ATOM     47  C   UNL     1     110.434 127.344 141.534  0.00  0.00    +0.000 C 
ENDBRANCH  44  46
ENDBRANCH  37  44
ENDBRANCH  31  34
ENDBRANCH   4  31
TORSDOF 9
ENDMDL
MODEL 5
REMARK VINA RESULT:     -10.2      2.128      3.751
REMARK  Name = 44257737
REMARK  9 active torsions:
REMARK  status: ('A' for Active; 'I' for Inactive)
REMARK    1  A    between atoms: O_1  and  C_17
REMARK    2  A    between atoms: O_1  and  C_21
REMARK    3  A    between atoms: O_6  and  C_24
REMARK    4  A    between atoms: O_6  and  C_35
REMARK    5  A    between atoms: O_7  and  C_25
REMARK    6  A    between atoms: O_7  and  C_36
REMARK    7  A    between atoms: C_19  and  C_27
REMARK    8  A    between atoms: C_22  and  C_28
REMARK    9  A    between atoms: C_38  and  C_42
REMARK                            x       y       z     vdW  Elec       q    Type
REMARK                         _______ _______ _______ _____ _____    ______ ____
ROOT
ATOM      1  O   UNL     1     111.828 130.492 136.678  0.00  0.00    +0.000 OA
ATOM      2  O   UNL     1     111.965 130.759 139.134  0.00  0.00    +0.000 OA
ATOM      3  O   UNL     1     110.499 130.807 138.380  0.00  0.00    +0.000 OA
ATOM      4  C   UNL     1     112.607 130.557 137.873  0.00  0.00    +0.000 C 
ATOM      5  C   UNL     1     111.920 130.670 138.316  0.00  0.00    +0.000 C 
ATOM      6  C   UNL     1     112.561 130.469 137.055  0.00  0.00    +0.000 C 
ATOM      7  C   UNL     1     111.186 130.694 137.939  0.00  0.00    +0.000 C 
ATOM      8  C   UNL     1     111.141 130.605 137.120  0.00  0.00    +0.000 C 
ENDROOT
BRANCH   6  13
ATOM      9  O   UNL     1     112.870 128.966 136.429  0.00  0.00    +0.000 OA
ATOM     10  O   UNL     1     113.597 131.728 136.807  0.00  0.00    +0.000 OA
ATOM     11  O   UNL     1     115.310 130.020 135.285  0.00  0.00    +0.000 OA
ATOM     12  O   UNL     1     114.981 128.631 135.073  0.00  0.00    +0.000 OA
ATOM     13  C   UNL     1     113.248 130.356 136.612  0.00  0.00    +0.000 A 
ATOM     14  C   UNL     1     113.417 129.615 136.294  0.00  0.00    +0.000 A 
ATOM     15  C   UNL     1     113.766 130.986 136.488  0.00  0.00    +0.000 A 
ATOM     16  C   UNL     1     114.105 129.502 135.851  0.00  0.00    +0.000 A 
ATOM     17  C   UNL     1     114.454 130.874 136.046  0.00  0.00    +0.000 A 
ATOM     18  C   UNL     1     114.623 130.132 135.727  0.00  0.00    +0.000 A 
ATOM     19  C   UNL     1     114.292 128.734 135.514  0.00  0.00    +0.000 A 
ATOM     20  C   UNL     1     113.040 128.191 136.100  0.00  0.00    +0.000 A 
ATOM     21  C   UNL     1     113.756 128.074 135.639  0.00  0.00    +0.000 A 
BRANCH  20  23
ATOM     22  O   UNL     1     110.961 125.678 136.602  0.00  0.00    +0.000 OA
ATOM     23  C   UNL     1     112.520 127.563 136.225  0.00  0.00    +0.000 A 
ATOM     24  C   UNL     1     111.823 127.511 135.787  0.00  0.00    +0.000 A 
ATOM     25  C   UNL     1     112.698 126.987 136.789  0.00  0.00    +0.000 A 
ATOM     26  C   UNL     1     111.303 126.882 135.913  0.00  0.00    +0.000 A 
ATOM     27  C   UNL     1     112.178 126.359 136.915  0.00  0.00    +0.000 A 
ATOM     28  C   UNL     1     111.481 126.306 136.477  0.00  0.00    +0.000 A 
ENDBRANCH  20  23
ENDBRANCH   6  13
BRANCH   8  30
ATOM     29  O   UNL     1     110.337 130.977 135.997  0.00  0.00    +0.000 OA
ATOM     30  C   UNL     1     110.407 130.629 136.743  0.00  0.00    +0.000 C 
ENDBRANCH   8  30
BRANCH   4  31
ATOM     31  O   UNL     1     113.340 130.533 138.250  0.00  0.00    +0.000 OA
BRANCH  31  34
ATOM     32  O   UNL     1     112.985 129.395 139.038  0.00  0.00    +0.000 OA
ATOM     33  O   UNL     1     114.453 130.972 139.386  0.00  0.00    +0.000 OA
ATOM     34  C   UNL     1     113.441 130.074 138.928  0.00  0.00    +0.000 C 
ATOM     35  C   UNL     1     113.998 130.293 139.497  0.00  0.00    +0.000 C 
ATOM     36  C   UNL     1     114.098 129.834 140.174  0.00  0.00    +0.000 C 
ATOM     37  C   UNL     1     113.642 129.155 140.284  0.00  0.00    +0.000 C 
ATOM     38  C   UNL     1     113.086 128.936 139.716  0.00  0.00    +0.000 C 
ATOM     39  C   UNL     1     112.630 128.257 139.825  0.00  0.00    +0.000 C 
BRANCH  36  40
ATOM     40  O   UNL     1     114.654 130.054 140.742  0.00  0.00    +0.000 OA
BRANCH  40  42
ATOM     41  O   UNL     1     113.933 131.002 141.531  0.00  0.00    +0.000 OA
ATOM     42  C   UNL     1     114.607 130.795 141.102  0.00  0.00    +0.000 C 
ATOM     43  C   UNL     1     115.232 131.329 141.032  0.00  0.00    +0.000 C 
ENDBRANCH  40  42
ENDBRANCH  36  40
BRANCH  37  44
ATOM     44  O   UNL     1     113.743 128.696 140.961  0.00  0.00    +0.000 OA
BRANCH  44  46
ATOM     45  O   UNL     1     114.829 127.821 140.652  0.00  0.00    +0.000 OA
ATOM     46  C   UNL     1     114.051 127.933 140.902  0.00  0.00    +0.000 C 
ATOM     47  C   UNL     1     113.581 127.282 141.090  0.00  0.00    +0.000 C 
ENDBRANCH  44  46
ENDBRANCH  37  44
ENDBRANCH  31  34
ENDBRANCH   4  31
TORSDOF 9
ENDMDL
MODEL 6
REMARK VINA RESULT:     -10.1      1.385      3.378
REMARK  Name = 44257737
REMARK  9 active torsions:
REMARK  status: ('A' for Active; 'I' for Inactive)
REMARK    1  A    between atoms: O_1  and  C_17
REMARK    2  A    between atoms: O_1  and  C_21
REMARK    3  A    between atoms: O_6  and  C_24
REMARK    4  A    between atoms: O_6  and  C_35
REMARK    5  A    between atoms: O_7  and  C_25
REMARK    6  A    between atoms: O_7  and  C_36
REMARK    7  A    between atoms: C_19  and  C_27
REMARK    8  A    between atoms: C_22  and  C_28
REMARK    9  A    between atoms: C_38  and  C_42
REMARK                            x       y       z     vdW  Elec       q    Type
REMARK                         _______ _______ _______ _____ _____    ______ ____
ROOT
ATOM      1  O   UNL     1     113.281 125.679 136.377  0.00  0.00    +0.000 OA
ATOM      2  O   UNL     1     113.045 125.497 138.833  0.00  0.00    +0.000 OA
ATOM      3  O   UNL     1     114.530 125.340 138.134  0.00  0.00    +0.000 OA
ATOM      4  C   UNL     1     112.459 125.697 137.545  0.00  0.00    +0.000 C 
ATOM      5  C   UNL     1     113.123 125.558 138.015  0.00  0.00    +0.000 C 
ATOM      6  C   UNL     1     112.538 125.757 136.726  0.00  0.00    +0.000 C 
ATOM      7  C   UNL     1     113.866 125.479 137.665  0.00  0.00    +0.000 C 
ATOM      8  C   UNL     1     113.944 125.540 136.845  0.00  0.00    +0.000 C 
ENDROOT
BRANCH   6  13
ATOM      9  O   UNL     1     112.337 127.256 136.052  0.00  0.00    +0.000 OA
ATOM     10  O   UNL     1     111.440 124.552 136.475  0.00  0.00    +0.000 OA
ATOM     11  O   UNL     1     109.881 126.311 134.848  0.00  0.00    +0.000 OA
ATOM     12  O   UNL     1     110.296 127.672 134.612  0.00  0.00    +0.000 OA
ATOM     13  C   UNL     1     111.874 125.896 136.257  0.00  0.00    +0.000 A 
ATOM     14  C   UNL     1     111.759 126.637 135.913  0.00  0.00    +0.000 A 
ATOM     15  C   UNL     1     111.325 125.293 136.131  0.00  0.00    +0.000 A 
ATOM     16  C   UNL     1     111.095 126.776 135.443  0.00  0.00    +0.000 A 
ATOM     17  C   UNL     1     110.661 125.431 135.661  0.00  0.00    +0.000 A 
ATOM     18  C   UNL     1     110.546 126.173 135.318  0.00  0.00    +0.000 A 
ATOM     19  C   UNL     1     110.963 127.543 135.080  0.00  0.00    +0.000 A 
ATOM     20  C   UNL     1     112.223 128.031 135.697  0.00  0.00    +0.000 A 
ATOM     21  C   UNL     1     111.531 128.175 135.208  0.00  0.00    +0.000 A 
BRANCH  20  23
ATOM     22  O   UNL     1     114.426 130.435 136.207  0.00  0.00    +0.000 OA
ATOM     23  C   UNL     1     112.774 128.632 135.824  0.00  0.00    +0.000 A 
ATOM     24  C   UNL     1     112.609 129.235 136.363  0.00  0.00    +0.000 A 
ATOM     25  C   UNL     1     113.489 128.629 135.413  0.00  0.00    +0.000 A 
ATOM     26  C   UNL     1     113.160 129.836 136.490  0.00  0.00    +0.000 A 
ATOM     27  C   UNL     1     114.040 129.230 135.540  0.00  0.00    +0.000 A 
ATOM     28  C   UNL     1     113.876 129.834 136.079  0.00  0.00    +0.000 A 
ENDBRANCH  20  23
ENDBRANCH   6  13
BRANCH   8  30
ATOM     29  O   UNL     1     114.776 125.009 135.810  0.00  0.00    +0.000 OA
ATOM     30  C   UNL     1     114.687 125.462 136.495  0.00  0.00    +0.000 C 
ENDBRANCH   8  30
BRANCH   4  31
ATOM     31  O   UNL     1     111.716 125.775 137.895  0.00  0.00    +0.000 OA
BRANCH  31  34
ATOM     32  O   UNL     1     112.050 126.935 138.660  0.00  0.00    +0.000 OA
ATOM     33  O   UNL     1     110.694 125.279 139.091  0.00  0.00    +0.000 OA
ATOM     34  C   UNL     1     111.627 126.231 138.577  0.00  0.00    +0.000 C 
ATOM     35  C   UNL     1     111.116 125.983 139.176  0.00  0.00    +0.000 C 
ATOM     36  C   UNL     1     111.028 126.439 139.857  0.00  0.00    +0.000 C 
ATOM     37  C   UNL     1     111.450 127.143 139.941  0.00  0.00    +0.000 C 
ATOM     38  C   UNL     1     111.961 127.391 139.343  0.00  0.00    +0.000 C 
ATOM     39  C   UNL     1     112.383 128.094 139.426  0.00  0.00    +0.000 C 
BRANCH  36  40
ATOM     40  O   UNL     1     110.517 126.191 140.455  0.00  0.00    +0.000 OA
BRANCH  40  42
ATOM     41  O   UNL     1     109.319 126.808 139.980  0.00  0.00    +0.000 OA
ATOM     42  C   UNL     1     109.703 126.161 140.317  0.00  0.00    +0.000 C 
ATOM     43  C   UNL     1     109.275 125.485 140.518  0.00  0.00    +0.000 C 
ENDBRANCH  40  42
ENDBRANCH  36  40
BRANCH  37  44
ATOM     44  O   UNL     1     111.361 127.598 140.622  0.00  0.00    +0.000 OA
BRANCH  44  46
ATOM     45  O   UNL     1     112.382 127.021 141.438  0.00  0.00    +0.000 OA
ATOM     46  C   UNL     1     111.993 127.687 141.146  0.00  0.00    +0.000 C 
ATOM     47  C   UNL     1     112.236 128.440 141.376  0.00  0.00    +0.000 C 
ENDBRANCH  44  46
ENDBRANCH  37  44
ENDBRANCH  31  34
ENDBRANCH   4  31
TORSDOF 9
ENDMDL
MODEL 7
REMARK VINA RESULT:     -10.0      1.801      4.345
REMARK  Name = 44257737
REMARK  9 active torsions:
REMARK  status: ('A' for Active; 'I' for Inactive)
REMARK    1  A    between atoms: O_1  and  C_17
REMARK    2  A    between atoms: O_1  and  C_21
REMARK    3  A    between atoms: O_6  and  C_24
REMARK    4  A    between atoms: O_6  and  C_35
REMARK    5  A    between atoms: O_7  and  C_25
REMARK    6  A    between atoms: O_7  and  C_36
REMARK    7  A    between atoms: C_19  and  C_27
REMARK    8  A    between atoms: C_22  and  C_28
REMARK    9  A    between atoms: C_38  and  C_42
REMARK                            x       y       z     vdW  Elec       q    Type
REMARK                         _______ _______ _______ _____ _____    ______ ____
ROOT
ATOM      1  O   UNL     1     110.640 126.737 138.817  0.00  0.00    +0.000 OA
ATOM      2  O   UNL     1     112.188 128.667 138.884  0.00  0.00    +0.000 OA
ATOM      3  O   UNL     1     111.879 127.810 140.258  0.00  0.00    +0.000 OA
ATOM      4  C   UNL     1     111.310 127.809 138.151  0.00  0.00    +0.000 C 
ATOM      5  C   UNL     1     111.672 128.024 138.861  0.00  0.00    +0.000 C 
ATOM      6  C   UNL     1     110.795 127.166 138.129  0.00  0.00    +0.000 C 
ATOM      7  C   UNL     1     111.518 127.595 139.549  0.00  0.00    +0.000 C 
ATOM      8  C   UNL     1     111.002 126.952 139.526  0.00  0.00    +0.000 C 
ENDROOT
BRANCH   6  13
ATOM      9  O   UNL     1     111.601 126.152 137.097  0.00  0.00    +0.000 OA
ATOM     10  O   UNL     1     109.294 127.746 137.761  0.00  0.00    +0.000 OA
ATOM     11  O   UNL     1     109.345 126.308 135.291  0.00  0.00    +0.000 OA
ATOM     12  O   UNL     1     110.481 125.499 134.922  0.00  0.00    +0.000 OA
ATOM     13  C   UNL     1     110.433 126.951 137.419  0.00  0.00    +0.000 A 
ATOM     14  C   UNL     1     110.820 126.447 136.894  0.00  0.00    +0.000 A 
ATOM     15  C   UNL     1     109.682 127.241 137.235  0.00  0.00    +0.000 A 
ATOM     16  C   UNL     1     110.458 126.233 136.185  0.00  0.00    +0.000 A 
ATOM     17  C   UNL     1     109.320 127.027 136.526  0.00  0.00    +0.000 A 
ATOM     18  C   UNL     1     109.708 126.522 136.001  0.00  0.00    +0.000 A 
ATOM     19  C   UNL     1     110.851 125.708 135.629  0.00  0.00    +0.000 A 
ATOM     20  C   UNL     1     112.010 125.626 136.554  0.00  0.00    +0.000 A 
ATOM     21  C   UNL     1     111.632 125.403 135.815  0.00  0.00    +0.000 A 
BRANCH  20  23
ATOM     22  O   UNL     1     115.010 124.472 137.301  0.00  0.00    +0.000 OA
ATOM     23  C   UNL     1     112.760 125.338 136.741  0.00  0.00    +0.000 A 
ATOM     24  C   UNL     1     113.432 125.769 136.531  0.00  0.00    +0.000 A 
ATOM     25  C   UNL     1     112.838 124.619 137.137  0.00  0.00    +0.000 A 
ATOM     26  C   UNL     1     114.181 125.479 136.718  0.00  0.00    +0.000 A 
ATOM     27  C   UNL     1     113.588 124.330 137.324  0.00  0.00    +0.000 A 
ATOM     28  C   UNL     1     114.260 124.760 137.115  0.00  0.00    +0.000 A 
ENDBRANCH  20  23
ENDBRANCH   6  13
BRANCH   8  30
ATOM     29  O   UNL     1     110.634 125.727 140.164  0.00  0.00    +0.000 OA
ATOM     30  C   UNL     1     110.848 126.523 140.213  0.00  0.00    +0.000 C 
ENDBRANCH   8  30
BRANCH   4  31
ATOM     31  O   UNL     1     111.464 128.238 137.464  0.00  0.00    +0.000 OA
BRANCH  31  34
ATOM     32  O   UNL     1     110.897 129.455 137.953  0.00  0.00    +0.000 OA
ATOM     33  O   UNL     1     112.531 129.104 136.549  0.00  0.00    +0.000 OA
ATOM     34  C   UNL     1     111.447 129.064 137.480  0.00  0.00    +0.000 C 
ATOM     35  C   UNL     1     111.980 129.496 137.022  0.00  0.00    +0.000 C 
ATOM     36  C   UNL     1     111.963 130.320 137.038  0.00  0.00    +0.000 C 
ATOM     37  C   UNL     1     111.413 130.713 137.511  0.00  0.00    +0.000 C 
ATOM     38  C   UNL     1     110.879 130.281 137.968  0.00  0.00    +0.000 C 
ATOM     39  C   UNL     1     110.329 130.672 138.442  0.00  0.00    +0.000 C 
BRANCH  36  40
ATOM     40  O   UNL     1     112.496 130.753 136.581  0.00  0.00    +0.000 OA
BRANCH  40  42
ATOM     41  O   UNL     1     113.586 130.984 137.476  0.00  0.00    +0.000 OA
ATOM     42  C   UNL     1     113.304 130.720 136.747  0.00  0.00    +0.000 C 
ATOM     43  C   UNL     1     113.830 130.424 136.184  0.00  0.00    +0.000 C 
ENDBRANCH  40  42
ENDBRANCH  36  40
BRANCH  37  44
ATOM     44  O   UNL     1     111.395 131.537 137.527  0.00  0.00    +0.000 OA
BRANCH  44  46
ATOM     45  O   UNL     1     110.453 131.751 136.474  0.00  0.00    +0.000 OA
ATOM     46  C   UNL     1     110.745 131.943 137.222  0.00  0.00    +0.000 C 
ATOM     47  C   UNL     1     110.386 132.539 137.663  0.00  0.00    +0.000 C 
ENDBRANCH  44  46
ENDBRANCH  37  44
ENDBRANCH  31  34
ENDBRANCH   4  31
TORSDOF 9
ENDMDL
MODEL 8
REMARK VINA RESULT:     -10.0      1.909      3.739
REMARK  Name = 44257737
REMARK  9 active torsions:
REMARK  status: ('A' for Active; 'I' for Inactive)
REMARK    1  A    between atoms: O_1  and  C_17
REMARK    2  A    between atoms: O_1  and  C_21
REMARK    3  A    between atoms: O_6  and  C_24
REMARK    4  A    between atoms: O_6  and  C_35
REMARK    5  A    between atoms: O_7  and  C_25
REMARK    6  A    between atoms: O_7  and  C_36
REMARK    7  A    between atoms: C_19  and  C_27
REMARK    8  A    between atoms: C_22  and  C_28
REMARK    9  A    between atoms: C_38  and  C_42
REMARK                            x       y       z     vdW  Elec       q    Type
REMARK                         _______ _______ _______ _____ _____    ______ ____
ROOT
ATOM      1  O   UNL     1     113.193 128.750 135.488  0.00  0.00    +0.000 OA
ATOM      2  O   UNL     1     112.761 130.359 137.318  0.00  0.00    +0.000 OA
ATOM      3  O   UNL     1     114.265 130.255 136.649  0.00  0.00    +0.000 OA
ATOM      4  C   UNL     1     112.297 129.338 136.432  0.00  0.00    +0.000 C 
ATOM      5  C   UNL     1     112.905 129.823 136.708  0.00  0.00    +0.000 C 
ATOM      6  C   UNL     1     112.441 128.802 135.822  0.00  0.00    +0.000 C 
ATOM      7  C   UNL     1     113.657 129.771 136.373  0.00  0.00    +0.000 C 
ATOM      8  C   UNL     1     113.800 129.234 135.763  0.00  0.00    +0.000 C 
ENDROOT
BRANCH   6  13
ATOM      9  O   UNL     1     112.489 127.184 136.173  0.00  0.00    +0.000 OA
ATOM     10  O   UNL     1     111.206 129.450 134.939  0.00  0.00    +0.000 OA
ATOM     11  O   UNL     1     110.008 126.865 134.718  0.00  0.00    +0.000 OA
ATOM     12  O   UNL     1     110.619 125.705 135.321  0.00  0.00    +0.000 OA
ATOM     13  C   UNL     1     111.833 128.317 135.547  0.00  0.00    +0.000 A 
ATOM     14  C   UNL     1     111.841 127.509 135.712  0.00  0.00    +0.000 A 
ATOM     15  C   UNL     1     111.216 128.641 135.105  0.00  0.00    +0.000 A 
ATOM     16  C   UNL     1     111.233 127.024 135.436  0.00  0.00    +0.000 A 
ATOM     17  C   UNL     1     110.607 128.157 134.829  0.00  0.00    +0.000 A 
ATOM     18  C   UNL     1     110.616 127.348 134.994  0.00  0.00    +0.000 A 
ATOM     19  C   UNL     1     111.231 126.181 135.601  0.00  0.00    +0.000 A 
ATOM     20  C   UNL     1     112.504 126.343 136.348  0.00  0.00    +0.000 A 
ATOM     21  C   UNL     1     111.871 125.838 136.061  0.00  0.00    +0.000 A 
BRANCH  20  23
ATOM     22  O   UNL     1     114.978 125.058 138.115  0.00  0.00    +0.000 OA
ATOM     23  C   UNL     1     113.123 126.021 136.790  0.00  0.00    +0.000 A 
ATOM     24  C   UNL     1     113.040 125.924 137.605  0.00  0.00    +0.000 A 
ATOM     25  C   UNL     1     113.823 125.798 136.417  0.00  0.00    +0.000 A 
ATOM     26  C   UNL     1     113.659 125.602 138.046  0.00  0.00    +0.000 A 
ATOM     27  C   UNL     1     114.442 125.477 136.858  0.00  0.00    +0.000 A 
ATOM     28  C   UNL     1     114.360 125.379 137.673  0.00  0.00    +0.000 A 
ENDBRANCH  20  23
ENDBRANCH   6  13
BRANCH   8  30
ATOM     29  O   UNL     1     114.636 129.079 134.614  0.00  0.00    +0.000 OA
ATOM     30  C   UNL     1     114.553 129.182 135.428  0.00  0.00    +0.000 C 
ENDBRANCH   8  30
BRANCH   4  31
ATOM     31  O   UNL     1     111.545 129.390 136.767  0.00  0.00    +0.000 OA
BRANCH  31  34
ATOM     32  O   UNL     1     111.954 128.971 138.070  0.00  0.00    +0.000 OA
ATOM     33  O   UNL     1     110.383 130.349 137.440  0.00  0.00    +0.000 OA
ATOM     34  C   UNL     1     111.459 129.420 137.587  0.00  0.00    +0.000 C 
ATOM     35  C   UNL     1     110.878 129.900 137.924  0.00  0.00    +0.000 C 
ATOM     36  C   UNL     1     110.793 129.930 138.743  0.00  0.00    +0.000 C 
ATOM     37  C   UNL     1     111.288 129.481 139.227  0.00  0.00    +0.000 C 
ATOM     38  C   UNL     1     111.869 129.002 138.891  0.00  0.00    +0.000 C 
ATOM     39  C   UNL     1     112.364 128.553 139.374  0.00  0.00    +0.000 C 
BRANCH  36  40
ATOM     40  O   UNL     1     110.212 130.410 139.080  0.00  0.00    +0.000 OA
BRANCH  40  42
ATOM     41  O   UNL     1     109.099 129.513 139.052  0.00  0.00    +0.000 OA
ATOM     42  C   UNL     1     109.414 130.265 138.923  0.00  0.00    +0.000 C 
ATOM     43  C   UNL     1     108.933 130.871 138.636  0.00  0.00    +0.000 C 
ENDBRANCH  40  42
ENDBRANCH  36  40
BRANCH  37  44
ATOM     44  O   UNL     1     111.202 129.512 140.047  0.00  0.00    +0.000 OA
BRANCH  44  46
ATOM     45  O   UNL     1     112.039 130.626 140.364  0.00  0.00    +0.000 OA
ATOM     46  C   UNL     1     111.793 129.852 140.512  0.00  0.00    +0.000 C 
ATOM     47  C   UNL     1     112.138 129.420 141.123  0.00  0.00    +0.000 C 
ENDBRANCH  44  46
ENDBRANCH  37  44
ENDBRANCH  31  34
ENDBRANCH   4  31
TORSDOF 9
ENDMDL
MODEL 9
REMARK VINA RESULT:      -9.9      1.336      2.273
REMARK  Name = 44257737
REMARK  9 active torsions:
REMARK  status: ('A' for Active; 'I' for Inactive)
REMARK    1  A    between atoms: O_1  and  C_17
REMARK    2  A    between atoms: O_1  and  C_21
REMARK    3  A    between atoms: O_6  and  C_24
REMARK    4  A    between atoms: O_6  and  C_35
REMARK    5  A    between atoms: O_7  and  C_25
REMARK    6  A    between atoms: O_7  and  C_36
REMARK    7  A    between atoms: C_19  and  C_27
REMARK    8  A    between atoms: C_22  and  C_28
REMARK    9  A    between atoms: C_38  and  C_42
REMARK                            x       y       z     vdW  Elec       q    Type
REMARK                         _______ _______ _______ _____ _____    ______ ____
ROOT
ATOM      1  O   UNL     1     112.951 127.944 135.889  0.00  0.00    +0.000 OA
ATOM      2  O   UNL     1     112.596 128.839 138.169  0.00  0.00    +0.000 OA
ATOM      3  O   UNL     1     113.627 129.604 137.134  0.00  0.00    +0.000 OA
ATOM      4  C   UNL     1     112.317 127.859 137.167  0.00  0.00    +0.000 C 
ATOM      5  C   UNL     1     112.714 128.541 137.410  0.00  0.00    +0.000 C 
ATOM      6  C   UNL     1     112.435 127.561 136.407  0.00  0.00    +0.000 C 
ATOM      7  C   UNL     1     113.230 128.924 136.892  0.00  0.00    +0.000 C 
ATOM      8  C   UNL     1     113.348 128.625 136.132  0.00  0.00    +0.000 C 
ENDROOT
BRANCH   6  13
ATOM      9  O   UNL     1     110.915 127.710 135.766  0.00  0.00    +0.000 OA
ATOM     10  O   UNL     1     113.157 126.086 136.565  0.00  0.00    +0.000 OA
ATOM     11  O   UNL     1     110.848 124.835 135.436  0.00  0.00    +0.000 OA
ATOM     12  O   UNL     1     109.705 125.613 135.023  0.00  0.00    +0.000 OA
ATOM     13  C   UNL     1     112.038 126.880 136.164  0.00  0.00    +0.000 A 
ATOM     14  C   UNL     1     111.281 126.936 135.843  0.00  0.00    +0.000 A 
ATOM     15  C   UNL     1     112.399 126.142 136.243  0.00  0.00    +0.000 A 
ATOM     16  C   UNL     1     110.883 126.255 135.600  0.00  0.00    +0.000 A 
ATOM     17  C   UNL     1     112.003 125.461 136.000  0.00  0.00    +0.000 A 
ATOM     18  C   UNL     1     111.244 125.517 135.678  0.00  0.00    +0.000 A 
ATOM     19  C   UNL     1     110.094 126.300 135.263  0.00  0.00    +0.000 A 
ATOM     20  C   UNL     1     110.126 127.775 135.431  0.00  0.00    +0.000 A 
ATOM     21  C   UNL     1     109.713 127.065 135.178  0.00  0.00    +0.000 A 
BRANCH  20  23
ATOM     22  O   UNL     1     108.691 130.731 135.121  0.00  0.00    +0.000 OA
ATOM     23  C   UNL     1     109.767 128.514 135.353  0.00  0.00    +0.000 A 
ATOM     24  C   UNL     1     109.958 129.000 134.715  0.00  0.00    +0.000 A 
ATOM     25  C   UNL     1     109.218 128.766 135.915  0.00  0.00    +0.000 A 
ATOM     26  C   UNL     1     109.599 129.739 134.638  0.00  0.00    +0.000 A 
ATOM     27  C   UNL     1     108.859 129.505 135.838  0.00  0.00    +0.000 A 
ATOM     28  C   UNL     1     109.050 129.992 135.199  0.00  0.00    +0.000 A 
ENDBRANCH  20  23
ENDBRANCH   6  13
BRANCH   8  30
ATOM     29  O   UNL     1     113.721 128.989 134.801  0.00  0.00    +0.000 OA
ATOM     30  C   UNL     1     113.863 129.008 135.614  0.00  0.00    +0.000 C 
ENDBRANCH   8  30
BRANCH   4  31
ATOM     31  O   UNL     1     111.802 127.476 137.684  0.00  0.00    +0.000 OA
BRANCH  31  34
ATOM     32  O   UNL     1     112.832 127.080 138.592  0.00  0.00    +0.000 OA
ATOM     33  O   UNL     1     110.724 127.534 138.933  0.00  0.00    +0.000 OA
ATOM     34  C   UNL     1     112.047 127.292 138.451  0.00  0.00    +0.000 C 
ATOM     35  C   UNL     1     111.508 127.321 139.075  0.00  0.00    +0.000 C 
ATOM     36  C   UNL     1     111.754 127.137 139.840  0.00  0.00    +0.000 C 
ATOM     37  C   UNL     1     112.539 126.925 139.983  0.00  0.00    +0.000 C 
ATOM     38  C   UNL     1     113.077 126.896 139.358  0.00  0.00    +0.000 C 
ATOM     39  C   UNL     1     113.862 126.683 139.500  0.00  0.00    +0.000 C 
BRANCH  36  40
ATOM     40  O   UNL     1     111.215 127.166 140.464  0.00  0.00    +0.000 OA
BRANCH  40  42
ATOM     41  O   UNL     1     110.709 125.830 140.446  0.00  0.00    +0.000 OA
ATOM     42  C   UNL     1     110.576 126.643 140.483  0.00  0.00    +0.000 C 
ATOM     43  C   UNL     1     109.806 126.935 140.538  0.00  0.00    +0.000 C 
ENDBRANCH  40  42
ENDBRANCH  36  40
BRANCH  37  44
ATOM     44  O   UNL     1     112.784 126.741 140.748  0.00  0.00    +0.000 OA
BRANCH  44  46
ATOM     45  O   UNL     1     113.132 128.012 141.300  0.00  0.00    +0.000 OA
ATOM     46  C   UNL     1     113.327 127.227 141.136  0.00  0.00    +0.000 C 
ATOM     47  C   UNL     1     114.062 126.929 141.359  0.00  0.00    +0.000 C 
ENDBRANCH  44  46
ENDBRANCH  37  44
ENDBRANCH  31  34
ENDBRANCH   4  31
TORSDOF 9
ENDMDL
MODEL 10
REMARK VINA RESULT:      -9.9      2.237      4.345
REMARK  Name = 44257737
REMARK  9 active torsions:
REMARK  status: ('A' for Active; 'I' for Inactive)
REMARK    1  A    between atoms: O_1  and  C_17
REMARK    2  A    between atoms: O_1  and  C_21
REMARK    3  A    between atoms: O_6  and  C_24
REMARK    4  A    between atoms: O_6  and  C_35
REMARK    5  A    between atoms: O_7  and  C_25
REMARK    6  A    between atoms: O_7  and  C_36
REMARK    7  A    between atoms: C_19  and  C_27
REMARK    8  A    between atoms: C_22  and  C_28
REMARK    9  A    between atoms: C_38  and  C_42
REMARK                            x       y       z     vdW  Elec       q    Type
REMARK                         _______ _______ _______ _____ _____    ______ ____
ROOT
ATOM      1  O   UNL     1     112.766 128.340 135.573  0.00  0.00    +0.000 OA
ATOM      2  O   UNL     1     111.785 130.077 137.038  0.00  0.00    +0.000 OA
ATOM      3  O   UNL     1     113.253 130.328 136.330  0.00  0.00    +0.000 OA
ATOM      4  C   UNL     1     111.705 128.793 136.415  0.00  0.00    +0.000 C 
ATOM      5  C   UNL     1     112.112 129.498 136.550  0.00  0.00    +0.000 C 
ATOM      6  C   UNL     1     112.031 128.214 135.928  0.00  0.00    +0.000 C 
ATOM      7  C   UNL     1     112.846 129.624 136.196  0.00  0.00    +0.000 C 
ATOM      8  C   UNL     1     113.173 129.044 135.708  0.00  0.00    +0.000 C 
ENDROOT
BRANCH   6  13
ATOM      9  O   UNL     1     112.226 126.964 136.996  0.00  0.00    +0.000 OA
ATOM     10  O   UNL     1     111.046 128.070 134.612  0.00  0.00    +0.000 OA
ATOM     11  O   UNL     1     110.403 125.395 135.387  0.00  0.00    +0.000 OA
ATOM     12  O   UNL     1     110.973 124.805 136.574  0.00  0.00    +0.000 OA
ATOM     13  C   UNL     1     111.624 127.509 135.793  0.00  0.00    +0.000 A 
ATOM     14  C   UNL     1     111.710 126.877 136.315  0.00  0.00    +0.000 A 
ATOM     15  C   UNL     1     111.132 127.437 135.135  0.00  0.00    +0.000 A 
ATOM     16  C   UNL     1     111.303 126.172 136.180  0.00  0.00    +0.000 A 
ATOM     17  C   UNL     1     110.724 126.733 135.000  0.00  0.00    +0.000 A 
ATOM     18  C   UNL     1     110.810 126.100 135.523  0.00  0.00    +0.000 A 
ATOM     19  C   UNL     1     111.384 125.505 136.717  0.00  0.00    +0.000 A 
ATOM     20  C   UNL     1     112.320 126.309 137.545  0.00  0.00    +0.000 A 
ATOM     21  C   UNL     1     111.895 125.575 137.404  0.00  0.00    +0.000 A 
BRANCH  20  23
ATOM     22  O   UNL     1     114.293 126.609 140.173  0.00  0.00    +0.000 OA
ATOM     23  C   UNL     1     112.813 126.384 138.202  0.00  0.00    +0.000 A 
ATOM     24  C   UNL     1     113.611 126.185 138.143  0.00  0.00    +0.000 A 
ATOM     25  C   UNL     1     112.507 126.658 138.917  0.00  0.00    +0.000 A 
ATOM     26  C   UNL     1     114.104 126.260 138.800  0.00  0.00    +0.000 A 
ATOM     27  C   UNL     1     113.000 126.733 139.574  0.00  0.00    +0.000 A 
ATOM     28  C   UNL     1     113.799 126.534 139.516  0.00  0.00    +0.000 A 
ENDBRANCH  20  23
ENDBRANCH   6  13
BRANCH   8  30
ATOM     29  O   UNL     1     114.476 128.572 135.359  0.00  0.00    +0.000 OA
ATOM     30  C   UNL     1     113.907 129.170 135.353  0.00  0.00    +0.000 C 
ENDBRANCH   8  30
BRANCH   4  31
ATOM     31  O   UNL     1     110.970 128.667 136.770  0.00  0.00    +0.000 OA
BRANCH  31  34
ATOM     32  O   UNL     1     110.323 129.732 136.070  0.00  0.00    +0.000 OA
ATOM     33  O   UNL     1     109.950 128.887 138.048  0.00  0.00    +0.000 OA
ATOM     34  C   UNL     1     110.391 129.255 136.739  0.00  0.00    +0.000 C 
ATOM     35  C   UNL     1     109.881 129.365 137.378  0.00  0.00    +0.000 C 
ATOM     36  C   UNL     1     109.303 129.952 137.348  0.00  0.00    +0.000 C 
ATOM     37  C   UNL     1     109.234 130.429 136.678  0.00  0.00    +0.000 C 
ATOM     38  C   UNL     1     109.744 130.319 136.039  0.00  0.00    +0.000 C 
ATOM     39  C   UNL     1     109.676 130.796 135.370  0.00  0.00    +0.000 C 
BRANCH  36  40
ATOM     40  O   UNL     1     108.792 130.061 137.987  0.00  0.00    +0.000 OA
BRANCH  40  42
ATOM     41  O   UNL     1     109.448 131.079 138.745  0.00  0.00    +0.000 OA
ATOM     42  C   UNL     1     109.086 130.339 138.706  0.00  0.00    +0.000 C 
ATOM     43  C   UNL     1     109.017 129.877 139.386  0.00  0.00    +0.000 C 
ENDBRANCH  40  42
ENDBRANCH  36  40
BRANCH  37  44
ATOM     44  O   UNL     1     108.655 131.016 136.648  0.00  0.00    +0.000 OA
BRANCH  44  46
ATOM     45  O   UNL     1     107.620 130.273 136.002  0.00  0.00    +0.000 OA
ATOM     46  C   UNL     1     108.050 130.971 136.088  0.00  0.00    +0.000 C 
ATOM     47  C   UNL     1     107.876 131.624 135.616  0.00  0.00    +0.000 C 
ENDBRANCH  44  46
ENDBRANCH  37  44
ENDBRANCH  31  34
ENDBRANCH   4  31
TORSDOF 9
ENDMDL
