MODEL 1
REMARK VINA RESULT:      -7.8      0.000      0.000
REMARK  Name = 44259688
REMARK  7 active torsions:
REMARK  status: ('A' for Active; 'I' for Inactive)
REMARK    1  A    between atoms: O_2  and  C_18
REMARK    2  A    between atoms: O_2  and  C_20
REMARK    3  A    between atoms: O_3  and  C_17
REMARK    4  A    between atoms: O_4  and  C_22
REMARK    5  A    between atoms: C_9  and  C_10
REMARK    6  A    between atoms: C_10  and  C_18
REMARK    7  A    between atoms: C_11  and  C_14
REMARK                            x       y       z     vdW  Elec       q    Type
REMARK                         _______ _______ _______ _____ _____    ______ ____
ROOT
ATOM      1  O   UNL     1     104.819 128.596 143.512  0.00  0.00    +0.000 OA
ATOM      2  O   UNL     1     104.057 128.428 140.730  0.00  0.00    +0.000 OA
ATOM      3  O   UNL     1     104.977 127.480 141.309  0.00  0.00    +0.000 OA
ATOM      4  O   UNL     1     102.956 130.545 142.414  0.00  0.00    +0.000 OA
ATOM      5  C   UNL     1     105.303 127.933 143.419  0.00  0.00    +0.000 A 
ATOM      6  C   UNL     1     104.441 128.513 142.136  0.00  0.00    +0.000 A 
ATOM      7  C   UNL     1     104.389 128.885 142.871  0.00  0.00    +0.000 A 
ATOM      8  C   UNL     1     105.355 127.561 142.684  0.00  0.00    +0.000 A 
ATOM      9  C   UNL     1     104.924 127.852 142.043  0.00  0.00    +0.000 A 
ATOM     10  C   UNL     1     103.998 128.806 141.461  0.00  0.00    +0.000 A 
ATOM     11  C   UNL     1     103.889 129.576 142.980  0.00  0.00    +0.000 A 
ATOM     12  C   UNL     1     103.438 129.883 142.317  0.00  0.00    +0.000 A 
ATOM     13  C   UNL     1     103.493 129.495 141.552  0.00  0.00    +0.000 A 
ENDROOT
BRANCH   5  14
ATOM     14  C   UNL     1     105.733 127.644 144.060  0.00  0.00    +0.000 A 
ATOM     15  C   UNL     1     106.593 127.063 145.343  0.00  0.00    +0.000 A 
ATOM     16  C   UNL     1     106.456 127.987 144.261  0.00  0.00    +0.000 A 
ATOM     17  C   UNL     1     106.885 127.696 144.903  0.00  0.00    +0.000 A 
ATOM     18  C   UNL     1     105.439 127.010 144.501  0.00  0.00    +0.000 A 
ATOM     19  C   UNL     1     105.870 126.720 145.142  0.00  0.00    +0.000 A 
BRANCH  17  20
ATOM     20  O   UNL     1     107.608 128.039 145.104  0.00  0.00    +0.000 OA
ATOM     21  C   UNL     1     107.756 128.829 144.917  0.00  0.00    +0.000 C 
ENDBRANCH  17  20
BRANCH  15  22
ATOM     22  O   UNL     1     107.022 126.773 145.985  0.00  0.00    +0.000 OA
BRANCH  22  24
ATOM     23  O   UNL     1     106.919 125.362 145.785  0.00  0.00    +0.000 OA
ATOM     24  C   UNL     1     106.864 126.020 146.281  0.00  0.00    +0.000 C 
BRANCH  24  25
ATOM     25  C   UNL     1     106.652 125.922 147.072  0.00  0.00    +0.000 C 
BRANCH  25  26
ATOM     26  C   UNL     1     107.031 125.355 147.535  0.00  0.00    +0.000 C 
ATOM     27  C   UNL     1     106.591 124.764 147.906  0.00  0.00    +0.000 C 
ATOM     28  C   UNL     1     107.850 125.378 147.626  0.00  0.00    +0.000 C 
ENDBRANCH  25  26
ENDBRANCH  24  25
ENDBRANCH  22  24
ENDBRANCH  15  22
ENDBRANCH   5  14
BRANCH   8  29
ATOM     29  O   UNL     1     105.838 126.899 142.591  0.00  0.00    +0.000 OA
ATOM     30  C   UNL     1     106.101 126.684 141.840  0.00  0.00    +0.000 C 
ENDBRANCH   8  29
TORSDOF 7
ENDMDL
MODEL 2
REMARK VINA RESULT:      -7.7      9.308     11.080
REMARK  Name = 44259688
REMARK  7 active torsions:
REMARK  status: ('A' for Active; 'I' for Inactive)
REMARK    1  A    between atoms: O_2  and  C_18
REMARK    2  A    between atoms: O_2  and  C_20
REMARK    3  A    between atoms: O_3  and  C_17
REMARK    4  A    between atoms: O_4  and  C_22
REMARK    5  A    between atoms: C_9  and  C_10
REMARK    6  A    between atoms: C_10  and  C_18
REMARK    7  A    between atoms: C_11  and  C_14
REMARK                            x       y       z     vdW  Elec       q    Type
REMARK                         _______ _______ _______ _____ _____    ______ ____
ROOT
ATOM      1  O   UNL     1     113.189 126.744 136.801  0.00  0.00    +0.000 OA
ATOM      2  O   UNL     1     112.356 124.024 136.291  0.00  0.00    +0.000 OA
ATOM      3  O   UNL     1     111.504 125.139 135.958  0.00  0.00    +0.000 OA
ATOM      4  O   UNL     1     114.964 124.544 137.501  0.00  0.00    +0.000 OA
ATOM      5  C   UNL     1     112.475 127.020 136.490  0.00  0.00    +0.000 A 
ATOM      6  C   UNL     1     112.778 125.399 136.549  0.00  0.00    +0.000 A 
ATOM      7  C   UNL     1     113.339 125.934 136.830  0.00  0.00    +0.000 A 
ATOM      8  C   UNL     1     111.913 126.485 136.209  0.00  0.00    +0.000 A 
ATOM      9  C   UNL     1     112.065 125.674 136.239  0.00  0.00    +0.000 A 
ATOM     10  C   UNL     1     112.924 124.552 136.575  0.00  0.00    +0.000 A 
ATOM     11  C   UNL     1     114.086 125.659 137.156  0.00  0.00    +0.000 A 
ATOM     12  C   UNL     1     114.249 124.816 137.189  0.00  0.00    +0.000 A 
ATOM     13  C   UNL     1     113.664 124.259 136.897  0.00  0.00    +0.000 A 
ENDROOT
BRANCH   5  14
ATOM     14  C   UNL     1     112.324 127.830 136.461  0.00  0.00    +0.000 A 
ATOM     15  C   UNL     1     112.022 129.451 136.403  0.00  0.00    +0.000 A 
ATOM     16  C   UNL     1     112.605 128.280 135.828  0.00  0.00    +0.000 A 
ATOM     17  C   UNL     1     112.454 129.091 135.800  0.00  0.00    +0.000 A 
ATOM     18  C   UNL     1     111.892 128.191 137.064  0.00  0.00    +0.000 A 
ATOM     19  C   UNL     1     111.741 129.001 137.035  0.00  0.00    +0.000 A 
BRANCH  17  20
ATOM     20  O   UNL     1     112.734 129.540 135.168  0.00  0.00    +0.000 OA
ATOM     21  C   UNL     1     113.405 129.296 134.753  0.00  0.00    +0.000 C 
ENDBRANCH  17  20
BRANCH  15  22
ATOM     22  O   UNL     1     111.871 130.262 136.375  0.00  0.00    +0.000 OA
BRANCH  22  24
ATOM     23  O   UNL     1     110.495 130.338 136.752  0.00  0.00    +0.000 OA
ATOM     24  C   UNL     1     111.276 130.587 136.844  0.00  0.00    +0.000 C 
BRANCH  24  25
ATOM     25  C   UNL     1     111.461 131.163 137.405  0.00  0.00    +0.000 C 
BRANCH  25  26
ATOM     26  C   UNL     1     111.032 131.867 137.432  0.00  0.00    +0.000 C 
ATOM     27  C   UNL     1     110.435 131.965 137.993  0.00  0.00    +0.000 C 
ATOM     28  C   UNL     1     111.200 132.473 136.898  0.00  0.00    +0.000 C 
ENDBRANCH  25  26
ENDBRANCH  24  25
ENDBRANCH  22  24
ENDBRANCH  15  22
ENDBRANCH   5  14
BRANCH   8  29
ATOM     29  O   UNL     1     111.201 126.760 135.899  0.00  0.00    +0.000 OA
ATOM     30  C   UNL     1     110.767 126.287 135.381  0.00  0.00    +0.000 C 
ENDBRANCH   8  29
TORSDOF 7
ENDMDL
MODEL 3
REMARK VINA RESULT:      -7.7      9.549     10.379
REMARK  Name = 44259688
REMARK  7 active torsions:
REMARK  status: ('A' for Active; 'I' for Inactive)
REMARK    1  A    between atoms: O_2  and  C_18
REMARK    2  A    between atoms: O_2  and  C_20
REMARK    3  A    between atoms: O_3  and  C_17
REMARK    4  A    between atoms: O_4  and  C_22
REMARK    5  A    between atoms: C_9  and  C_10
REMARK    6  A    between atoms: C_10  and  C_18
REMARK    7  A    between atoms: C_11  and  C_14
REMARK                            x       y       z     vdW  Elec       q    Type
REMARK                         _______ _______ _______ _____ _____    ______ ____
ROOT
ATOM      1  O   UNL     1     111.486 129.960 136.445  0.00  0.00    +0.000 OA
ATOM      2  O   UNL     1     110.939 132.261 138.106  0.00  0.00    +0.000 OA
ATOM      3  O   UNL     1     111.992 131.334 138.440  0.00  0.00    +0.000 OA
ATOM      4  O   UNL     1     109.342 131.788 135.706  0.00  0.00    +0.000 OA
ATOM      5  C   UNL     1     112.095 129.738 136.955  0.00  0.00    +0.000 A 
ATOM      6  C   UNL     1     111.214 131.099 137.266  0.00  0.00    +0.000 A 
ATOM      7  C   UNL     1     111.046 130.641 136.601  0.00  0.00    +0.000 A 
ATOM      8  C   UNL     1     112.264 130.196 137.620  0.00  0.00    +0.000 A 
ATOM      9  C   UNL     1     111.823 130.876 137.775  0.00  0.00    +0.000 A 
ATOM     10  C   UNL     1     110.763 131.809 137.438  0.00  0.00    +0.000 A 
ATOM     11  C   UNL     1     110.413 130.862 136.062  0.00  0.00    +0.000 A 
ATOM     12  C   UNL     1     109.951 131.569 136.218  0.00  0.00    +0.000 A 
ATOM     13  C   UNL     1     110.127 132.046 136.911  0.00  0.00    +0.000 A 
ENDROOT
BRANCH   5  14
ATOM     14  C   UNL     1     112.535 129.058 136.800  0.00  0.00    +0.000 A 
ATOM     15  C   UNL     1     113.415 127.697 136.489  0.00  0.00    +0.000 A 
ATOM     16  C   UNL     1     113.171 129.089 136.274  0.00  0.00    +0.000 A 
ATOM     17  C   UNL     1     113.610 128.407 136.119  0.00  0.00    +0.000 A 
ATOM     18  C   UNL     1     112.340 128.347 137.170  0.00  0.00    +0.000 A 
ATOM     19  C   UNL     1     112.780 127.667 137.015  0.00  0.00    +0.000 A 
BRANCH  17  20
ATOM     20  O   UNL     1     114.245 128.438 135.594  0.00  0.00    +0.000 OA
ATOM     21  C   UNL     1     114.411 129.136 135.186  0.00  0.00    +0.000 C 
ENDBRANCH  17  20
BRANCH  15  22
ATOM     22  O   UNL     1     113.854 127.016 136.334  0.00  0.00    +0.000 OA
BRANCH  22  24
ATOM     23  O   UNL     1     112.852 125.998 136.306  0.00  0.00    +0.000 OA
ATOM     24  C   UNL     1     113.577 126.280 136.582  0.00  0.00    +0.000 C 
BRANCH  24  25
ATOM     25  C   UNL     1     114.023 125.825 137.106  0.00  0.00    +0.000 C 
BRANCH  25  26
ATOM     26  C   UNL     1     114.278 125.073 136.886  0.00  0.00    +0.000 C 
ATOM     27  C   UNL     1     114.966 124.983 136.440  0.00  0.00    +0.000 C 
ATOM     28  C   UNL     1     113.844 124.408 137.113  0.00  0.00    +0.000 C 
ENDBRANCH  25  26
ENDBRANCH  24  25
ENDBRANCH  22  24
ENDBRANCH  15  22
ENDBRANCH   5  14
BRANCH   8  29
ATOM     29  O   UNL     1     112.873 129.974 138.130  0.00  0.00    +0.000 OA
ATOM     30  C   UNL     1     113.274 130.547 138.568  0.00  0.00    +0.000 C 
ENDBRANCH   8  29
TORSDOF 7
ENDMDL
MODEL 4
REMARK VINA RESULT:      -7.6      2.461      6.025
REMARK  Name = 44259688
REMARK  7 active torsions:
REMARK  status: ('A' for Active; 'I' for Inactive)
REMARK    1  A    between atoms: O_2  and  C_18
REMARK    2  A    between atoms: O_2  and  C_20
REMARK    3  A    between atoms: O_3  and  C_17
REMARK    4  A    between atoms: O_4  and  C_22
REMARK    5  A    between atoms: C_9  and  C_10
REMARK    6  A    between atoms: C_10  and  C_18
REMARK    7  A    between atoms: C_11  and  C_14
REMARK                            x       y       z     vdW  Elec       q    Type
REMARK                         _______ _______ _______ _____ _____    ______ ____
ROOT
ATOM      1  O   UNL     1     106.616 124.942 146.793  0.00  0.00    +0.000 OA
ATOM      2  O   UNL     1     105.296 124.547 149.332  0.00  0.00    +0.000 OA
ATOM      3  O   UNL     1     104.538 124.731 148.119  0.00  0.00    +0.000 OA
ATOM      4  O   UNL     1     108.213 124.577 149.201  0.00  0.00    +0.000 OA
ATOM      5  C   UNL     1     105.882 124.997 146.420  0.00  0.00    +0.000 A 
ATOM      6  C   UNL     1     105.964 124.747 148.049  0.00  0.00    +0.000 A 
ATOM      7  C   UNL     1     106.657 124.817 147.607  0.00  0.00    +0.000 A 
ATOM      8  C   UNL     1     105.189 124.927 146.863  0.00  0.00    +0.000 A 
ATOM      9  C   UNL     1     105.230 124.802 147.677  0.00  0.00    +0.000 A 
ATOM     10  C   UNL     1     105.994 124.616 148.899  0.00  0.00    +0.000 A 
ATOM     11  C   UNL     1     107.428 124.761 147.984  0.00  0.00    +0.000 A 
ATOM     12  C   UNL     1     107.477 124.631 148.831  0.00  0.00    +0.000 A 
ATOM     13  C   UNL     1     106.756 124.558 149.292  0.00  0.00    +0.000 A 
ENDROOT
BRANCH   5  14
ATOM     14  C   UNL     1     105.841 125.122 145.606  0.00  0.00    +0.000 A 
ATOM     15  C   UNL     1     105.760 125.371 143.977  0.00  0.00    +0.000 A 
ATOM     16  C   UNL     1     105.886 125.888 145.303  0.00  0.00    +0.000 A 
ATOM     17  C   UNL     1     105.845 126.012 144.488  0.00  0.00    +0.000 A 
ATOM     18  C   UNL     1     105.756 124.480 145.094  0.00  0.00    +0.000 A 
ATOM     19  C   UNL     1     105.715 124.605 144.280  0.00  0.00    +0.000 A 
BRANCH  17  20
ATOM     20  O   UNL     1     105.890 126.778 144.185  0.00  0.00    +0.000 OA
ATOM     21  C   UNL     1     105.763 127.426 144.681  0.00  0.00    +0.000 C 
ENDBRANCH  17  20
BRANCH  15  22
ATOM     22  O   UNL     1     105.719 125.495 143.162  0.00  0.00    +0.000 OA
BRANCH  22  24
ATOM     23  O   UNL     1     106.835 124.733 142.700  0.00  0.00    +0.000 OA
ATOM     24  C   UNL     1     106.038 124.939 142.644  0.00  0.00    +0.000 C 
BRANCH  24  25
ATOM     25  C   UNL     1     105.562 124.589 142.068  0.00  0.00    +0.000 C 
BRANCH  25  26
ATOM     26  C   UNL     1     105.788 124.611 141.276  0.00  0.00    +0.000 C 
ATOM     27  C   UNL     1     105.608 125.269 140.812  0.00  0.00    +0.000 C 
ATOM     28  C   UNL     1     106.196 123.973 140.946  0.00  0.00    +0.000 C 
ENDBRANCH  25  26
ENDBRANCH  24  25
ENDBRANCH  22  24
ENDBRANCH  15  22
ENDBRANCH   5  14
BRANCH   8  29
ATOM     29  O   UNL     1     104.455 124.982 146.490  0.00  0.00    +0.000 OA
ATOM     30  C   UNL     1     103.766 124.810 146.910  0.00  0.00    +0.000 C 
ENDBRANCH   8  29
TORSDOF 7
ENDMDL
MODEL 5
REMARK VINA RESULT:      -7.6      9.108     11.093
REMARK  Name = 44259688
REMARK  7 active torsions:
REMARK  status: ('A' for Active; 'I' for Inactive)
REMARK    1  A    between atoms: O_2  and  C_18
REMARK    2  A    between atoms: O_2  and  C_20
REMARK    3  A    between atoms: O_3  and  C_17
REMARK    4  A    between atoms: O_4  and  C_22
REMARK    5  A    between atoms: C_9  and  C_10
REMARK    6  A    between atoms: C_10  and  C_18
REMARK    7  A    between atoms: C_11  and  C_14
REMARK                            x       y       z     vdW  Elec       q    Type
REMARK                         _______ _______ _______ _____ _____    ______ ____
ROOT
ATOM      1  O   UNL     1     112.791 126.617 136.694  0.00  0.00    +0.000 OA
ATOM      2  O   UNL     1     112.662 123.733 136.574  0.00  0.00    +0.000 OA
ATOM      3  O   UNL     1     111.596 124.549 136.046  0.00  0.00    +0.000 OA
ATOM      4  O   UNL     1     114.981 125.035 137.781  0.00  0.00    +0.000 OA
ATOM      5  C   UNL     1     112.057 126.665 136.320  0.00  0.00    +0.000 A 
ATOM      6  C   UNL     1     112.728 125.191 136.635  0.00  0.00    +0.000 A 
ATOM      7  C   UNL     1     113.126 125.880 136.851  0.00  0.00    +0.000 A 
ATOM      8  C   UNL     1     111.658 125.975 136.104  0.00  0.00    +0.000 A 
ATOM      9  C   UNL     1     111.995 125.239 136.262  0.00  0.00    +0.000 A 
ATOM     10  C   UNL     1     113.067 124.417 136.794  0.00  0.00    +0.000 A 
ATOM     11  C   UNL     1     113.892 125.843 137.241  0.00  0.00    +0.000 A 
ATOM     12  C   UNL     1     114.246 125.079 137.407  0.00  0.00    +0.000 A 
ATOM     13  C   UNL     1     113.831 124.361 137.183  0.00  0.00    +0.000 A 
ENDROOT
BRANCH   5  14
ATOM     14  C   UNL     1     111.722 127.402 136.163  0.00  0.00    +0.000 A 
ATOM     15  C   UNL     1     111.051 128.876 135.849  0.00  0.00    +0.000 A 
ATOM     16  C   UNL     1     112.000 127.856 135.533  0.00  0.00    +0.000 A 
ATOM     17  C   UNL     1     111.664 128.593 135.376  0.00  0.00    +0.000 A 
ATOM     18  C   UNL     1     111.108 127.685 136.637  0.00  0.00    +0.000 A 
ATOM     19  C   UNL     1     110.773 128.422 136.480  0.00  0.00    +0.000 A 
BRANCH  17  20
ATOM     20  O   UNL     1     111.941 129.048 134.746  0.00  0.00    +0.000 OA
ATOM     21  C   UNL     1     112.753 129.115 134.612  0.00  0.00    +0.000 C 
ENDBRANCH  17  20
BRANCH  15  22
ATOM     22  O   UNL     1     110.715 129.614 135.693  0.00  0.00    +0.000 OA
BRANCH  22  24
ATOM     23  O   UNL     1     109.941 129.952 136.845  0.00  0.00    +0.000 OA
ATOM     24  C   UNL     1     109.992 129.818 136.033  0.00  0.00    +0.000 C 
BRANCH  24  25
ATOM     25  C   UNL     1     109.319 129.890 135.561  0.00  0.00    +0.000 C 
BRANCH  25  26
ATOM     26  C   UNL     1     108.884 130.590 135.565  0.00  0.00    +0.000 C 
ATOM     27  C   UNL     1     109.060 131.190 135.026  0.00  0.00    +0.000 C 
ATOM     28  C   UNL     1     108.271 130.692 136.108  0.00  0.00    +0.000 C 
ENDBRANCH  25  26
ENDBRANCH  24  25
ENDBRANCH  22  24
ENDBRANCH  15  22
ENDBRANCH   5  14
BRANCH   8  29
ATOM     29  O   UNL     1     110.925 126.023 135.731  0.00  0.00    +0.000 OA
ATOM     30  C   UNL     1     110.609 125.360 135.356  0.00  0.00    +0.000 C 
ENDBRANCH   8  29
TORSDOF 7
ENDMDL
MODEL 6
REMARK VINA RESULT:      -7.6      9.650     10.266
REMARK  Name = 44259688
REMARK  7 active torsions:
REMARK  status: ('A' for Active; 'I' for Inactive)
REMARK    1  A    between atoms: O_2  and  C_18
REMARK    2  A    between atoms: O_2  and  C_20
REMARK    3  A    between atoms: O_3  and  C_17
REMARK    4  A    between atoms: O_4  and  C_22
REMARK    5  A    between atoms: C_9  and  C_10
REMARK    6  A    between atoms: C_10  and  C_18
REMARK    7  A    between atoms: C_11  and  C_14
REMARK                            x       y       z     vdW  Elec       q    Type
REMARK                         _______ _______ _______ _____ _____    ______ ____
ROOT
ATOM      1  O   UNL     1     111.462 130.545 136.898  0.00  0.00    +0.000 OA
ATOM      2  O   UNL     1     109.167 131.900 135.782  0.00  0.00    +0.000 OA
ATOM      3  O   UNL     1     109.654 130.668 135.212  0.00  0.00    +0.000 OA
ATOM      4  O   UNL     1     110.535 133.029 138.103  0.00  0.00    +0.000 OA
ATOM      5  C   UNL     1     111.392 129.956 136.325  0.00  0.00    +0.000 A 
ATOM      6  C   UNL     1     110.327 131.216 136.347  0.00  0.00    +0.000 A 
ATOM      7  C   UNL     1     110.929 131.175 136.909  0.00  0.00    +0.000 A 
ATOM      8  C   UNL     1     110.789 129.997 135.763  0.00  0.00    +0.000 A 
ATOM      9  C   UNL     1     110.257 130.627 135.774  0.00  0.00    +0.000 A 
ATOM     10  C   UNL     1     109.766 131.868 136.348  0.00  0.00    +0.000 A 
ATOM     11  C   UNL     1     111.013 131.783 137.511  0.00  0.00    +0.000 A 
ATOM     12  C   UNL     1     110.462 132.441 137.528  0.00  0.00    +0.000 A 
ATOM     13  C   UNL     1     109.834 132.484 136.943  0.00  0.00    +0.000 A 
ENDROOT
BRANCH   5  14
ATOM     14  C   UNL     1     111.924 129.326 136.314  0.00  0.00    +0.000 A 
ATOM     15  C   UNL     1     112.989 128.065 136.294  0.00  0.00    +0.000 A 
ATOM     16  C   UNL     1     112.631 129.389 135.893  0.00  0.00    +0.000 A 
ATOM     17  C   UNL     1     113.163 128.759 135.883  0.00  0.00    +0.000 A 
ATOM     18  C   UNL     1     111.749 128.631 136.725  0.00  0.00    +0.000 A 
ATOM     19  C   UNL     1     112.282 128.002 136.715  0.00  0.00    +0.000 A 
BRANCH  17  20
ATOM     20  O   UNL     1     113.869 128.822 135.462  0.00  0.00    +0.000 OA
ATOM     21  C   UNL     1     114.195 129.566 135.312  0.00  0.00    +0.000 C 
ENDBRANCH  17  20
BRANCH  15  22
ATOM     22  O   UNL     1     113.521 127.434 136.284  0.00  0.00    +0.000 OA
BRANCH  22  24
ATOM     23  O   UNL     1     112.607 126.344 136.152  0.00  0.00    +0.000 OA
ATOM     24  C   UNL     1     113.272 126.681 136.507  0.00  0.00    +0.000 C 
BRANCH  24  25
ATOM     25  C   UNL     1     113.687 126.263 137.085  0.00  0.00    +0.000 C 
BRANCH  25  26
ATOM     26  C   UNL     1     113.974 125.508 136.923  0.00  0.00    +0.000 C 
ATOM     27  C   UNL     1     113.558 124.843 137.179  0.00  0.00    +0.000 C 
ATOM     28  C   UNL     1     114.679 125.417 136.503  0.00  0.00    +0.000 C 
ENDBRANCH  25  26
ENDBRANCH  24  25
ENDBRANCH  22  24
ENDBRANCH  15  22
ENDBRANCH   5  14
BRANCH   8  29
ATOM     29  O   UNL     1     110.719 129.408 135.190  0.00  0.00    +0.000 OA
ATOM     30  C   UNL     1     110.043 129.369 134.719  0.00  0.00    +0.000 C 
ENDBRANCH   8  29
TORSDOF 7
ENDMDL
MODEL 7
REMARK VINA RESULT:      -7.5      7.998      9.385
REMARK  Name = 44259688
REMARK  7 active torsions:
REMARK  status: ('A' for Active; 'I' for Inactive)
REMARK    1  A    between atoms: O_2  and  C_18
REMARK    2  A    between atoms: O_2  and  C_20
REMARK    3  A    between atoms: O_3  and  C_17
REMARK    4  A    between atoms: O_4  and  C_22
REMARK    5  A    between atoms: C_9  and  C_10
REMARK    6  A    between atoms: C_10  and  C_18
REMARK    7  A    between atoms: C_11  and  C_14
REMARK                            x       y       z     vdW  Elec       q    Type
REMARK                         _______ _______ _______ _____ _____    ______ ____
ROOT
ATOM      1  O   UNL     1     110.464 129.458 136.500  0.00  0.00    +0.000 OA
ATOM      2  O   UNL     1     107.737 129.924 135.666  0.00  0.00    +0.000 OA
ATOM      3  O   UNL     1     108.225 128.588 135.902  0.00  0.00    +0.000 OA
ATOM      4  O   UNL     1     109.549 132.184 136.043  0.00  0.00    +0.000 OA
ATOM      5  C   UNL     1     110.319 128.645 136.514  0.00  0.00    +0.000 A 
ATOM      6  C   UNL     1     109.115 129.689 136.088  0.00  0.00    +0.000 A 
ATOM      7  C   UNL     1     109.861 129.979 136.287  0.00  0.00    +0.000 A 
ATOM      8  C   UNL     1     109.573 128.355 136.315  0.00  0.00    +0.000 A 
ATOM      9  C   UNL     1     108.971 128.878 136.102  0.00  0.00    +0.000 A 
ATOM     10  C   UNL     1     108.480 130.224 135.864  0.00  0.00    +0.000 A 
ATOM     11  C   UNL     1     110.024 130.823 136.277  0.00  0.00    +0.000 A 
ATOM     12  C   UNL     1     109.401 131.372 136.056  0.00  0.00    +0.000 A 
ATOM     13  C   UNL     1     108.624 131.070 135.848  0.00  0.00    +0.000 A 
ENDROOT
BRANCH   5  14
ATOM     14  C   UNL     1     110.921 128.123 136.727  0.00  0.00    +0.000 A 
ATOM     15  C   UNL     1     112.127 127.079 137.152  0.00  0.00    +0.000 A 
ATOM     16  C   UNL     1     111.049 127.942 137.522  0.00  0.00    +0.000 A 
ATOM     17  C   UNL     1     111.652 127.420 137.734  0.00  0.00    +0.000 A 
ATOM     18  C   UNL     1     111.396 127.782 136.144  0.00  0.00    +0.000 A 
ATOM     19  C   UNL     1     111.999 127.260 136.357  0.00  0.00    +0.000 A 
BRANCH  17  20
ATOM     20  O   UNL     1     111.780 127.239 138.528  0.00  0.00    +0.000 OA
ATOM     21  C   UNL     1     111.404 127.679 139.118  0.00  0.00    +0.000 C 
ENDBRANCH  17  20
BRANCH  15  22
ATOM     22  O   UNL     1     112.729 126.557 137.364  0.00  0.00    +0.000 OA
BRANCH  22  24
ATOM     23  O   UNL     1     113.785 127.035 136.529  0.00  0.00    +0.000 OA
ATOM     24  C   UNL     1     113.349 126.408 136.841  0.00  0.00    +0.000 C 
BRANCH  24  25
ATOM     25  C   UNL     1     113.534 125.632 136.630  0.00  0.00    +0.000 C 
BRANCH  25  26
ATOM     26  C   UNL     1     114.291 125.335 136.769  0.00  0.00    +0.000 C 
ATOM     27  C   UNL     1     114.859 125.355 136.171  0.00  0.00    +0.000 C 
ATOM     28  C   UNL     1     114.480 125.018 137.507  0.00  0.00    +0.000 C 
ENDBRANCH  25  26
ENDBRANCH  24  25
ENDBRANCH  22  24
ENDBRANCH  15  22
ENDBRANCH   5  14
BRANCH   8  29
ATOM     29  O   UNL     1     109.429 127.543 136.328  0.00  0.00    +0.000 OA
ATOM     30  C   UNL     1     108.760 127.237 135.955  0.00  0.00    +0.000 C 
ENDBRANCH   8  29
TORSDOF 7
ENDMDL
MODEL 8
REMARK VINA RESULT:      -7.4      3.216      5.018
REMARK  Name = 44259688
REMARK  7 active torsions:
REMARK  status: ('A' for Active; 'I' for Inactive)
REMARK    1  A    between atoms: O_2  and  C_18
REMARK    2  A    between atoms: O_2  and  C_20
REMARK    3  A    between atoms: O_3  and  C_17
REMARK    4  A    between atoms: O_4  and  C_22
REMARK    5  A    between atoms: C_9  and  C_10
REMARK    6  A    between atoms: C_10  and  C_18
REMARK    7  A    between atoms: C_11  and  C_14
REMARK                            x       y       z     vdW  Elec       q    Type
REMARK                         _______ _______ _______ _____ _____    ______ ____
ROOT
ATOM      1  O   UNL     1     104.321 124.959 146.956  0.00  0.00    +0.000 OA
ATOM      2  O   UNL     1     102.982 122.739 145.680  0.00  0.00    +0.000 OA
ATOM      3  O   UNL     1     104.165 123.328 145.101  0.00  0.00    +0.000 OA
ATOM      4  O   UNL     1     101.937 123.822 148.183  0.00  0.00    +0.000 OA
ATOM      5  C   UNL     1     104.880 124.970 146.349  0.00  0.00    +0.000 A 
ATOM      6  C   UNL     1     103.658 123.861 146.325  0.00  0.00    +0.000 A 
ATOM      7  C   UNL     1     103.710 124.405 146.944  0.00  0.00    +0.000 A 
ATOM      8  C   UNL     1     104.828 124.426 145.730  0.00  0.00    +0.000 A 
ATOM      9  C   UNL     1     104.217 123.872 145.719  0.00  0.00    +0.000 A 
ATOM     10  C   UNL     1     103.026 123.279 146.302  0.00  0.00    +0.000 A 
ATOM     11  C   UNL     1     103.134 124.404 147.581  0.00  0.00    +0.000 A 
ATOM     12  C   UNL     1     102.495 123.830 147.575  0.00  0.00    +0.000 A 
ATOM     13  C   UNL     1     102.441 123.264 146.931  0.00  0.00    +0.000 A 
ENDROOT
BRANCH   5  14
ATOM     14  C   UNL     1     105.491 125.524 146.361  0.00  0.00    +0.000 A 
ATOM     15  C   UNL     1     106.712 126.634 146.385  0.00  0.00    +0.000 A 
ATOM     16  C   UNL     1     106.202 125.347 146.741  0.00  0.00    +0.000 A 
ATOM     17  C   UNL     1     106.812 125.903 146.753  0.00  0.00    +0.000 A 
ATOM     18  C   UNL     1     105.391 126.256 145.993  0.00  0.00    +0.000 A 
ATOM     19  C   UNL     1     106.001 126.810 146.005  0.00  0.00    +0.000 A 
BRANCH  17  20
ATOM     20  O   UNL     1     107.523 125.726 147.132  0.00  0.00    +0.000 OA
ATOM     21  C   UNL     1     107.544 125.145 147.719  0.00  0.00    +0.000 C 
ENDBRANCH  17  20
BRANCH  15  22
ATOM     22  O   UNL     1     107.322 127.189 146.396  0.00  0.00    +0.000 OA
BRANCH  22  24
ATOM     23  O   UNL     1     107.266 127.688 145.059  0.00  0.00    +0.000 OA
ATOM     24  C   UNL     1     107.312 127.825 145.872  0.00  0.00    +0.000 C 
BRANCH  24  25
ATOM     25  C   UNL     1     107.348 128.598 146.158  0.00  0.00    +0.000 C 
BRANCH  25  26
ATOM     26  C   UNL     1     107.781 129.169 145.752  0.00  0.00    +0.000 C 
ATOM     27  C   UNL     1     107.397 129.817 145.414  0.00  0.00    +0.000 C 
ATOM     28  C   UNL     1     108.600 129.094 145.682  0.00  0.00    +0.000 C 
ENDBRANCH  25  26
ENDBRANCH  24  25
ENDBRANCH  22  24
ENDBRANCH  15  22
ENDBRANCH   5  14
BRANCH   8  29
ATOM     29  O   UNL     1     105.387 124.437 145.124  0.00  0.00    +0.000 OA
ATOM     30  C   UNL     1     105.178 124.187 144.366  0.00  0.00    +0.000 C 
ENDBRANCH   8  29
TORSDOF 7
ENDMDL
MODEL 9
REMARK VINA RESULT:      -7.4      1.546      5.920
REMARK  Name = 44259688
REMARK  7 active torsions:
REMARK  status: ('A' for Active; 'I' for Inactive)
REMARK    1  A    between atoms: O_2  and  C_18
REMARK    2  A    between atoms: O_2  and  C_20
REMARK    3  A    between atoms: O_3  and  C_17
REMARK    4  A    between atoms: O_4  and  C_22
REMARK    5  A    between atoms: C_9  and  C_10
REMARK    6  A    between atoms: C_10  and  C_18
REMARK    7  A    between atoms: C_11  and  C_14
REMARK                            x       y       z     vdW  Elec       q    Type
REMARK                         _______ _______ _______ _____ _____    ______ ____
ROOT
ATOM      1  O   UNL     1     106.734 125.672 146.607  0.00  0.00    +0.000 OA
ATOM      2  O   UNL     1     105.768 124.411 149.021  0.00  0.00    +0.000 OA
ATOM      3  O   UNL     1     104.853 124.902 148.020  0.00  0.00    +0.000 OA
ATOM      4  O   UNL     1     108.641 124.704 148.584  0.00  0.00    +0.000 OA
ATOM      5  C   UNL     1     105.956 125.783 146.355  0.00  0.00    +0.000 A 
ATOM      6  C   UNL     1     106.257 125.048 147.801  0.00  0.00    +0.000 A 
ATOM      7  C   UNL     1     106.884 125.304 147.330  0.00  0.00    +0.000 A 
ATOM      8  C   UNL     1     105.329 125.526 146.826  0.00  0.00    +0.000 A 
ATOM      9  C   UNL     1     105.480 125.159 147.549  0.00  0.00    +0.000 A 
ATOM     10  C   UNL     1     106.401 124.664 148.557  0.00  0.00    +0.000 A 
ATOM     11  C   UNL     1     107.699 125.195 147.582  0.00  0.00    +0.000 A 
ATOM     12  C   UNL     1     107.862 124.813 148.334  0.00  0.00    +0.000 A 
ATOM     13  C   UNL     1     107.209 124.546 148.825  0.00  0.00    +0.000 A 
ENDROOT
BRANCH   5  14
ATOM     14  C   UNL     1     105.805 126.150 145.632  0.00  0.00    +0.000 A 
ATOM     15  C   UNL     1     105.505 126.886 144.186  0.00  0.00    +0.000 A 
ATOM     16  C   UNL     1     105.785 125.704 144.938  0.00  0.00    +0.000 A 
ATOM     17  C   UNL     1     105.635 126.072 144.215  0.00  0.00    +0.000 A 
ATOM     18  C   UNL     1     105.676 126.965 145.603  0.00  0.00    +0.000 A 
ATOM     19  C   UNL     1     105.526 127.332 144.880  0.00  0.00    +0.000 A 
BRANCH  17  20
ATOM     20  O   UNL     1     105.614 125.626 143.522  0.00  0.00    +0.000 OA
ATOM     21  C   UNL     1     105.964 124.878 143.502  0.00  0.00    +0.000 C 
ENDBRANCH  17  20
BRANCH  15  22
ATOM     22  O   UNL     1     105.355 127.255 143.463  0.00  0.00    +0.000 OA
BRANCH  22  24
ATOM     23  O   UNL     1     106.061 128.494 143.535  0.00  0.00    +0.000 OA
ATOM     24  C   UNL     1     105.360 128.077 143.410  0.00  0.00    +0.000 C 
BRANCH  24  25
ATOM     25  C   UNL     1     104.665 128.484 143.233  0.00  0.00    +0.000 C 
BRANCH  25  26
ATOM     26  C   UNL     1     104.613 128.933 142.543  0.00  0.00    +0.000 C 
ATOM     27  C   UNL     1     104.762 129.744 142.566  0.00  0.00    +0.000 C 
ATOM     28  C   UNL     1     104.413 128.571 141.829  0.00  0.00    +0.000 C 
ENDBRANCH  25  26
ENDBRANCH  24  25
ENDBRANCH  22  24
ENDBRANCH  15  22
ENDBRANCH   5  14
BRANCH   8  29
ATOM     29  O   UNL     1     104.552 125.637 146.574  0.00  0.00    +0.000 OA
ATOM     30  C   UNL     1     103.947 125.170 146.885  0.00  0.00    +0.000 C 
ENDBRANCH   8  29
TORSDOF 7
ENDMDL
MODEL 10
REMARK VINA RESULT:      -7.4      9.740     11.673
REMARK  Name = 44259688
REMARK  7 active torsions:
REMARK  status: ('A' for Active; 'I' for Inactive)
REMARK    1  A    between atoms: O_2  and  C_18
REMARK    2  A    between atoms: O_2  and  C_20
REMARK    3  A    between atoms: O_3  and  C_17
REMARK    4  A    between atoms: O_4  and  C_22
REMARK    5  A    between atoms: C_9  and  C_10
REMARK    6  A    between atoms: C_10  and  C_18
REMARK    7  A    between atoms: C_11  and  C_14
REMARK                            x       y       z     vdW  Elec       q    Type
REMARK                         _______ _______ _______ _____ _____    ______ ____
ROOT
ATOM      1  O   UNL     1     113.228 126.057 136.781  0.00  0.00    +0.000 OA
ATOM      2  O   UNL     1     111.167 124.146 136.110  0.00  0.00    +0.000 OA
ATOM      3  O   UNL     1     111.036 125.538 135.756  0.00  0.00    +0.000 OA
ATOM      4  O   UNL     1     113.563 123.262 137.528  0.00  0.00    +0.000 OA
ATOM      5  C   UNL     1     112.785 126.657 136.429  0.00  0.00    +0.000 A 
ATOM      6  C   UNL     1     112.209 125.111 136.450  0.00  0.00    +0.000 A 
ATOM      7  C   UNL     1     112.940 125.284 136.791  0.00  0.00    +0.000 A 
ATOM      8  C   UNL     1     112.054 126.485 136.088  0.00  0.00    +0.000 A 
ATOM      9  C   UNL     1     111.767 125.711 136.098  0.00  0.00    +0.000 A 
ATOM     10  C   UNL     1     111.899 124.309 136.454  0.00  0.00    +0.000 A 
ATOM     11  C   UNL     1     113.411 124.667 137.161  0.00  0.00    +0.000 A 
ATOM     12  C   UNL     1     113.117 123.860 137.175  0.00  0.00    +0.000 A 
ATOM     13  C   UNL     1     112.356 123.680 136.819  0.00  0.00    +0.000 A 
ENDROOT
BRANCH   5  14
ATOM     14  C   UNL     1     113.073 127.430 136.419  0.00  0.00    +0.000 A 
ATOM     15  C   UNL     1     113.650 128.976 136.398  0.00  0.00    +0.000 A 
ATOM     16  C   UNL     1     112.931 127.932 137.059  0.00  0.00    +0.000 A 
ATOM     17  C   UNL     1     113.220 128.705 137.048  0.00  0.00    +0.000 A 
ATOM     18  C   UNL     1     113.503 127.701 135.769  0.00  0.00    +0.000 A 
ATOM     19  C   UNL     1     113.792 128.474 135.759  0.00  0.00    +0.000 A 
BRANCH  17  20
ATOM     20  O   UNL     1     113.078 129.207 137.687  0.00  0.00    +0.000 OA
ATOM     21  C   UNL     1     112.820 128.896 138.407  0.00  0.00    +0.000 C 
ENDBRANCH  17  20
BRANCH  15  22
ATOM     22  O   UNL     1     113.939 129.749 136.387  0.00  0.00    +0.000 OA
BRANCH  22  24
ATOM     23  O   UNL     1     113.796 130.118 135.015  0.00  0.00    +0.000 OA
ATOM     24  C   UNL     1     114.260 130.060 135.695  0.00  0.00    +0.000 C 
BRANCH  24  25
ATOM     25  C   UNL     1     115.045 130.314 135.680  0.00  0.00    +0.000 C 
BRANCH  25  26
ATOM     26  C   UNL     1     115.243 131.023 135.310  0.00  0.00    +0.000 C 
ATOM     27  C   UNL     1     115.686 131.016 134.614  0.00  0.00    +0.000 C 
ATOM     28  C   UNL     1     114.998 131.741 135.635  0.00  0.00    +0.000 C 
ENDBRANCH  25  26
ENDBRANCH  24  25
ENDBRANCH  22  24
ENDBRANCH  15  22
ENDBRANCH   5  14
BRANCH   8  29
ATOM     29  O   UNL     1     111.611 127.085 135.736  0.00  0.00    +0.000 OA
ATOM     30  C   UNL     1     110.873 126.915 135.410  0.00  0.00    +0.000 C 
ENDBRANCH   8  29
TORSDOF 7
ENDMDL
