MODEL 1
REMARK VINA RESULT:      -8.8      0.000      0.000
REMARK  Name = 131752198
REMARK  7 active torsions:
REMARK  status: ('A' for Active; 'I' for Inactive)
REMARK    1  A    between atoms: O_2  and  C_14
REMARK    2  A    between atoms: O_2  and  C_16
REMARK    3  A    between atoms: C_13  and  C_15
REMARK    4  A    between atoms: C_19  and  C_23
REMARK    5  A    between atoms: C_22  and  C_23
REMARK    6  A    between atoms: C_22  and  C_24
REMARK    7  A    between atoms: C_24  and  C_25
REMARK                            x       y       z     vdW  Elec       q    Type
REMARK                         _______ _______ _______ _____ _____    ______ ____
ROOT
ATOM      1  O   UNL     1     110.814 125.756 134.987  0.00  0.00    +0.000 OA
ATOM      2  O   UNL     1     110.731 125.365 137.817  0.00  0.00    +0.000 OA
ATOM      3  C   UNL     1     109.609 126.723 136.529  0.00  0.00    +0.000 A 
ATOM      4  C   UNL     1     109.878 126.335 137.206  0.00  0.00    +0.000 A 
ATOM      5  C   UNL     1     109.920 126.531 135.791  0.00  0.00    +0.000 A 
ATOM      6  C   UNL     1     110.772 125.560 136.402  0.00  0.00    +0.000 A 
ATOM      7  C   UNL     1     110.502 125.949 135.727  0.00  0.00    +0.000 A 
ATOM      8  C   UNL     1     110.460 125.754 137.142  0.00  0.00    +0.000 A 
ENDROOT
BRANCH   6  10
ATOM      9  O   UNL     1     111.149 124.214 136.110  0.00  0.00    +0.000 OA
ATOM     10  C   UNL     1     111.354 124.979 136.339  0.00  0.00    +0.000 C 
BRANCH  10  11
ATOM     11  C   UNL     1     112.141 125.164 136.505  0.00  0.00    +0.000 C 
BRANCH  11  12
ATOM     12  C   UNL     1     112.728 124.594 136.401  0.00  0.00    +0.000 C 
BRANCH  12  13
ATOM     13  C   UNL     1     113.510 124.766 136.600  0.00  0.00    +0.000 A 
ATOM     14  C   UNL     1     113.989 125.184 136.074  0.00  0.00    +0.000 A 
ATOM     15  C   UNL     1     113.814 124.519 137.327  0.00  0.00    +0.000 A 
ATOM     16  C   UNL     1     114.770 125.355 136.275  0.00  0.00    +0.000 A 
ATOM     17  C   UNL     1     114.595 124.690 137.527  0.00  0.00    +0.000 A 
ATOM     18  C   UNL     1     115.074 125.109 137.001  0.00  0.00    +0.000 A 
ENDBRANCH  12  13
ENDBRANCH  11  12
ENDBRANCH  10  11
ENDBRANCH   6  10
BRANCH   3  19
ATOM     19  O   UNL     1     109.027 127.305 136.593  0.00  0.00    +0.000 OA
BRANCH  19  28
ATOM     20  O   UNL     1     109.907 128.403 136.840  0.00  0.00    +0.000 OA
ATOM     21  O   UNL     1     108.452 129.875 135.482  0.00  0.00    +0.000 OA
ATOM     22  O   UNL     1     109.817 130.482 136.182  0.00  0.00    +0.000 OA
ATOM     23  O   UNL     1     108.057 128.286 135.687  0.00  0.00    +0.000 OA
ATOM     24  C   UNL     1     108.937 129.384 135.935  0.00  0.00    +0.000 C 
ATOM     25  C   UNL     1     109.619 129.688 136.285  0.00  0.00    +0.000 C 
ATOM     26  C   UNL     1     108.739 128.590 136.037  0.00  0.00    +0.000 C 
ATOM     27  C   UNL     1     110.104 129.197 136.737  0.00  0.00    +0.000 C 
ATOM     28  C   UNL     1     109.224 128.099 136.490  0.00  0.00    +0.000 C 
BRANCH  27  30
ATOM     29  O   UNL     1     110.909 129.408 137.899  0.00  0.00    +0.000 OA
ATOM     30  C   UNL     1     110.786 129.501 137.087  0.00  0.00    +0.000 C 
ENDBRANCH  27  30
ENDBRANCH  19  28
ENDBRANCH   3  19
TORSDOF 7
ENDMDL
MODEL 2
REMARK VINA RESULT:      -8.2      4.049      5.345
REMARK  Name = 131752198
REMARK  7 active torsions:
REMARK  status: ('A' for Active; 'I' for Inactive)
REMARK    1  A    between atoms: O_2  and  C_14
REMARK    2  A    between atoms: O_2  and  C_16
REMARK    3  A    between atoms: C_13  and  C_15
REMARK    4  A    between atoms: C_19  and  C_23
REMARK    5  A    between atoms: C_22  and  C_23
REMARK    6  A    between atoms: C_22  and  C_24
REMARK    7  A    between atoms: C_24  and  C_25
REMARK                            x       y       z     vdW  Elec       q    Type
REMARK                         _______ _______ _______ _____ _____    ______ ____
ROOT
ATOM      1  O   UNL     1     113.902 126.541 140.749  0.00  0.00    +0.000 OA
ATOM      2  O   UNL     1     112.406 128.177 138.945  0.00  0.00    +0.000 OA
ATOM      3  C   UNL     1     113.483 128.683 140.776  0.00  0.00    +0.000 A 
ATOM      4  C   UNL     1     113.027 128.762 140.093  0.00  0.00    +0.000 A 
ATOM      5  C   UNL     1     113.775 127.944 140.995  0.00  0.00    +0.000 A 
ATOM      6  C   UNL     1     113.154 127.359 139.847  0.00  0.00    +0.000 A 
ATOM      7  C   UNL     1     113.610 127.282 140.530  0.00  0.00    +0.000 A 
ATOM      8  C   UNL     1     112.862 128.100 139.628  0.00  0.00    +0.000 A 
ENDROOT
BRANCH   6  10
ATOM      9  O   UNL     1     112.332 126.229 139.551  0.00  0.00    +0.000 OA
ATOM     10  C   UNL     1     112.990 126.697 139.383  0.00  0.00    +0.000 C 
BRANCH  10  11
ATOM     11  C   UNL     1     113.484 126.504 138.751  0.00  0.00    +0.000 C 
BRANCH  11  12
ATOM     12  C   UNL     1     113.319 125.843 138.286  0.00  0.00    +0.000 C 
BRANCH  12  13
ATOM     13  C   UNL     1     113.824 125.636 137.668  0.00  0.00    +0.000 A 
ATOM     14  C   UNL     1     113.759 126.013 136.937  0.00  0.00    +0.000 A 
ATOM     15  C   UNL     1     114.396 125.051 137.782  0.00  0.00    +0.000 A 
ATOM     16  C   UNL     1     114.266 125.805 136.320  0.00  0.00    +0.000 A 
ATOM     17  C   UNL     1     114.901 124.843 137.164  0.00  0.00    +0.000 A 
ATOM     18  C   UNL     1     114.836 125.220 136.433  0.00  0.00    +0.000 A 
ENDBRANCH  12  13
ENDBRANCH  11  12
ENDBRANCH  10  11
ENDBRANCH   6  10
BRANCH   3  19
ATOM     19  O   UNL     1     113.647 129.345 141.240  0.00  0.00    +0.000 OA
BRANCH  19  28
ATOM     20  O   UNL     1     112.542 129.185 142.131  0.00  0.00    +0.000 OA
ATOM     21  O   UNL     1     112.315 131.644 142.292  0.00  0.00    +0.000 OA
ATOM     22  O   UNL     1     111.286 130.665 143.128  0.00  0.00    +0.000 OA
ATOM     23  O   UNL     1     113.497 130.985 141.347  0.00  0.00    +0.000 OA
ATOM     24  C   UNL     1     112.391 130.824 142.238  0.00  0.00    +0.000 C 
ATOM     25  C   UNL     1     111.876 130.335 142.656  0.00  0.00    +0.000 C 
ATOM     26  C   UNL     1     112.982 130.495 141.765  0.00  0.00    +0.000 C 
ATOM     27  C   UNL     1     111.951 129.515 142.603  0.00  0.00    +0.000 C 
ATOM     28  C   UNL     1     113.057 129.675 141.712  0.00  0.00    +0.000 C 
BRANCH  27  30
ATOM     29  O   UNL     1     111.738 128.466 143.549  0.00  0.00    +0.000 OA
ATOM     30  C   UNL     1     111.437 129.025 143.021  0.00  0.00    +0.000 C 
ENDBRANCH  27  30
ENDBRANCH  19  28
ENDBRANCH   3  19
TORSDOF 7
ENDMDL
MODEL 3
REMARK VINA RESULT:      -8.1      6.798      8.446
REMARK  Name = 131752198
REMARK  7 active torsions:
REMARK  status: ('A' for Active; 'I' for Inactive)
REMARK    1  A    between atoms: O_2  and  C_14
REMARK    2  A    between atoms: O_2  and  C_16
REMARK    3  A    between atoms: C_13  and  C_15
REMARK    4  A    between atoms: C_19  and  C_23
REMARK    5  A    between atoms: C_22  and  C_23
REMARK    6  A    between atoms: C_22  and  C_24
REMARK    7  A    between atoms: C_24  and  C_25
REMARK                            x       y       z     vdW  Elec       q    Type
REMARK                         _______ _______ _______ _____ _____    ______ ____
ROOT
ATOM      1  O   UNL     1     105.201 123.662 141.898  0.00  0.00    +0.000 OA
ATOM      2  O   UNL     1     106.597 124.893 139.729  0.00  0.00    +0.000 OA
ATOM      3  C   UNL     1     106.533 125.390 141.854  0.00  0.00    +0.000 A 
ATOM      4  C   UNL     1     106.724 125.420 141.052  0.00  0.00    +0.000 A 
ATOM      5  C   UNL     1     106.026 124.805 142.136  0.00  0.00    +0.000 A 
ATOM      6  C   UNL     1     105.899 124.278 140.813  0.00  0.00    +0.000 A 
ATOM      7  C   UNL     1     105.709 124.248 141.616  0.00  0.00    +0.000 A 
ATOM      8  C   UNL     1     106.407 124.864 140.531  0.00  0.00    +0.000 A 
ENDROOT
BRANCH   6  10
ATOM      9  O   UNL     1     105.956 122.994 140.189  0.00  0.00    +0.000 OA
ATOM     10  C   UNL     1     105.582 123.721 140.293  0.00  0.00    +0.000 C 
BRANCH  10  11
ATOM     11  C   UNL     1     104.890 123.893 139.878  0.00  0.00    +0.000 C 
BRANCH  11  12
ATOM     12  C   UNL     1     104.551 123.323 139.387  0.00  0.00    +0.000 C 
BRANCH  12  13
ATOM     13  C   UNL     1     103.859 123.493 138.972  0.00  0.00    +0.000 A 
ATOM     14  C   UNL     1     103.899 123.740 138.186  0.00  0.00    +0.000 A 
ATOM     15  C   UNL     1     103.126 123.416 139.344  0.00  0.00    +0.000 A 
ATOM     16  C   UNL     1     103.206 123.910 137.772  0.00  0.00    +0.000 A 
ATOM     17  C   UNL     1     102.434 123.587 138.929  0.00  0.00    +0.000 A 
ATOM     18  C   UNL     1     102.474 123.834 138.143  0.00  0.00    +0.000 A 
ENDBRANCH  12  13
ENDBRANCH  11  12
ENDBRANCH  10  11
ENDBRANCH   6  10
BRANCH   3  19
ATOM     19  O   UNL     1     106.850 125.946 142.374  0.00  0.00    +0.000 OA
BRANCH  19  28
ATOM     20  O   UNL     1     105.886 126.981 142.168  0.00  0.00    +0.000 OA
ATOM     21  O   UNL     1     105.919 127.493 144.590  0.00  0.00    +0.000 OA
ATOM     22  O   UNL     1     104.945 128.356 143.577  0.00  0.00    +0.000 OA
ATOM     23  O   UNL     1     106.872 126.288 143.988  0.00  0.00    +0.000 OA
ATOM     24  C   UNL     1     105.908 127.322 143.783  0.00  0.00    +0.000 C 
ATOM     25  C   UNL     1     105.421 127.754 143.277  0.00  0.00    +0.000 C 
ATOM     26  C   UNL     1     106.385 126.719 143.482  0.00  0.00    +0.000 C 
ATOM     27  C   UNL     1     105.410 127.583 142.470  0.00  0.00    +0.000 C 
ATOM     28  C   UNL     1     106.374 126.549 142.675  0.00  0.00    +0.000 C 
BRANCH  27  30
ATOM     29  O   UNL     1     105.242 128.374 141.291  0.00  0.00    +0.000 OA
ATOM     30  C   UNL     1     104.923 128.015 141.963  0.00  0.00    +0.000 C 
ENDBRANCH  27  30
ENDBRANCH  19  28
ENDBRANCH   3  19
TORSDOF 7
ENDMDL
MODEL 4
REMARK VINA RESULT:      -8.0      1.671      2.800
REMARK  Name = 131752198
REMARK  7 active torsions:
REMARK  status: ('A' for Active; 'I' for Inactive)
REMARK    1  A    between atoms: O_2  and  C_14
REMARK    2  A    between atoms: O_2  and  C_16
REMARK    3  A    between atoms: C_13  and  C_15
REMARK    4  A    between atoms: C_19  and  C_23
REMARK    5  A    between atoms: C_22  and  C_23
REMARK    6  A    between atoms: C_22  and  C_24
REMARK    7  A    between atoms: C_24  and  C_25
REMARK                            x       y       z     vdW  Elec       q    Type
REMARK                         _______ _______ _______ _____ _____    ______ ____
ROOT
ATOM      1  O   UNL     1     113.047 128.483 137.746  0.00  0.00    +0.000 OA
ATOM      2  O   UNL     1     112.842 128.402 134.896  0.00  0.00    +0.000 OA
ATOM      3  C   UNL     1     111.665 129.482 136.384  0.00  0.00    +0.000 A 
ATOM      4  C   UNL     1     111.933 129.202 135.655  0.00  0.00    +0.000 A 
ATOM      5  C   UNL     1     112.035 129.243 137.080  0.00  0.00    +0.000 A 
ATOM      6  C   UNL     1     112.945 128.443 136.321  0.00  0.00    +0.000 A 
ATOM      7  C   UNL     1     112.676 128.723 137.049  0.00  0.00    +0.000 A 
ATOM      8  C   UNL     1     112.573 128.682 135.624  0.00  0.00    +0.000 A 
ENDROOT
BRANCH   6  10
ATOM      9  O   UNL     1     114.331 128.201 136.077  0.00  0.00    +0.000 OA
ATOM     10  C   UNL     1     113.585 127.923 136.290  0.00  0.00    +0.000 C 
BRANCH  10  11
ATOM     11  C   UNL     1     113.478 127.126 136.472  0.00  0.00    +0.000 C 
BRANCH  11  12
ATOM     12  C   UNL     1     114.091 126.588 136.347  0.00  0.00    +0.000 C 
BRANCH  12  13
ATOM     13  C   UNL     1     114.014 125.807 136.602  0.00  0.00    +0.000 A 
ATOM     14  C   UNL     1     113.423 125.326 136.287  0.00  0.00    +0.000 A 
ATOM     15  C   UNL     1     114.530 125.508 137.172  0.00  0.00    +0.000 A 
ATOM     16  C   UNL     1     113.347 124.545 136.542  0.00  0.00    +0.000 A 
ATOM     17  C   UNL     1     114.454 124.727 137.427  0.00  0.00    +0.000 A 
ATOM     18  C   UNL     1     113.862 124.246 137.112  0.00  0.00    +0.000 A 
ENDBRANCH  12  13
ENDBRANCH  11  12
ENDBRANCH  10  11
ENDBRANCH   6  10
BRANCH   3  19
ATOM     19  O   UNL     1     111.024 130.001 136.415  0.00  0.00    +0.000 OA
BRANCH  19  28
ATOM     20  O   UNL     1     110.033 128.975 136.504  0.00  0.00    +0.000 OA
ATOM     21  O   UNL     1     108.436 130.411 135.274  0.00  0.00    +0.000 OA
ATOM     22  O   UNL     1     107.979 128.907 135.773  0.00  0.00    +0.000 OA
ATOM     23  O   UNL     1     109.960 130.958 135.594  0.00  0.00    +0.000 OA
ATOM     24  C   UNL     1     108.969 129.932 135.684  0.00  0.00    +0.000 C 
ATOM     25  C   UNL     1     108.740 129.181 135.934  0.00  0.00    +0.000 C 
ATOM     26  C   UNL     1     109.730 130.207 135.844  0.00  0.00    +0.000 C 
ATOM     27  C   UNL     1     109.272 128.702 136.344  0.00  0.00    +0.000 C 
ATOM     28  C   UNL     1     110.263 129.728 136.254  0.00  0.00    +0.000 C 
BRANCH  27  30
ATOM     29  O   UNL     1     109.121 127.739 137.388  0.00  0.00    +0.000 OA
ATOM     30  C   UNL     1     109.043 127.950 136.594  0.00  0.00    +0.000 C 
ENDBRANCH  27  30
ENDBRANCH  19  28
ENDBRANCH   3  19
TORSDOF 7
ENDMDL
MODEL 5
REMARK VINA RESULT:      -8.0      3.691      4.980
REMARK  Name = 131752198
REMARK  7 active torsions:
REMARK  status: ('A' for Active; 'I' for Inactive)
REMARK    1  A    between atoms: O_2  and  C_14
REMARK    2  A    between atoms: O_2  and  C_16
REMARK    3  A    between atoms: C_13  and  C_15
REMARK    4  A    between atoms: C_19  and  C_23
REMARK    5  A    between atoms: C_22  and  C_23
REMARK    6  A    between atoms: C_22  and  C_24
REMARK    7  A    between atoms: C_24  and  C_25
REMARK                            x       y       z     vdW  Elec       q    Type
REMARK                         _______ _______ _______ _____ _____    ______ ____
ROOT
ATOM      1  O   UNL     1     111.677 127.821 138.723  0.00  0.00    +0.000 OA
ATOM      2  O   UNL     1     113.489 126.812 140.689  0.00  0.00    +0.000 OA
ATOM      3  C   UNL     1     112.581 128.784 140.461  0.00  0.00    +0.000 A 
ATOM      4  C   UNL     1     113.035 128.165 140.764  0.00  0.00    +0.000 A 
ATOM      5  C   UNL     1     112.129 128.669 139.781  0.00  0.00    +0.000 A 
ATOM      6  C   UNL     1     112.583 127.316 139.706  0.00  0.00    +0.000 A 
ATOM      7  C   UNL     1     112.130 127.936 139.404  0.00  0.00    +0.000 A 
ATOM      8  C   UNL     1     113.036 127.431 140.387  0.00  0.00    +0.000 A 
ENDROOT
BRANCH   6  10
ATOM      9  O   UNL     1     112.041 126.004 139.552  0.00  0.00    +0.000 OA
ATOM     10  C   UNL     1     112.584 126.583 139.329  0.00  0.00    +0.000 C 
BRANCH  10  11
ATOM     11  C   UNL     1     113.128 126.429 138.728  0.00  0.00    +0.000 C 
BRANCH  11  12
ATOM     12  C   UNL     1     113.098 125.714 138.317  0.00  0.00    +0.000 C 
BRANCH  12  13
ATOM     13  C   UNL     1     113.637 125.562 137.712  0.00  0.00    +0.000 A 
ATOM     14  C   UNL     1     113.465 125.790 136.938  0.00  0.00    +0.000 A 
ATOM     15  C   UNL     1     114.350 125.182 137.882  0.00  0.00    +0.000 A 
ATOM     16  C   UNL     1     114.006 125.637 136.334  0.00  0.00    +0.000 A 
ATOM     17  C   UNL     1     114.890 125.029 137.277  0.00  0.00    +0.000 A 
ATOM     18  C   UNL     1     114.717 125.257 136.503  0.00  0.00    +0.000 A 
ENDBRANCH  12  13
ENDBRANCH  11  12
ENDBRANCH  10  11
ENDBRANCH   6  10
BRANCH   3  19
ATOM     19  O   UNL     1     112.580 129.517 140.838  0.00  0.00    +0.000 OA
BRANCH  19  28
ATOM     20  O   UNL     1     113.642 130.059 140.050  0.00  0.00    +0.000 OA
ATOM     21  O   UNL     1     114.354 131.453 141.968  0.00  0.00    +0.000 OA
ATOM     22  O   UNL     1     115.178 131.529 140.541  0.00  0.00    +0.000 OA
ATOM     23  O   UNL     1     113.054 130.447 142.116  0.00  0.00    +0.000 OA
ATOM     24  C   UNL     1     114.117 130.988 141.329  0.00  0.00    +0.000 C 
ATOM     25  C   UNL     1     114.529 131.027 140.616  0.00  0.00    +0.000 C 
ATOM     26  C   UNL     1     113.467 130.485 141.404  0.00  0.00    +0.000 C 
ATOM     27  C   UNL     1     114.292 130.562 139.977  0.00  0.00    +0.000 C 
ATOM     28  C   UNL     1     113.230 130.020 140.765  0.00  0.00    +0.000 C 
BRANCH  27  30
ATOM     29  O   UNL     1     114.303 130.784 138.565  0.00  0.00    +0.000 OA
ATOM     30  C   UNL     1     114.704 130.599 139.263  0.00  0.00    +0.000 C 
ENDBRANCH  27  30
ENDBRANCH  19  28
ENDBRANCH   3  19
TORSDOF 7
ENDMDL
MODEL 6
REMARK VINA RESULT:      -8.0      3.749      5.126
REMARK  Name = 131752198
REMARK  7 active torsions:
REMARK  status: ('A' for Active; 'I' for Inactive)
REMARK    1  A    between atoms: O_2  and  C_14
REMARK    2  A    between atoms: O_2  and  C_16
REMARK    3  A    between atoms: C_13  and  C_15
REMARK    4  A    between atoms: C_19  and  C_23
REMARK    5  A    between atoms: C_22  and  C_23
REMARK    6  A    between atoms: C_22  and  C_24
REMARK    7  A    between atoms: C_24  and  C_25
REMARK                            x       y       z     vdW  Elec       q    Type
REMARK                         _______ _______ _______ _____ _____    ______ ____
ROOT
ATOM      1  O   UNL     1     112.436 126.240 140.260  0.00  0.00    +0.000 OA
ATOM      2  O   UNL     1     112.793 128.115 138.132  0.00  0.00    +0.000 OA
ATOM      3  C   UNL     1     113.623 128.069 140.151  0.00  0.00    +0.000 A 
ATOM      4  C   UNL     1     113.460 128.315 139.380  0.00  0.00    +0.000 A 
ATOM      5  C   UNL     1     113.282 127.378 140.444  0.00  0.00    +0.000 A 
ATOM      6  C   UNL     1     112.615 127.177 139.196  0.00  0.00    +0.000 A 
ATOM      7  C   UNL     1     112.778 126.932 139.967  0.00  0.00    +0.000 A 
ATOM      8  C   UNL     1     112.956 127.869 138.903  0.00  0.00    +0.000 A 
ENDROOT
BRANCH   6  10
ATOM      9  O   UNL     1     111.314 126.935 138.657  0.00  0.00    +0.000 OA
ATOM     10  C   UNL     1     112.111 126.731 138.719  0.00  0.00    +0.000 C 
BRANCH  10  11
ATOM     11  C   UNL     1     112.404 126.082 138.303  0.00  0.00    +0.000 C 
BRANCH  11  12
ATOM     12  C   UNL     1     111.938 125.713 137.731  0.00  0.00    +0.000 C 
BRANCH  12  13
ATOM     13  C   UNL     1     112.196 125.015 137.375  0.00  0.00    +0.000 A 
ATOM     14  C   UNL     1     112.911 125.001 136.965  0.00  0.00    +0.000 A 
ATOM     15  C   UNL     1     111.736 124.331 137.429  0.00  0.00    +0.000 A 
ATOM     16  C   UNL     1     113.168 124.302 136.609  0.00  0.00    +0.000 A 
ATOM     17  C   UNL     1     111.994 123.633 137.073  0.00  0.00    +0.000 A 
ATOM     18  C   UNL     1     112.710 123.619 136.663  0.00  0.00    +0.000 A 
ENDBRANCH  12  13
ENDBRANCH  11  12
ENDBRANCH  10  11
ENDBRANCH   6  10
BRANCH   3  19
ATOM     19  O   UNL     1     114.126 128.514 140.629  0.00  0.00    +0.000 OA
BRANCH  19  28
ATOM     20  O   UNL     1     113.150 129.233 141.385  0.00  0.00    +0.000 OA
ATOM     21  O   UNL     1     114.481 131.304 141.137  0.00  0.00    +0.000 OA
ATOM     22  O   UNL     1     113.061 131.331 141.976  0.00  0.00    +0.000 OA
ATOM     23  O   UNL     1     115.014 129.896 140.463  0.00  0.00    +0.000 OA
ATOM     24  C   UNL     1     114.037 130.614 141.220  0.00  0.00    +0.000 C 
ATOM     25  C   UNL     1     113.327 130.628 141.639  0.00  0.00    +0.000 C 
ATOM     26  C   UNL     1     114.304 129.910 140.883  0.00  0.00    +0.000 C 
ATOM     27  C   UNL     1     112.884 129.937 141.722  0.00  0.00    +0.000 C 
ATOM     28  C   UNL     1     113.860 129.219 140.965  0.00  0.00    +0.000 C 
BRANCH  27  30
ATOM     29  O   UNL     1     112.055 129.426 142.768  0.00  0.00    +0.000 OA
ATOM     30  C   UNL     1     112.173 129.950 142.141  0.00  0.00    +0.000 C 
ENDBRANCH  27  30
ENDBRANCH  19  28
ENDBRANCH   3  19
TORSDOF 7
ENDMDL
MODEL 7
REMARK VINA RESULT:      -8.0      9.633     11.525
REMARK  Name = 131752198
REMARK  7 active torsions:
REMARK  status: ('A' for Active; 'I' for Inactive)
REMARK    1  A    between atoms: O_2  and  C_14
REMARK    2  A    between atoms: O_2  and  C_16
REMARK    3  A    between atoms: C_13  and  C_15
REMARK    4  A    between atoms: C_19  and  C_23
REMARK    5  A    between atoms: C_22  and  C_23
REMARK    6  A    between atoms: C_22  and  C_24
REMARK    7  A    between atoms: C_24  and  C_25
REMARK                            x       y       z     vdW  Elec       q    Type
REMARK                         _______ _______ _______ _____ _____    ______ ____
ROOT
ATOM      1  O   UNL     1     106.810 126.942 145.349  0.00  0.00    +0.000 OA
ATOM      2  O   UNL     1     105.602 125.091 143.537  0.00  0.00    +0.000 OA
ATOM      3  C   UNL     1     105.964 124.958 145.685  0.00  0.00    +0.000 A 
ATOM      4  C   UNL     1     105.722 124.759 144.922  0.00  0.00    +0.000 A 
ATOM      5  C   UNL     1     106.326 125.685 145.828  0.00  0.00    +0.000 A 
ATOM      6  C   UNL     1     106.206 126.016 144.443  0.00  0.00    +0.000 A 
ATOM      7  C   UNL     1     106.447 126.214 145.206  0.00  0.00    +0.000 A 
ATOM      8  C   UNL     1     105.843 125.288 144.301  0.00  0.00    +0.000 A 
ENDROOT
BRANCH   6  10
ATOM      9  O   UNL     1     107.056 126.570 143.438  0.00  0.00    +0.000 OA
ATOM     10  C   UNL     1     106.327 126.545 143.822  0.00  0.00    +0.000 C 
BRANCH  10  11
ATOM     11  C   UNL     1     105.718 127.050 143.585  0.00  0.00    +0.000 C 
BRANCH  11  12
ATOM     12  C   UNL     1     105.858 127.620 143.006  0.00  0.00    +0.000 C 
BRANCH  12  13
ATOM     13  C   UNL     1     105.235 128.080 142.720  0.00  0.00    +0.000 A 
ATOM     14  C   UNL     1     104.927 128.691 143.181  0.00  0.00    +0.000 A 
ATOM     15  C   UNL     1     104.919 127.927 141.973  0.00  0.00    +0.000 A 
ATOM     16  C   UNL     1     104.304 129.149 142.894  0.00  0.00    +0.000 A 
ATOM     17  C   UNL     1     104.296 128.386 141.687  0.00  0.00    +0.000 A 
ATOM     18  C   UNL     1     103.989 128.997 142.148  0.00  0.00    +0.000 A 
ENDBRANCH  12  13
ENDBRANCH  11  12
ENDBRANCH  10  11
ENDBRANCH   6  10
BRANCH   3  19
ATOM     19  O   UNL     1     105.843 124.429 146.307  0.00  0.00    +0.000 OA
BRANCH  19  28
ATOM     20  O   UNL     1     104.450 124.631 146.555  0.00  0.00    +0.000 OA
ATOM     21  O   UNL     1     104.900 124.746 148.986  0.00  0.00    +0.000 OA
ATOM     22  O   UNL     1     103.358 124.910 148.424  0.00  0.00    +0.000 OA
ATOM     23  O   UNL     1     106.143 124.506 147.927  0.00  0.00    +0.000 OA
ATOM     24  C   UNL     1     104.750 124.708 148.176  0.00  0.00    +0.000 C 
ATOM     25  C   UNL     1     103.979 124.789 147.895  0.00  0.00    +0.000 C 
ATOM     26  C   UNL     1     105.372 124.587 147.647  0.00  0.00    +0.000 C 
ATOM     27  C   UNL     1     103.829 124.751 147.085  0.00  0.00    +0.000 C 
ATOM     28  C   UNL     1     105.222 124.549 146.836  0.00  0.00    +0.000 C 
BRANCH  27  30
ATOM     29  O   UNL     1     102.769 124.308 146.236  0.00  0.00    +0.000 OA
ATOM     30  C   UNL     1     103.058 124.833 146.803  0.00  0.00    +0.000 C 
ENDBRANCH  27  30
ENDBRANCH  19  28
ENDBRANCH   3  19
TORSDOF 7
ENDMDL
MODEL 8
REMARK VINA RESULT:      -7.9      3.306      4.894
REMARK  Name = 131752198
REMARK  7 active torsions:
REMARK  status: ('A' for Active; 'I' for Inactive)
REMARK    1  A    between atoms: O_2  and  C_14
REMARK    2  A    between atoms: O_2  and  C_16
REMARK    3  A    between atoms: C_13  and  C_15
REMARK    4  A    between atoms: C_19  and  C_23
REMARK    5  A    between atoms: C_22  and  C_23
REMARK    6  A    between atoms: C_22  and  C_24
REMARK    7  A    between atoms: C_24  and  C_25
REMARK                            x       y       z     vdW  Elec       q    Type
REMARK                         _______ _______ _______ _____ _____    ______ ____
ROOT
ATOM      1  O   UNL     1     112.765 128.347 137.789  0.00  0.00    +0.000 OA
ATOM      2  O   UNL     1     113.429 125.586 138.107  0.00  0.00    +0.000 OA
ATOM      3  C   UNL     1     113.269 127.195 139.573  0.00  0.00    +0.000 A 
ATOM      4  C   UNL     1     113.392 126.447 139.247  0.00  0.00    +0.000 A 
ATOM      5  C   UNL     1     113.060 127.828 139.088  0.00  0.00    +0.000 A 
ATOM      6  C   UNL     1     113.097 126.966 137.948  0.00  0.00    +0.000 A 
ATOM      7  C   UNL     1     112.974 127.714 138.275  0.00  0.00    +0.000 A 
ATOM      8  C   UNL     1     113.306 126.333 138.434  0.00  0.00    +0.000 A 
ENDROOT
BRANCH   6  10
ATOM      9  O   UNL     1     113.659 126.950 136.635  0.00  0.00    +0.000 OA
ATOM     10  C   UNL     1     113.011 126.852 137.135  0.00  0.00    +0.000 C 
BRANCH  10  11
ATOM     11  C   UNL     1     112.276 126.641 136.825  0.00  0.00    +0.000 C 
BRANCH  11  12
ATOM     12  C   UNL     1     112.198 126.495 136.016  0.00  0.00    +0.000 C 
BRANCH  12  13
ATOM     13  C   UNL     1     111.460 126.304 135.701  0.00  0.00    +0.000 A 
ATOM     14  C   UNL     1     110.995 126.891 135.355  0.00  0.00    +0.000 A 
ATOM     15  C   UNL     1     111.187 125.526 135.732  0.00  0.00    +0.000 A 
ATOM     16  C   UNL     1     110.256 126.699 135.040  0.00  0.00    +0.000 A 
ATOM     17  C   UNL     1     110.449 125.335 135.416  0.00  0.00    +0.000 A 
ATOM     18  C   UNL     1     109.984 125.922 135.070  0.00  0.00    +0.000 A 
ENDBRANCH  12  13
ENDBRANCH  11  12
ENDBRANCH  10  11
ENDBRANCH   6  10
BRANCH   3  19
ATOM     19  O   UNL     1     113.355 127.309 140.386  0.00  0.00    +0.000 OA
BRANCH  19  28
ATOM     20  O   UNL     1     112.032 126.931 140.773  0.00  0.00    +0.000 OA
ATOM     21  O   UNL     1     112.004 128.752 142.450  0.00  0.00    +0.000 OA
ATOM     22  O   UNL     1     110.692 127.768 142.279  0.00  0.00    +0.000 OA
ATOM     23  O   UNL     1     113.336 128.522 141.503  0.00  0.00    +0.000 OA
ATOM     24  C   UNL     1     112.013 128.145 141.891  0.00  0.00    +0.000 C 
ATOM     25  C   UNL     1     111.357 127.653 141.806  0.00  0.00    +0.000 C 
ATOM     26  C   UNL     1     112.680 128.031 141.418  0.00  0.00    +0.000 C 
ATOM     27  C   UNL     1     111.367 127.046 141.247  0.00  0.00    +0.000 C 
ATOM     28  C   UNL     1     112.689 127.424 140.859  0.00  0.00    +0.000 C 
BRANCH  27  30
ATOM     29  O   UNL     1     110.792 125.738 141.258  0.00  0.00    +0.000 OA
ATOM     30  C   UNL     1     110.710 126.554 141.161  0.00  0.00    +0.000 C 
ENDBRANCH  27  30
ENDBRANCH  19  28
ENDBRANCH   3  19
TORSDOF 7
ENDMDL
MODEL 9
REMARK VINA RESULT:      -7.9      1.464      2.258
REMARK  Name = 131752198
REMARK  7 active torsions:
REMARK  status: ('A' for Active; 'I' for Inactive)
REMARK    1  A    between atoms: O_2  and  C_14
REMARK    2  A    between atoms: O_2  and  C_16
REMARK    3  A    between atoms: C_13  and  C_15
REMARK    4  A    between atoms: C_19  and  C_23
REMARK    5  A    between atoms: C_22  and  C_23
REMARK    6  A    between atoms: C_22  and  C_24
REMARK    7  A    between atoms: C_24  and  C_25
REMARK                            x       y       z     vdW  Elec       q    Type
REMARK                         _______ _______ _______ _____ _____    ______ ____
ROOT
ATOM      1  O   UNL     1     110.870 127.508 134.612  0.00  0.00    +0.000 OA
ATOM      2  O   UNL     1     108.482 126.849 136.037  0.00  0.00    +0.000 OA
ATOM      3  C   UNL     1     109.252 128.773 135.352  0.00  0.00    +0.000 A 
ATOM      4  C   UNL     1     108.761 128.210 135.702  0.00  0.00    +0.000 A 
ATOM      5  C   UNL     1     109.955 128.540 134.990  0.00  0.00    +0.000 A 
ATOM      6  C   UNL     1     109.676 127.179 135.325  0.00  0.00    +0.000 A 
ATOM      7  C   UNL     1     110.166 127.743 134.976  0.00  0.00    +0.000 A 
ATOM      8  C   UNL     1     108.972 127.413 135.688  0.00  0.00    +0.000 A 
ENDROOT
BRANCH   6  10
ATOM      9  O   UNL     1     109.553 125.876 134.752  0.00  0.00    +0.000 OA
ATOM     10  C   UNL     1     109.887 126.382 135.311  0.00  0.00    +0.000 C 
BRANCH  10  11
ATOM     11  C   UNL     1     110.434 126.091 135.856  0.00  0.00    +0.000 C 
BRANCH  11  12
ATOM     12  C   UNL     1     110.615 125.286 135.869  0.00  0.00    +0.000 C 
BRANCH  12  13
ATOM     13  C   UNL     1     111.206 125.004 136.371  0.00  0.00    +0.000 A 
ATOM     14  C   UNL     1     111.878 124.644 136.056  0.00  0.00    +0.000 A 
ATOM     15  C   UNL     1     111.123 125.081 137.189  0.00  0.00    +0.000 A 
ATOM     16  C   UNL     1     112.468 124.362 136.560  0.00  0.00    +0.000 A 
ATOM     17  C   UNL     1     111.714 124.799 137.691  0.00  0.00    +0.000 A 
ATOM     18  C   UNL     1     112.386 124.439 137.376  0.00  0.00    +0.000 A 
ENDBRANCH  12  13
ENDBRANCH  11  12
ENDBRANCH  10  11
ENDBRANCH   6  10
BRANCH   3  19
ATOM     19  O   UNL     1     109.041 129.571 135.366  0.00  0.00    +0.000 OA
BRANCH  19  28
ATOM     20  O   UNL     1     109.877 129.994 136.445  0.00  0.00    +0.000 OA
ATOM     21  O   UNL     1     108.034 131.391 137.326  0.00  0.00    +0.000 OA
ATOM     22  O   UNL     1     109.484 131.349 138.110  0.00  0.00    +0.000 OA
ATOM     23  O   UNL     1     107.812 130.502 135.953  0.00  0.00    +0.000 OA
ATOM     24  C   UNL     1     108.648 130.926 137.032  0.00  0.00    +0.000 C 
ATOM     25  C   UNL     1     109.373 130.905 137.424  0.00  0.00    +0.000 C 
ATOM     26  C   UNL     1     108.537 130.481 136.346  0.00  0.00    +0.000 C 
ATOM     27  C   UNL     1     109.987 130.439 137.131  0.00  0.00    +0.000 C 
ATOM     28  C   UNL     1     109.151 130.015 136.052  0.00  0.00    +0.000 C 
BRANCH  27  30
ATOM     29  O   UNL     1     111.403 130.633 137.124  0.00  0.00    +0.000 OA
ATOM     30  C   UNL     1     110.713 130.417 137.522  0.00  0.00    +0.000 C 
ENDBRANCH  27  30
ENDBRANCH  19  28
ENDBRANCH   3  19
TORSDOF 7
ENDMDL
MODEL 10
REMARK VINA RESULT:      -7.9      2.786      4.208
REMARK  Name = 131752198
REMARK  7 active torsions:
REMARK  status: ('A' for Active; 'I' for Inactive)
REMARK    1  A    between atoms: O_2  and  C_14
REMARK    2  A    between atoms: O_2  and  C_16
REMARK    3  A    between atoms: C_13  and  C_15
REMARK    4  A    between atoms: C_19  and  C_23
REMARK    5  A    between atoms: C_22  and  C_23
REMARK    6  A    between atoms: C_22  and  C_24
REMARK    7  A    between atoms: C_24  and  C_25
REMARK                            x       y       z     vdW  Elec       q    Type
REMARK                         _______ _______ _______ _____ _____    ______ ____
ROOT
ATOM      1  O   UNL     1     113.548 128.099 136.243  0.00  0.00    +0.000 OA
ATOM      2  O   UNL     1     110.965 127.705 137.401  0.00  0.00    +0.000 OA
ATOM      3  C   UNL     1     112.490 129.217 137.790  0.00  0.00    +0.000 A 
ATOM      4  C   UNL     1     111.785 128.790 137.838  0.00  0.00    +0.000 A 
ATOM      5  C   UNL     1     113.077 128.987 137.259  0.00  0.00    +0.000 A 
ATOM      6  C   UNL     1     112.256 127.902 136.822  0.00  0.00    +0.000 A 
ATOM      7  C   UNL     1     112.960 128.329 136.775  0.00  0.00    +0.000 A 
ATOM      8  C   UNL     1     111.668 128.133 137.354  0.00  0.00    +0.000 A 
ENDROOT
BRANCH   6  10
ATOM      9  O   UNL     1     111.826 127.340 135.582  0.00  0.00    +0.000 OA
ATOM     10  C   UNL     1     112.139 127.244 136.338  0.00  0.00    +0.000 C 
BRANCH  10  11
ATOM     11  C   UNL     1     112.336 126.491 136.612  0.00  0.00    +0.000 C 
BRANCH  11  12
ATOM     12  C   UNL     1     112.249 125.837 136.117  0.00  0.00    +0.000 C 
BRANCH  12  13
ATOM     13  C   UNL     1     112.402 125.079 136.403  0.00  0.00    +0.000 A 
ATOM     14  C   UNL     1     113.180 124.827 136.510  0.00  0.00    +0.000 A 
ATOM     15  C   UNL     1     111.775 124.572 136.584  0.00  0.00    +0.000 A 
ATOM     16  C   UNL     1     113.332 124.068 136.796  0.00  0.00    +0.000 A 
ATOM     17  C   UNL     1     111.929 123.814 136.870  0.00  0.00    +0.000 A 
ATOM     18  C   UNL     1     112.707 123.562 136.976  0.00  0.00    +0.000 A 
ENDBRANCH  12  13
ENDBRANCH  11  12
ENDBRANCH  10  11
ENDBRANCH   6  10
BRANCH   3  19
ATOM     19  O   UNL     1     112.607 129.875 138.275  0.00  0.00    +0.000 OA
BRANCH  19  28
ATOM     20  O   UNL     1     113.107 129.182 139.419  0.00  0.00    +0.000 OA
ATOM     21  O   UNL     1     114.742 130.999 139.806  0.00  0.00    +0.000 OA
ATOM     22  O   UNL     1     114.697 129.700 140.821  0.00  0.00    +0.000 OA
ATOM     23  O   UNL     1     113.696 131.087 138.532  0.00  0.00    +0.000 OA
ATOM     24  C   UNL     1     114.197 130.393 139.677  0.00  0.00    +0.000 C 
ATOM     25  C   UNL     1     114.175 129.744 140.184  0.00  0.00    +0.000 C 
ATOM     26  C   UNL     1     113.674 130.438 139.040  0.00  0.00    +0.000 C 
ATOM     27  C   UNL     1     113.630 129.138 140.056  0.00  0.00    +0.000 C 
ATOM     28  C   UNL     1     113.129 129.832 138.911  0.00  0.00    +0.000 C 
BRANCH  27  30
ATOM     29  O   UNL     1     112.905 128.292 140.950  0.00  0.00    +0.000 OA
ATOM     30  C   UNL     1     113.608 128.488 140.563  0.00  0.00    +0.000 C 
ENDBRANCH  27  30
ENDBRANCH  19  28
ENDBRANCH   3  19
TORSDOF 7
ENDMDL
