MODEL 1
REMARK VINA RESULT:     -10.9      0.000      0.000
REMARK  Name = 74978072
REMARK  5 active torsions:
REMARK  status: ('A' for Active; 'I' for Inactive)
REMARK    1  A    between atoms: O_2  and  C_19
REMARK    2  A    between atoms: O_2  and  C_26
REMARK    3  A    between atoms: O_7  and  C_24
REMARK    4  A    between atoms: O_7  and  C_29
REMARK    5  A    between atoms: C_27  and  C_30
REMARK                            x       y       z     vdW  Elec       q    Type
REMARK                         _______ _______ _______ _____ _____    ______ ____
ROOT
ATOM      1  O   UNL     1     113.747 126.411 138.203  0.00  0.00    +0.000 OA
ATOM      2  O   UNL     1     111.762 124.952 137.962  0.00  0.00    +0.000 OA
ATOM      3  O   UNL     1     112.396 124.217 136.894  0.00  0.00    +0.000 OA
ATOM      4  O   UNL     1     115.089 124.974 136.054  0.00  0.00    +0.000 OA
ATOM      5  C   UNL     1     112.429 126.037 138.610  0.00  0.00    +0.000 A 
ATOM      6  C   UNL     1     113.090 126.523 138.690  0.00  0.00    +0.000 A 
ATOM      7  C   UNL     1     112.424 125.438 138.042  0.00  0.00    +0.000 A 
ATOM      8  C   UNL     1     113.080 125.326 137.554  0.00  0.00    +0.000 A 
ATOM      9  C   UNL     1     113.741 125.813 137.635  0.00  0.00    +0.000 A 
ATOM     10  C   UNL     1     113.062 124.699 136.967  0.00  0.00    +0.000 A 
ATOM     11  C   UNL     1     114.430 125.706 137.134  0.00  0.00    +0.000 A 
ATOM     12  C   UNL     1     113.742 124.577 136.457  0.00  0.00    +0.000 A 
ATOM     13  C   UNL     1     114.431 125.084 136.540  0.00  0.00    +0.000 A 
ENDROOT
BRANCH   6  15
ATOM     14  C   UNL     1     113.106 128.318 140.394  0.00  0.00    +0.000 A 
ATOM     15  C   UNL     1     113.095 127.122 139.258  0.00  0.00    +0.000 A 
ATOM     16  C   UNL     1     112.934 128.497 139.607  0.00  0.00    +0.000 A 
ATOM     17  C   UNL     1     113.273 127.541 140.613  0.00  0.00    +0.000 A 
ATOM     18  C   UNL     1     112.929 127.899 139.040  0.00  0.00    +0.000 A 
ATOM     19  C   UNL     1     113.268 126.942 140.045  0.00  0.00    +0.000 A 
BRANCH  14  20
ATOM     20  O   UNL     1     113.111 128.916 140.962  0.00  0.00    +0.000 OA
BRANCH  20  28
ATOM     21  O   UNL     1     114.399 129.370 140.540  0.00  0.00    +0.000 OA
ATOM     22  O   UNL     1     114.002 131.540 141.662  0.00  0.00    +0.000 OA
ATOM     23  O   UNL     1     112.847 130.363 141.710  0.00  0.00    +0.000 OA
ATOM     24  O   UNL     1     115.422 131.270 140.866  0.00  0.00    +0.000 OA
ATOM     25  C   UNL     1     114.134 130.816 141.288  0.00  0.00    +0.000 C 
ATOM     26  C   UNL     1     113.557 130.228 141.312  0.00  0.00    +0.000 C 
ATOM     27  C   UNL     1     114.845 130.681 140.889  0.00  0.00    +0.000 C 
ATOM     28  C   UNL     1     113.689 129.504 140.937  0.00  0.00    +0.000 C 
ATOM     29  C   UNL     1     114.977 129.958 140.515  0.00  0.00    +0.000 C 
ENDBRANCH  20  28
ENDBRANCH  14  20
ENDBRANCH   6  15
BRANCH   5  30
ATOM     30  O   UNL     1     111.773 126.149 139.097  0.00  0.00    +0.000 OA
BRANCH  30  39
ATOM     31  O   UNL     1     110.987 126.741 138.062  0.00  0.00    +0.000 OA
ATOM     32  O   UNL     1     108.923 125.952 139.176  0.00  0.00    +0.000 OA
ATOM     33  O   UNL     1     108.825 126.808 137.769  0.00  0.00    +0.000 OA
ATOM     34  O   UNL     1     110.397 125.623 139.841  0.00  0.00    +0.000 OA
ATOM     35  C   UNL     1     109.611 126.215 138.805  0.00  0.00    +0.000 C 
ATOM     36  C   UNL     1     109.562 126.643 138.101  0.00  0.00    +0.000 C 
ATOM     37  C   UNL     1     110.348 126.051 139.136  0.00  0.00    +0.000 C 
ATOM     38  C   UNL     1     110.250 126.906 137.730  0.00  0.00    +0.000 C 
ATOM     39  C   UNL     1     111.036 126.314 138.765  0.00  0.00    +0.000 C 
ATOM     40  C   UNL     1     110.201 127.334 137.026  0.00  0.00    +0.000 C 
ENDBRANCH  30  39
ENDBRANCH   5  30
TORSDOF 5
ENDMDL
MODEL 2
REMARK VINA RESULT:     -10.9      2.640      3.438
REMARK  Name = 74978072
REMARK  5 active torsions:
REMARK  status: ('A' for Active; 'I' for Inactive)
REMARK    1  A    between atoms: O_2  and  C_19
REMARK    2  A    between atoms: O_2  and  C_26
REMARK    3  A    between atoms: O_7  and  C_24
REMARK    4  A    between atoms: O_7  and  C_29
REMARK    5  A    between atoms: C_27  and  C_30
REMARK                            x       y       z     vdW  Elec       q    Type
REMARK                         _______ _______ _______ _____ _____    ______ ____
ROOT
ATOM      1  O   UNL     1     113.490 126.748 136.898  0.00  0.00    +0.000 OA
ATOM      2  O   UNL     1     111.598 125.427 136.003  0.00  0.00    +0.000 OA
ATOM      3  O   UNL     1     112.292 124.193 136.279  0.00  0.00    +0.000 OA
ATOM      4  O   UNL     1     114.951 124.298 137.483  0.00  0.00    +0.000 OA
ATOM      5  C   UNL     1     112.189 126.692 136.309  0.00  0.00    +0.000 A 
ATOM      6  C   UNL     1     112.820 127.132 136.607  0.00  0.00    +0.000 A 
ATOM      7  C   UNL     1     112.229 125.867 136.301  0.00  0.00    +0.000 A 
ATOM      8  C   UNL     1     112.899 125.484 136.592  0.00  0.00    +0.000 A 
ATOM      9  C   UNL     1     113.529 125.925 136.890  0.00  0.00    +0.000 A 
ATOM     10  C   UNL     1     112.928 124.625 136.579  0.00  0.00    +0.000 A 
ATOM     11  C   UNL     1     114.232 125.537 137.196  0.00  0.00    +0.000 A 
ATOM     12  C   UNL     1     113.623 124.220 136.881  0.00  0.00    +0.000 A 
ATOM     13  C   UNL     1     114.280 124.679 137.191  0.00  0.00    +0.000 A 
ENDROOT
BRANCH   6  15
ATOM     14  C   UNL     1     112.700 129.604 136.628  0.00  0.00    +0.000 A 
ATOM     15  C   UNL     1     112.780 127.956 136.614  0.00  0.00    +0.000 A 
ATOM     16  C   UNL     1     112.639 129.182 137.334  0.00  0.00    +0.000 A 
ATOM     17  C   UNL     1     112.802 129.202 135.915  0.00  0.00    +0.000 A 
ATOM     18  C   UNL     1     112.679 128.358 137.327  0.00  0.00    +0.000 A 
ATOM     19  C   UNL     1     112.841 128.378 135.908  0.00  0.00    +0.000 A 
BRANCH  14  20
ATOM     20  O   UNL     1     112.661 130.428 136.635  0.00  0.00    +0.000 OA
BRANCH  20  28
ATOM     21  O   UNL     1     111.275 130.485 136.292  0.00  0.00    +0.000 OA
ATOM     22  O   UNL     1     111.043 132.585 137.582  0.00  0.00    +0.000 OA
ATOM     23  O   UNL     1     112.506 131.827 137.495  0.00  0.00    +0.000 OA
ATOM     24  O   UNL     1     109.734 131.942 136.809  0.00  0.00    +0.000 OA
ATOM     25  C   UNL     1     111.120 131.885 137.152  0.00  0.00    +0.000 C 
ATOM     26  C   UNL     1     111.851 131.506 137.108  0.00  0.00    +0.000 C 
ATOM     27  C   UNL     1     110.465 131.563 136.765  0.00  0.00    +0.000 C 
ATOM     28  C   UNL     1     111.929 130.806 136.678  0.00  0.00    +0.000 C 
ATOM     29  C   UNL     1     110.543 130.863 136.335  0.00  0.00    +0.000 C 
ENDBRANCH  20  28
ENDBRANCH  14  20
ENDBRANCH   6  15
BRANCH   5  30
ATOM     30  O   UNL     1     111.519 127.075 136.018  0.00  0.00    +0.000 OA
BRANCH  30  39
ATOM     31  O   UNL     1     110.736 126.775 137.175  0.00  0.00    +0.000 OA
ATOM     32  O   UNL     1     108.674 126.891 135.812  0.00  0.00    +0.000 OA
ATOM     33  O   UNL     1     108.579 126.553 137.424  0.00  0.00    +0.000 OA
ATOM     34  O   UNL     1     110.144 127.152 135.109  0.00  0.00    +0.000 OA
ATOM     35  C   UNL     1     109.362 126.853 136.266  0.00  0.00    +0.000 C 
ATOM     36  C   UNL     1     109.315 126.684 137.072  0.00  0.00    +0.000 C 
ATOM     37  C   UNL     1     110.097 126.983 135.915  0.00  0.00    +0.000 C 
ATOM     38  C   UNL     1     110.002 126.645 137.527  0.00  0.00    +0.000 C 
ATOM     39  C   UNL     1     110.784 126.944 136.370  0.00  0.00    +0.000 C 
ATOM     40  C   UNL     1     109.954 126.476 138.333  0.00  0.00    +0.000 C 
ENDBRANCH  30  39
ENDBRANCH   5  30
TORSDOF 5
ENDMDL
MODEL 3
REMARK VINA RESULT:     -10.8      2.764      5.129
REMARK  Name = 74978072
REMARK  5 active torsions:
REMARK  status: ('A' for Active; 'I' for Inactive)
REMARK    1  A    between atoms: O_2  and  C_19
REMARK    2  A    between atoms: O_2  and  C_26
REMARK    3  A    between atoms: O_7  and  C_24
REMARK    4  A    between atoms: O_7  and  C_29
REMARK    5  A    between atoms: C_27  and  C_30
REMARK                            x       y       z     vdW  Elec       q    Type
REMARK                         _______ _______ _______ _____ _____    ______ ____
ROOT
ATOM      1  O   UNL     1     110.951 126.254 136.074  0.00  0.00    +0.000 OA
ATOM      2  O   UNL     1     113.293 126.985 136.395  0.00  0.00    +0.000 OA
ATOM      3  O   UNL     1     113.721 125.621 136.593  0.00  0.00    +0.000 OA
ATOM      4  O   UNL     1     111.741 123.478 136.464  0.00  0.00    +0.000 OA
ATOM      5  C   UNL     1     111.923 127.299 136.138  0.00  0.00    +0.000 A 
ATOM      6  C   UNL     1     111.143 127.055 136.031  0.00  0.00    +0.000 A 
ATOM      7  C   UNL     1     112.513 126.741 136.288  0.00  0.00    +0.000 A 
ATOM      8  C   UNL     1     112.321 125.939 136.331  0.00  0.00    +0.000 A 
ATOM      9  C   UNL     1     111.539 125.697 136.224  0.00  0.00    +0.000 A 
ATOM     10  C   UNL     1     112.942 125.368 136.487  0.00  0.00    +0.000 A 
ATOM     11  C   UNL     1     111.327 124.865 136.266  0.00  0.00    +0.000 A 
ATOM     12  C   UNL     1     112.749 124.533 136.533  0.00  0.00    +0.000 A 
ATOM     13  C   UNL     1     111.936 124.279 136.422  0.00  0.00    +0.000 A 
ENDROOT
BRANCH   6  15
ATOM     14  C   UNL     1     109.375 128.730 135.582  0.00  0.00    +0.000 A 
ATOM     15  C   UNL     1     110.553 127.614 135.881  0.00  0.00    +0.000 A 
ATOM     16  C   UNL     1     109.413 128.356 136.316  0.00  0.00    +0.000 A 
ATOM     17  C   UNL     1     109.927 128.545 134.997  0.00  0.00    +0.000 A 
ATOM     18  C   UNL     1     110.001 127.799 136.466  0.00  0.00    +0.000 A 
ATOM     19  C   UNL     1     110.517 127.987 135.147  0.00  0.00    +0.000 A 
BRANCH  14  20
ATOM     20  O   UNL     1     108.787 129.288 135.432  0.00  0.00    +0.000 OA
BRANCH  20  28
ATOM     21  O   UNL     1     109.616 130.397 135.783  0.00  0.00    +0.000 OA
ATOM     22  O   UNL     1     107.608 131.698 136.415  0.00  0.00    +0.000 OA
ATOM     23  O   UNL     1     107.448 130.155 135.853  0.00  0.00    +0.000 OA
ATOM     24  O   UNL     1     109.107 132.374 136.556  0.00  0.00    +0.000 OA
ATOM     25  C   UNL     1     108.277 131.265 136.204  0.00  0.00    +0.000 C 
ATOM     26  C   UNL     1     108.198 130.493 135.923  0.00  0.00    +0.000 C 
ATOM     27  C   UNL     1     109.028 131.602 136.275  0.00  0.00    +0.000 C 
ATOM     28  C   UNL     1     108.868 130.059 135.713  0.00  0.00    +0.000 C 
ATOM     29  C   UNL     1     109.697 131.169 136.065  0.00  0.00    +0.000 C 
ENDBRANCH  20  28
ENDBRANCH  14  20
ENDBRANCH   6  15
BRANCH   5  30
ATOM     30  O   UNL     1     112.115 128.100 136.095  0.00  0.00    +0.000 OA
BRANCH  30  39
ATOM     31  O   UNL     1     112.252 128.251 137.510  0.00  0.00    +0.000 OA
ATOM     32  O   UNL     1     113.904 130.060 137.158  0.00  0.00    +0.000 OA
ATOM     33  O   UNL     1     113.489 129.608 138.690  0.00  0.00    +0.000 OA
ATOM     34  O   UNL     1     113.217 129.306 135.861  0.00  0.00    +0.000 OA
ATOM     35  C   UNL     1     113.353 129.457 137.275  0.00  0.00    +0.000 C 
ATOM     36  C   UNL     1     113.145 129.231 138.041  0.00  0.00    +0.000 C 
ATOM     37  C   UNL     1     113.009 129.080 136.627  0.00  0.00    +0.000 C 
ATOM     38  C   UNL     1     112.595 128.628 138.158  0.00  0.00    +0.000 C 
ATOM     39  C   UNL     1     112.458 128.477 136.745  0.00  0.00    +0.000 C 
ATOM     40  C   UNL     1     112.388 128.402 138.924  0.00  0.00    +0.000 C 
ENDBRANCH  30  39
ENDBRANCH   5  30
TORSDOF 5
ENDMDL
MODEL 4
REMARK VINA RESULT:     -10.4      2.699      6.251
REMARK  Name = 74978072
REMARK  5 active torsions:
REMARK  status: ('A' for Active; 'I' for Inactive)
REMARK    1  A    between atoms: O_2  and  C_19
REMARK    2  A    between atoms: O_2  and  C_26
REMARK    3  A    between atoms: O_7  and  C_24
REMARK    4  A    between atoms: O_7  and  C_29
REMARK    5  A    between atoms: C_27  and  C_30
REMARK                            x       y       z     vdW  Elec       q    Type
REMARK                         _______ _______ _______ _____ _____    ______ ____
ROOT
ATOM      1  O   UNL     1     109.550 128.388 135.873  0.00  0.00    +0.000 OA
ATOM      2  O   UNL     1     111.234 130.150 135.445  0.00  0.00    +0.000 OA
ATOM      3  O   UNL     1     110.213 131.169 135.461  0.00  0.00    +0.000 OA
ATOM      4  O   UNL     1     107.436 130.390 135.919  0.00  0.00    +0.000 OA
ATOM      5  C   UNL     1     110.908 128.774 135.648  0.00  0.00    +0.000 A 
ATOM      6  C   UNL     1     110.346 128.187 135.791  0.00  0.00    +0.000 A 
ATOM      7  C   UNL     1     110.672 129.563 135.587  0.00  0.00    +0.000 A 
ATOM      8  C   UNL     1     109.876 129.764 135.669  0.00  0.00    +0.000 A 
ATOM      9  C   UNL     1     109.316 129.176 135.812  0.00  0.00    +0.000 A 
ATOM     10  C   UNL     1     109.644 130.588 135.604  0.00  0.00    +0.000 A 
ATOM     11  C   UNL     1     108.484 129.372 135.899  0.00  0.00    +0.000 A 
ATOM     12  C   UNL     1     108.817 130.804 135.688  0.00  0.00    +0.000 A 
ATOM     13  C   UNL     1     108.232 130.192 135.837  0.00  0.00    +0.000 A 
ENDROOT
BRANCH   6  15
ATOM     14  C   UNL     1     111.052 125.821 135.973  0.00  0.00    +0.000 A 
ATOM     15  C   UNL     1     110.582 127.398 135.852  0.00  0.00    +0.000 A 
ATOM     16  C   UNL     1     110.821 126.236 136.648  0.00  0.00    +0.000 A 
ATOM     17  C   UNL     1     111.047 126.195 135.237  0.00  0.00    +0.000 A 
ATOM     18  C   UNL     1     110.586 127.024 136.587  0.00  0.00    +0.000 A 
ATOM     19  C   UNL     1     110.812 126.984 135.176  0.00  0.00    +0.000 A 
BRANCH  14  20
ATOM     20  O   UNL     1     111.287 125.033 136.033  0.00  0.00    +0.000 OA
BRANCH  20  28
ATOM     21  O   UNL     1     112.657 125.391 136.225  0.00  0.00    +0.000 OA
ATOM     22  O   UNL     1     113.082 123.196 137.286  0.00  0.00    +0.000 OA
ATOM     23  O   UNL     1     111.570 123.570 136.741  0.00  0.00    +0.000 OA
ATOM     24  O   UNL     1     114.310 124.286 137.124  0.00  0.00    +0.000 OA
ATOM     25  C   UNL     1     112.940 123.928 136.932  0.00  0.00    +0.000 C 
ATOM     26  C   UNL     1     112.185 124.115 136.659  0.00  0.00    +0.000 C 
ATOM     27  C   UNL     1     113.555 124.474 136.851  0.00  0.00    +0.000 C 
ATOM     28  C   UNL     1     112.043 124.847 136.306  0.00  0.00    +0.000 C 
ATOM     29  C   UNL     1     113.413 125.205 136.498  0.00  0.00    +0.000 C 
ENDBRANCH  20  28
ENDBRANCH  14  20
ENDBRANCH   6  15
BRANCH   5  30
ATOM     30  O   UNL     1     111.704 128.573 135.566  0.00  0.00    +0.000 OA
BRANCH  30  39
ATOM     31  O   UNL     1     112.070 129.044 136.865  0.00  0.00    +0.000 OA
ATOM     32  O   UNL     1     114.341 129.571 136.034  0.00  0.00    +0.000 OA
ATOM     33  O   UNL     1     113.950 129.866 137.609  0.00  0.00    +0.000 OA
ATOM     34  O   UNL     1     113.218 128.924 135.012  0.00  0.00    +0.000 OA
ATOM     35  C   UNL     1     113.584 129.395 136.311  0.00  0.00    +0.000 C 
ATOM     36  C   UNL     1     113.388 129.543 137.098  0.00  0.00    +0.000 C 
ATOM     37  C   UNL     1     113.022 129.072 135.801  0.00  0.00    +0.000 C 
ATOM     38  C   UNL     1     112.631 129.367 137.375  0.00  0.00    +0.000 C 
ATOM     39  C   UNL     1     112.265 128.897 136.078  0.00  0.00    +0.000 C 
ATOM     40  C   UNL     1     112.436 129.515 138.163  0.00  0.00    +0.000 C 
ENDBRANCH  30  39
ENDBRANCH   5  30
TORSDOF 5
ENDMDL
MODEL 5
REMARK VINA RESULT:     -10.4      1.838      2.714
REMARK  Name = 74978072
REMARK  5 active torsions:
REMARK  status: ('A' for Active; 'I' for Inactive)
REMARK    1  A    between atoms: O_2  and  C_19
REMARK    2  A    between atoms: O_2  and  C_26
REMARK    3  A    between atoms: O_7  and  C_24
REMARK    4  A    between atoms: O_7  and  C_29
REMARK    5  A    between atoms: C_27  and  C_30
REMARK                            x       y       z     vdW  Elec       q    Type
REMARK                         _______ _______ _______ _____ _____    ______ ____
ROOT
ATOM      1  O   UNL     1     112.331 125.697 138.207  0.00  0.00    +0.000 OA
ATOM      2  O   UNL     1     111.499 126.886 136.202  0.00  0.00    +0.000 OA
ATOM      3  O   UNL     1     111.267 125.635 135.522  0.00  0.00    +0.000 OA
ATOM      4  O   UNL     1     111.890 123.134 136.897  0.00  0.00    +0.000 OA
ATOM      5  C   UNL     1     112.025 126.918 137.530  0.00  0.00    +0.000 A 
ATOM      6  C   UNL     1     112.302 126.522 138.198  0.00  0.00    +0.000 A 
ATOM      7  C   UNL     1     111.776 126.489 136.870  0.00  0.00    +0.000 A 
ATOM      8  C   UNL     1     111.805 125.665 136.879  0.00  0.00    +0.000 A 
ATOM      9  C   UNL     1     112.082 125.269 137.548  0.00  0.00    +0.000 A 
ATOM     10  C   UNL     1     111.543 125.230 136.186  0.00  0.00    +0.000 A 
ATOM     11  C   UNL     1     112.117 124.411 137.569  0.00  0.00    +0.000 A 
ATOM     12  C   UNL     1     111.571 124.371 136.189  0.00  0.00    +0.000 A 
ATOM     13  C   UNL     1     111.860 123.959 136.885  0.00  0.00    +0.000 A 
ENDROOT
BRANCH   6  15
ATOM     14  C   UNL     1     113.049 127.808 140.178  0.00  0.00    +0.000 A 
ATOM     15  C   UNL     1     112.551 126.951 138.858  0.00  0.00    +0.000 A 
ATOM     16  C   UNL     1     112.251 127.802 139.966  0.00  0.00    +0.000 A 
ATOM     17  C   UNL     1     113.597 127.385 139.729  0.00  0.00    +0.000 A 
ATOM     18  C   UNL     1     112.002 127.374 139.307  0.00  0.00    +0.000 A 
ATOM     19  C   UNL     1     113.349 126.956 139.069  0.00  0.00    +0.000 A 
BRANCH  14  20
ATOM     20  O   UNL     1     113.298 128.236 140.837  0.00  0.00    +0.000 OA
BRANCH  20  28
ATOM     21  O   UNL     1     114.086 129.180 140.109  0.00  0.00    +0.000 OA
ATOM     22  O   UNL     1     113.494 130.938 141.746  0.00  0.00    +0.000 OA
ATOM     23  O   UNL     1     112.903 129.409 141.928  0.00  0.00    +0.000 OA
ATOM     24  O   UNL     1     114.480 131.296 140.473  0.00  0.00    +0.000 OA
ATOM     25  C   UNL     1     113.691 130.352 141.200  0.00  0.00    +0.000 C 
ATOM     26  C   UNL     1     113.396 129.587 141.291  0.00  0.00    +0.000 C 
ATOM     27  C   UNL     1     114.185 130.531 140.563  0.00  0.00    +0.000 C 
ATOM     28  C   UNL     1     113.594 129.001 140.745  0.00  0.00    +0.000 C 
ATOM     29  C   UNL     1     114.382 129.944 140.017  0.00  0.00    +0.000 C 
ENDBRANCH  20  28
ENDBRANCH  14  20
ENDBRANCH   6  15
BRANCH   5  30
ATOM     30  O   UNL     1     111.996 127.743 137.522  0.00  0.00    +0.000 OA
BRANCH  30  39
ATOM     31  O   UNL     1     113.146 127.883 136.684  0.00  0.00    +0.000 OA
ATOM     32  O   UNL     1     112.223 129.990 135.770  0.00  0.00    +0.000 OA
ATOM     33  O   UNL     1     113.680 129.428 135.238  0.00  0.00    +0.000 OA
ATOM     34  O   UNL     1     111.381 129.147 136.912  0.00  0.00    +0.000 OA
ATOM     35  C   UNL     1     112.530 129.288 136.075  0.00  0.00    +0.000 C 
ATOM     36  C   UNL     1     113.259 129.006 135.809  0.00  0.00    +0.000 C 
ATOM     37  C   UNL     1     112.110 128.866 136.646  0.00  0.00    +0.000 C 
ATOM     38  C   UNL     1     113.566 128.304 136.114  0.00  0.00    +0.000 C 
ATOM     39  C   UNL     1     112.418 128.164 136.951  0.00  0.00    +0.000 C 
ATOM     40  C   UNL     1     114.295 128.023 135.847  0.00  0.00    +0.000 C 
ENDBRANCH  30  39
ENDBRANCH   5  30
TORSDOF 5
ENDMDL
MODEL 6
REMARK VINA RESULT:     -10.2      2.073      4.781
REMARK  Name = 74978072
REMARK  5 active torsions:
REMARK  status: ('A' for Active; 'I' for Inactive)
REMARK    1  A    between atoms: O_2  and  C_19
REMARK    2  A    between atoms: O_2  and  C_26
REMARK    3  A    between atoms: O_7  and  C_24
REMARK    4  A    between atoms: O_7  and  C_29
REMARK    5  A    between atoms: C_27  and  C_30
REMARK                            x       y       z     vdW  Elec       q    Type
REMARK                         _______ _______ _______ _____ _____    ______ ____
ROOT
ATOM      1  O   UNL     1     112.393 128.488 138.931  0.00  0.00    +0.000 OA
ATOM      2  O   UNL     1     112.724 126.107 139.521  0.00  0.00    +0.000 OA
ATOM      3  O   UNL     1     113.755 126.456 140.468  0.00  0.00    +0.000 OA
ATOM      4  O   UNL     1     114.463 129.267 140.825  0.00  0.00    +0.000 OA
ATOM      5  C   UNL     1     112.050 127.111 138.759  0.00  0.00    +0.000 A 
ATOM      6  C   UNL     1     111.940 127.905 138.563  0.00  0.00    +0.000 A 
ATOM      7  C   UNL     1     112.614 126.901 139.324  0.00  0.00    +0.000 A 
ATOM      8  C   UNL     1     113.067 127.484 139.692  0.00  0.00    +0.000 A 
ATOM      9  C   UNL     1     112.956 128.278 139.494  0.00  0.00    +0.000 A 
ATOM     10  C   UNL     1     113.651 127.253 140.278  0.00  0.00    +0.000 A 
ATOM     11  C   UNL     1     113.422 128.894 139.870  0.00  0.00    +0.000 A 
ATOM     12  C   UNL     1     114.126 127.855 140.664  0.00  0.00    +0.000 A 
ATOM     13  C   UNL     1     114.012 128.681 140.459  0.00  0.00    +0.000 A 
ENDROOT
BRANCH   6  15
ATOM     14  C   UNL     1     110.248 128.536 136.869  0.00  0.00    +0.000 A 
ATOM     15  C   UNL     1     111.376 128.115 137.998  0.00  0.00    +0.000 A 
ATOM     16  C   UNL     1     110.010 128.298 137.622  0.00  0.00    +0.000 A 
ATOM     17  C   UNL     1     111.051 128.563 136.681  0.00  0.00    +0.000 A 
ATOM     18  C   UNL     1     110.573 128.088 138.186  0.00  0.00    +0.000 A 
ATOM     19  C   UNL     1     111.615 128.353 137.245  0.00  0.00    +0.000 A 
BRANCH  14  20
ATOM     20  O   UNL     1     109.685 128.746 136.305  0.00  0.00    +0.000 OA
BRANCH  20  28
ATOM     21  O   UNL     1     109.833 130.150 136.527  0.00  0.00    +0.000 OA
ATOM     22  O   UNL     1     107.485 130.507 135.834  0.00  0.00    +0.000 OA
ATOM     23  O   UNL     1     108.119 128.984 135.843  0.00  0.00    +0.000 OA
ATOM     24  O   UNL     1     108.416 131.792 136.288  0.00  0.00    +0.000 OA
ATOM     25  C   UNL     1     108.268 130.388 136.065  0.00  0.00    +0.000 C 
ATOM     26  C   UNL     1     108.585 129.627 136.070  0.00  0.00    +0.000 C 
ATOM     27  C   UNL     1     108.734 131.031 136.292  0.00  0.00    +0.000 C 
ATOM     28  C   UNL     1     109.368 129.508 136.301  0.00  0.00    +0.000 C 
ATOM     29  C   UNL     1     109.517 130.912 136.523  0.00  0.00    +0.000 C 
ENDBRANCH  20  28
ENDBRANCH  14  20
ENDBRANCH   6  15
BRANCH   5  30
ATOM     30  O   UNL     1     111.597 126.528 138.392  0.00  0.00    +0.000 OA
BRANCH  30  39
ATOM     31  O   UNL     1     112.659 126.096 137.540  0.00  0.00    +0.000 OA
ATOM     32  O   UNL     1     111.684 123.822 137.478  0.00  0.00    +0.000 OA
ATOM     33  O   UNL     1     113.072 124.147 136.647  0.00  0.00    +0.000 OA
ATOM     34  O   UNL     1     110.947 125.012 138.350  0.00  0.00    +0.000 OA
ATOM     35  C   UNL     1     112.009 124.580 137.498  0.00  0.00    +0.000 C 
ATOM     36  C   UNL     1     112.703 124.743 137.083  0.00  0.00    +0.000 C 
ATOM     37  C   UNL     1     111.641 125.175 137.935  0.00  0.00    +0.000 C 
ATOM     38  C   UNL     1     113.028 125.501 137.104  0.00  0.00    +0.000 C 
ATOM     39  C   UNL     1     111.966 125.933 137.955  0.00  0.00    +0.000 C 
ATOM     40  C   UNL     1     113.722 125.663 136.688  0.00  0.00    +0.000 C 
ENDBRANCH  30  39
ENDBRANCH   5  30
TORSDOF 5
ENDMDL
MODEL 7
REMARK VINA RESULT:     -10.2      1.392      5.212
REMARK  Name = 74978072
REMARK  5 active torsions:
REMARK  status: ('A' for Active; 'I' for Inactive)
REMARK    1  A    between atoms: O_2  and  C_19
REMARK    2  A    between atoms: O_2  and  C_26
REMARK    3  A    between atoms: O_7  and  C_24
REMARK    4  A    between atoms: O_7  and  C_29
REMARK    5  A    between atoms: C_27  and  C_30
REMARK                            x       y       z     vdW  Elec       q    Type
REMARK                         _______ _______ _______ _____ _____    ______ ____
ROOT
ATOM      1  O   UNL     1     113.278 128.885 140.401  0.00  0.00    +0.000 OA
ATOM      2  O   UNL     1     111.585 128.200 142.071  0.00  0.00    +0.000 OA
ATOM      3  O   UNL     1     111.766 129.431 142.800  0.00  0.00    +0.000 OA
ATOM      4  O   UNL     1     113.696 131.392 141.822  0.00  0.00    +0.000 OA
ATOM      5  C   UNL     1     112.333 127.928 140.883  0.00  0.00    +0.000 A 
ATOM      6  C   UNL     1     112.897 128.157 140.327  0.00  0.00    +0.000 A 
ATOM      7  C   UNL     1     112.149 128.429 141.514  0.00  0.00    +0.000 A 
ATOM      8  C   UNL     1     112.531 129.157 141.588  0.00  0.00    +0.000 A 
ATOM      9  C   UNL     1     113.095 129.384 141.030  0.00  0.00    +0.000 A 
ATOM     10  C   UNL     1     112.332 129.668 142.248  0.00  0.00    +0.000 A 
ATOM     11  C   UNL     1     113.499 130.140 141.096  0.00  0.00    +0.000 A 
ATOM     12  C   UNL     1     112.725 130.427 142.331  0.00  0.00    +0.000 A 
ATOM     13  C   UNL     1     113.313 130.665 141.751  0.00  0.00    +0.000 A 
ENDROOT
BRANCH   6  15
ATOM     14  C   UNL     1     113.446 126.657 138.435  0.00  0.00    +0.000 A 
ATOM     15  C   UNL     1     113.080 127.657 139.696  0.00  0.00    +0.000 A 
ATOM     16  C   UNL     1     113.685 126.462 139.200  0.00  0.00    +0.000 A 
ATOM     17  C   UNL     1     113.024 127.353 138.301  0.00  0.00    +0.000 A 
ATOM     18  C   UNL     1     113.502 126.961 139.831  0.00  0.00    +0.000 A 
ATOM     19  C   UNL     1     112.841 127.854 138.932  0.00  0.00    +0.000 A 
BRANCH  14  20
ATOM     20  O   UNL     1     113.629 126.158 137.805  0.00  0.00    +0.000 OA
BRANCH  20  28
ATOM     21  O   UNL     1     112.329 125.564 137.834  0.00  0.00    +0.000 OA
ATOM     22  O   UNL     1     113.191 123.617 136.573  0.00  0.00    +0.000 OA
ATOM     23  O   UNL     1     114.203 124.860 136.964  0.00  0.00    +0.000 OA
ATOM     24  O   UNL     1     111.604 123.672 137.022  0.00  0.00    +0.000 OA
ATOM     25  C   UNL     1     112.903 124.266 136.993  0.00  0.00    +0.000 C 
ATOM     26  C   UNL     1     113.409 124.888 137.189  0.00  0.00    +0.000 C 
ATOM     27  C   UNL     1     112.110 124.294 137.218  0.00  0.00    +0.000 C 
ATOM     28  C   UNL     1     113.122 125.537 137.610  0.00  0.00    +0.000 C 
ATOM     29  C   UNL     1     111.822 124.943 137.639  0.00  0.00    +0.000 C 
ENDBRANCH  20  28
ENDBRANCH  14  20
ENDBRANCH   6  15
BRANCH   5  30
ATOM     30  O   UNL     1     111.951 127.201 140.810  0.00  0.00    +0.000 OA
BRANCH  30  39
ATOM     31  O   UNL     1     110.733 127.780 140.337  0.00  0.00    +0.000 OA
ATOM     32  O   UNL     1     109.465 125.866 141.262  0.00  0.00    +0.000 OA
ATOM     33  O   UNL     1     108.670 127.083 140.481  0.00  0.00    +0.000 OA
ATOM     34  O   UNL     1     111.105 125.925 141.426  0.00  0.00    +0.000 OA
ATOM     35  C   UNL     1     109.888 126.504 140.954  0.00  0.00    +0.000 C 
ATOM     36  C   UNL     1     109.491 127.113 140.563  0.00  0.00    +0.000 C 
ATOM     37  C   UNL     1     110.708 126.534 141.036  0.00  0.00    +0.000 C 
ATOM     38  C   UNL     1     109.914 127.750 140.255  0.00  0.00    +0.000 C 
ATOM     39  C   UNL     1     111.131 127.172 140.727  0.00  0.00    +0.000 C 
ATOM     40  C   UNL     1     109.515 128.359 139.864  0.00  0.00    +0.000 C 
ENDBRANCH  30  39
ENDBRANCH   5  30
TORSDOF 5
ENDMDL
