MODEL 1
REMARK VINA RESULT:      -8.4      0.000      0.000
REMARK  Name = 14524443
REMARK  7 active torsions:
REMARK  status: ('A' for Active; 'I' for Inactive)
REMARK    1  A    between atoms: O_2  and  C_15
REMARK    2  A    between atoms: O_2  and  C_17
REMARK    3  A    between atoms: O_7  and  C_21
REMARK    4  A    between atoms: C_14  and  C_16
REMARK    5  A    between atoms: C_18  and  C_23
REMARK    6  A    between atoms: C_23  and  C_24
REMARK    7  A    between atoms: C_25  and  C_27
REMARK                            x       y       z     vdW  Elec       q    Type
REMARK                         _______ _______ _______ _____ _____    ______ ____
ROOT
ATOM      1  O   UNL     1     114.490 128.574 134.717  0.00  0.00    +0.000 OA
ATOM      2  C   UNL     1     113.686 129.498 136.523  0.00  0.00    +0.000 A 
ATOM      3  C   UNL     1     113.830 128.945 135.928  0.00  0.00    +0.000 A 
ATOM      4  C   UNL     1     114.058 130.234 136.500  0.00  0.00    +0.000 A 
ATOM      5  C   UNL     1     114.346 129.127 135.311  0.00  0.00    +0.000 A 
ATOM      6  C   UNL     1     114.574 130.417 135.884  0.00  0.00    +0.000 A 
ATOM      7  C   UNL     1     114.718 129.864 135.289  0.00  0.00    +0.000 A 
ENDROOT
BRANCH   6   8
ATOM      8  O   UNL     1     114.946 131.152 135.861  0.00  0.00    +0.000 OA
ATOM      9  C   UNL     1     115.385 131.372 135.199  0.00  0.00    +0.000 C 
ENDBRANCH   6   8
BRANCH   3  11
ATOM     10  O   UNL     1     112.708 128.115 135.619  0.00  0.00    +0.000 OA
ATOM     11  C   UNL     1     113.457 128.209 135.951  0.00  0.00    +0.000 C 
BRANCH  11  12
ATOM     12  C   UNL     1     113.836 127.566 136.305  0.00  0.00    +0.000 C 
ATOM     13  C   UNL     1     113.460 126.833 136.335  0.00  0.00    +0.000 C 
BRANCH  13  15
ATOM     14  O   UNL     1     114.971 124.264 137.752  0.00  0.00    +0.000 OA
ATOM     15  C   UNL     1     113.838 126.190 136.690  0.00  0.00    +0.000 A 
ATOM     16  C   UNL     1     113.744 126.051 137.498  0.00  0.00    +0.000 A 
ATOM     17  C   UNL     1     114.309 125.688 136.236  0.00  0.00    +0.000 A 
ATOM     18  C   UNL     1     114.122 125.409 137.851  0.00  0.00    +0.000 A 
ATOM     19  C   UNL     1     114.687 125.045 136.591  0.00  0.00    +0.000 A 
ATOM     20  C   UNL     1     114.594 124.906 137.398  0.00  0.00    +0.000 A 
ENDBRANCH  13  15
ENDBRANCH  11  12
ENDBRANCH   3  11
BRANCH   2  21
ATOM     21  O   UNL     1     113.169 129.316 137.140  0.00  0.00    +0.000 OA
BRANCH  21  30
ATOM     22  O   UNL     1     112.180 130.335 136.993  0.00  0.00    +0.000 OA
ATOM     23  O   UNL     1     112.314 130.815 139.418  0.00  0.00    +0.000 OA
ATOM     24  O   UNL     1     111.279 131.675 138.462  0.00  0.00    +0.000 OA
ATOM     25  O   UNL     1     113.258 129.635 138.756  0.00  0.00    +0.000 OA
ATOM     26  C   UNL     1     112.269 130.655 138.609  0.00  0.00    +0.000 C 
ATOM     27  C   UNL     1     111.752 131.085 138.131  0.00  0.00    +0.000 C 
ATOM     28  C   UNL     1     112.742 130.065 138.278  0.00  0.00    +0.000 C 
ATOM     29  C   UNL     1     111.707 130.925 137.323  0.00  0.00    +0.000 C 
ATOM     30  C   UNL     1     112.697 129.905 137.470  0.00  0.00    +0.000 C 
BRANCH  29  32
ATOM     31  O   UNL     1     110.735 130.968 136.277  0.00  0.00    +0.000 OA
ATOM     32  C   UNL     1     111.190 131.355 136.846  0.00  0.00    +0.000 C 
ENDBRANCH  29  32
ENDBRANCH  21  30
ENDBRANCH   2  21
TORSDOF 7
ENDMDL
MODEL 2
REMARK VINA RESULT:      -8.2     11.698     13.744
REMARK  Name = 14524443
REMARK  7 active torsions:
REMARK  status: ('A' for Active; 'I' for Inactive)
REMARK    1  A    between atoms: O_2  and  C_15
REMARK    2  A    between atoms: O_2  and  C_17
REMARK    3  A    between atoms: O_7  and  C_21
REMARK    4  A    between atoms: C_14  and  C_16
REMARK    5  A    between atoms: C_18  and  C_23
REMARK    6  A    between atoms: C_23  and  C_24
REMARK    7  A    between atoms: C_25  and  C_27
REMARK                            x       y       z     vdW  Elec       q    Type
REMARK                         _______ _______ _______ _____ _____    ______ ____
ROOT
ATOM      1  O   UNL     1     108.082 125.685 147.087  0.00  0.00    +0.000 OA
ATOM      2  C   UNL     1     105.926 125.360 147.197  0.00  0.00    +0.000 A 
ATOM      3  C   UNL     1     106.661 125.645 146.950  0.00  0.00    +0.000 A 
ATOM      4  C   UNL     1     105.881 124.831 147.828  0.00  0.00    +0.000 A 
ATOM      5  C   UNL     1     107.348 125.400 147.334  0.00  0.00    +0.000 A 
ATOM      6  C   UNL     1     106.569 124.586 148.212  0.00  0.00    +0.000 A 
ATOM      7  C   UNL     1     107.302 124.871 147.965  0.00  0.00    +0.000 A 
ENDROOT
BRANCH   6   8
ATOM      8  O   UNL     1     106.522 124.057 148.843  0.00  0.00    +0.000 OA
ATOM      9  C   UNL     1     106.666 124.319 149.612  0.00  0.00    +0.000 C 
ENDBRANCH   6   8
BRANCH   3  11
ATOM     10  O   UNL     1     106.750 125.892 145.545  0.00  0.00    +0.000 OA
ATOM     11  C   UNL     1     106.706 126.174 146.319  0.00  0.00    +0.000 C 
BRANCH  11  12
ATOM     12  C   UNL     1     106.707 126.987 146.462  0.00  0.00    +0.000 C 
ATOM     13  C   UNL     1     106.758 127.517 145.831  0.00  0.00    +0.000 C 
BRANCH  13  15
ATOM     14  O   UNL     1     106.762 130.766 146.404  0.00  0.00    +0.000 OA
ATOM     15  C   UNL     1     106.759 128.330 145.975  0.00  0.00    +0.000 A 
ATOM     16  C   UNL     1     107.442 128.772 145.839  0.00  0.00    +0.000 A 
ATOM     17  C   UNL     1     106.077 128.700 146.254  0.00  0.00    +0.000 A 
ATOM     18  C   UNL     1     107.443 129.583 145.982  0.00  0.00    +0.000 A 
ATOM     19  C   UNL     1     106.078 129.513 146.397  0.00  0.00    +0.000 A 
ATOM     20  C   UNL     1     106.761 129.955 146.261  0.00  0.00    +0.000 A 
ENDBRANCH  13  15
ENDBRANCH  11  12
ENDBRANCH   3  11
BRANCH   2  21
ATOM     21  O   UNL     1     105.238 125.605 146.813  0.00  0.00    +0.000 OA
BRANCH  21  30
ATOM     22  O   UNL     1     104.658 124.390 146.338  0.00  0.00    +0.000 OA
ATOM     23  O   UNL     1     102.522 124.977 147.442  0.00  0.00    +0.000 OA
ATOM     24  O   UNL     1     102.654 123.566 146.598  0.00  0.00    +0.000 OA
ATOM     25  O   UNL     1     103.814 125.997 147.549  0.00  0.00    +0.000 OA
ATOM     26  C   UNL     1     103.234 124.782 147.074  0.00  0.00    +0.000 C 
ATOM     27  C   UNL     1     103.300 124.075 146.652  0.00  0.00    +0.000 C 
ATOM     28  C   UNL     1     103.881 125.291 147.127  0.00  0.00    +0.000 C 
ATOM     29  C   UNL     1     104.012 123.879 146.284  0.00  0.00    +0.000 C 
ATOM     30  C   UNL     1     104.592 125.095 146.759  0.00  0.00    +0.000 C 
BRANCH  29  32
ATOM     31  O   UNL     1     104.458 123.164 145.130  0.00  0.00    +0.000 OA
ATOM     32  C   UNL     1     104.077 123.174 145.862  0.00  0.00    +0.000 C 
ENDBRANCH  29  32
ENDBRANCH  21  30
ENDBRANCH   2  21
TORSDOF 7
ENDMDL
MODEL 3
REMARK VINA RESULT:      -8.1     13.301     14.970
REMARK  Name = 14524443
REMARK  7 active torsions:
REMARK  status: ('A' for Active; 'I' for Inactive)
REMARK    1  A    between atoms: O_2  and  C_15
REMARK    2  A    between atoms: O_2  and  C_17
REMARK    3  A    between atoms: O_7  and  C_21
REMARK    4  A    between atoms: C_14  and  C_16
REMARK    5  A    between atoms: C_18  and  C_23
REMARK    6  A    between atoms: C_23  and  C_24
REMARK    7  A    between atoms: C_25  and  C_27
REMARK                            x       y       z     vdW  Elec       q    Type
REMARK                         _______ _______ _______ _____ _____    ______ ____
ROOT
ATOM      1  O   UNL     1     102.078 126.093 148.451  0.00  0.00    +0.000 OA
ATOM      2  C   UNL     1     104.178 125.650 148.052  0.00  0.00    +0.000 A 
ATOM      3  C   UNL     1     103.368 125.546 148.173  0.00  0.00    +0.000 A 
ATOM      4  C   UNL     1     104.505 126.406 148.087  0.00  0.00    +0.000 A 
ATOM      5  C   UNL     1     102.887 126.198 148.330  0.00  0.00    +0.000 A 
ATOM      6  C   UNL     1     104.024 127.058 148.244  0.00  0.00    +0.000 A 
ATOM      7  C   UNL     1     103.216 126.954 148.365  0.00  0.00    +0.000 A 
ENDROOT
BRANCH   6   8
ATOM      8  O   UNL     1     104.352 127.813 148.279  0.00  0.00    +0.000 OA
ATOM      9  C   UNL     1     104.572 128.134 149.006  0.00  0.00    +0.000 C 
ENDBRANCH   6   8
BRANCH   3  11
ATOM     10  O   UNL     1     103.075 124.293 148.796  0.00  0.00    +0.000 OA
ATOM     11  C   UNL     1     103.040 124.790 148.138  0.00  0.00    +0.000 C 
BRANCH  11  12
ATOM     12  C   UNL     1     102.677 124.530 147.444  0.00  0.00    +0.000 C 
ATOM     13  C   UNL     1     102.339 123.778 147.412  0.00  0.00    +0.000 C 
BRANCH  13  15
ATOM     14  O   UNL     1     100.889 122.739 144.636  0.00  0.00    +0.000 OA
ATOM     15  C   UNL     1     101.976 123.518 146.718  0.00  0.00    +0.000 A 
ATOM     16  C   UNL     1     101.170 123.650 146.599  0.00  0.00    +0.000 A 
ATOM     17  C   UNL     1     102.420 123.127 146.143  0.00  0.00    +0.000 A 
ATOM     18  C   UNL     1     100.808 123.390 145.905  0.00  0.00    +0.000 A 
ATOM     19  C   UNL     1     102.057 122.867 145.448  0.00  0.00    +0.000 A 
ATOM     20  C   UNL     1     101.251 122.999 145.329  0.00  0.00    +0.000 A 
ENDBRANCH  13  15
ENDBRANCH  11  12
ENDBRANCH   3  11
BRANCH   2  21
ATOM     21  O   UNL     1     104.659 124.998 147.895  0.00  0.00    +0.000 OA
BRANCH  21  30
ATOM     22  O   UNL     1     105.223 125.304 146.619  0.00  0.00    +0.000 OA
ATOM     23  O   UNL     1     107.489 124.881 147.520  0.00  0.00    +0.000 OA
ATOM     24  O   UNL     1     107.298 125.327 145.943  0.00  0.00    +0.000 OA
ATOM     25  O   UNL     1     106.170 124.717 148.496  0.00  0.00    +0.000 OA
ATOM     26  C   UNL     1     106.733 125.022 147.220  0.00  0.00    +0.000 C 
ATOM     27  C   UNL     1     106.638 125.245 146.431  0.00  0.00    +0.000 C 
ATOM     28  C   UNL     1     106.073 124.940 147.708  0.00  0.00    +0.000 C 
ATOM     29  C   UNL     1     105.882 125.386 146.131  0.00  0.00    +0.000 C 
ATOM     30  C   UNL     1     105.318 125.081 147.407  0.00  0.00    +0.000 C 
BRANCH  29  32
ATOM     31  O   UNL     1     105.105 125.393 144.931  0.00  0.00    +0.000 OA
ATOM     32  C   UNL     1     105.787 125.609 145.343  0.00  0.00    +0.000 C 
ENDBRANCH  29  32
ENDBRANCH  21  30
ENDBRANCH   2  21
TORSDOF 7
ENDMDL
MODEL 4
REMARK VINA RESULT:      -8.1      2.870      4.859
REMARK  Name = 14524443
REMARK  7 active torsions:
REMARK  status: ('A' for Active; 'I' for Inactive)
REMARK    1  A    between atoms: O_2  and  C_15
REMARK    2  A    between atoms: O_2  and  C_17
REMARK    3  A    between atoms: O_7  and  C_21
REMARK    4  A    between atoms: C_14  and  C_16
REMARK    5  A    between atoms: C_18  and  C_23
REMARK    6  A    between atoms: C_23  and  C_24
REMARK    7  A    between atoms: C_25  and  C_27
REMARK                            x       y       z     vdW  Elec       q    Type
REMARK                         _______ _______ _______ _____ _____    ______ ____
ROOT
ATOM      1  O   UNL     1     111.218 125.985 135.183  0.00  0.00    +0.000 OA
ATOM      2  C   UNL     1     111.594 126.082 137.331  0.00  0.00    +0.000 A 
ATOM      3  C   UNL     1     111.462 126.317 136.550  0.00  0.00    +0.000 A 
ATOM      4  C   UNL     1     111.612 125.280 137.522  0.00  0.00    +0.000 A 
ATOM      5  C   UNL     1     111.349 125.750 135.962  0.00  0.00    +0.000 A 
ATOM      6  C   UNL     1     111.499 124.713 136.933  0.00  0.00    +0.000 A 
ATOM      7  C   UNL     1     111.368 124.948 136.154  0.00  0.00    +0.000 A 
ENDROOT
BRANCH   6   8
ATOM      8  O   UNL     1     111.518 123.911 137.125  0.00  0.00    +0.000 OA
ATOM      9  C   UNL     1     112.196 123.466 136.972  0.00  0.00    +0.000 C 
ENDBRANCH   6   8
BRANCH   3  11
ATOM     10  O   UNL     1     110.741 127.545 136.430  0.00  0.00    +0.000 OA
ATOM     11  C   UNL     1     111.444 127.119 136.360  0.00  0.00    +0.000 C 
BRANCH  11  12
ATOM     12  C   UNL     1     112.130 127.497 136.098  0.00  0.00    +0.000 C 
ATOM     13  C   UNL     1     112.112 128.299 135.908  0.00  0.00    +0.000 C 
BRANCH  13  15
ATOM     14  O   UNL     1     114.855 129.807 134.861  0.00  0.00    +0.000 OA
ATOM     15  C   UNL     1     112.798 128.677 135.647  0.00  0.00    +0.000 A 
ATOM     16  C   UNL     1     113.440 128.766 136.157  0.00  0.00    +0.000 A 
ATOM     17  C   UNL     1     112.841 128.964 134.875  0.00  0.00    +0.000 A 
ATOM     18  C   UNL     1     114.125 129.143 135.895  0.00  0.00    +0.000 A 
ATOM     19  C   UNL     1     113.528 129.341 134.613  0.00  0.00    +0.000 A 
ATOM     20  C   UNL     1     114.170 129.430 135.123  0.00  0.00    +0.000 A 
ENDBRANCH  13  15
ENDBRANCH  11  12
ENDBRANCH   3  11
BRANCH   2  21
ATOM     21  O   UNL     1     111.707 126.649 137.919  0.00  0.00    +0.000 OA
BRANCH  21  30
ATOM     22  O   UNL     1     110.640 126.356 138.822  0.00  0.00    +0.000 OA
ATOM     23  O   UNL     1     112.234 126.382 140.715  0.00  0.00    +0.000 OA
ATOM     24  O   UNL     1     110.635 126.080 140.987  0.00  0.00    +0.000 OA
ATOM     25  O   UNL     1     112.770 126.666 139.181  0.00  0.00    +0.000 OA
ATOM     26  C   UNL     1     111.703 126.373 140.084  0.00  0.00    +0.000 C 
ATOM     27  C   UNL     1     110.902 126.222 140.220  0.00  0.00    +0.000 C 
ATOM     28  C   UNL     1     111.970 126.515 139.317  0.00  0.00    +0.000 C 
ATOM     29  C   UNL     1     110.371 126.214 139.589  0.00  0.00    +0.000 C 
ATOM     30  C   UNL     1     111.439 126.507 138.686  0.00  0.00    +0.000 C 
BRANCH  29  32
ATOM     31  O   UNL     1     108.995 126.486 139.312  0.00  0.00    +0.000 OA
ATOM     32  C   UNL     1     109.572 126.063 139.725  0.00  0.00    +0.000 C 
ENDBRANCH  29  32
ENDBRANCH  21  30
ENDBRANCH   2  21
TORSDOF 7
ENDMDL
MODEL 5
REMARK VINA RESULT:      -8.1      1.774      3.128
REMARK  Name = 14524443
REMARK  7 active torsions:
REMARK  status: ('A' for Active; 'I' for Inactive)
REMARK    1  A    between atoms: O_2  and  C_15
REMARK    2  A    between atoms: O_2  and  C_17
REMARK    3  A    between atoms: O_7  and  C_21
REMARK    4  A    between atoms: C_14  and  C_16
REMARK    5  A    between atoms: C_18  and  C_23
REMARK    6  A    between atoms: C_23  and  C_24
REMARK    7  A    between atoms: C_25  and  C_27
REMARK                            x       y       z     vdW  Elec       q    Type
REMARK                         _______ _______ _______ _____ _____    ______ ____
ROOT
ATOM      1  O   UNL     1     114.260 127.389 140.680  0.00  0.00    +0.000 OA
ATOM      2  C   UNL     1     113.129 128.910 139.597  0.00  0.00    +0.000 A 
ATOM      3  C   UNL     1     113.411 128.173 139.840  0.00  0.00    +0.000 A 
ATOM      4  C   UNL     1     113.415 129.598 139.951  0.00  0.00    +0.000 A 
ATOM      5  C   UNL     1     113.979 128.125 140.437  0.00  0.00    +0.000 A 
ATOM      6  C   UNL     1     113.982 129.550 140.548  0.00  0.00    +0.000 A 
ATOM      7  C   UNL     1     114.264 128.814 140.791  0.00  0.00    +0.000 A 
ENDROOT
BRANCH   6   8
ATOM      8  O   UNL     1     114.268 130.238 140.902  0.00  0.00    +0.000 OA
ATOM      9  C   UNL     1     115.022 130.514 140.716  0.00  0.00    +0.000 C 
ENDBRANCH   6   8
BRANCH   3  11
ATOM     10  O   UNL     1     112.419 127.149 139.747  0.00  0.00    +0.000 OA
ATOM     11  C   UNL     1     113.126 127.485 139.486  0.00  0.00    +0.000 C 
BRANCH  11  12
ATOM     12  C   UNL     1     113.547 127.134 138.869  0.00  0.00    +0.000 C 
ATOM     13  C   UNL     1     113.274 126.433 138.531  0.00  0.00    +0.000 C 
BRANCH  13  15
ATOM     14  O   UNL     1     114.960 125.026 136.067  0.00  0.00    +0.000 OA
ATOM     15  C   UNL     1     113.696 126.081 137.915  0.00  0.00    +0.000 A 
ATOM     16  C   UNL     1     114.190 125.438 138.067  0.00  0.00    +0.000 A 
ATOM     17  C   UNL     1     113.623 126.373 137.147  0.00  0.00    +0.000 A 
ATOM     18  C   UNL     1     114.611 125.087 137.451  0.00  0.00    +0.000 A 
ATOM     19  C   UNL     1     114.045 126.021 136.530  0.00  0.00    +0.000 A 
ATOM     20  C   UNL     1     114.539 125.378 136.683  0.00  0.00    +0.000 A 
ENDBRANCH  13  15
ENDBRANCH  11  12
ENDBRANCH   3  11
BRANCH   2  21
ATOM     21  O   UNL     1     112.562 128.958 139.000  0.00  0.00    +0.000 OA
BRANCH  21  30
ATOM     22  O   UNL     1     113.184 129.801 138.029  0.00  0.00    +0.000 OA
ATOM     23  O   UNL     1     111.169 131.237 137.984  0.00  0.00    +0.000 OA
ATOM     24  O   UNL     1     112.463 131.602 137.028  0.00  0.00    +0.000 OA
ATOM     25  O   UNL     1     111.219 129.915 138.970  0.00  0.00    +0.000 OA
ATOM     26  C   UNL     1     111.840 130.758 137.999  0.00  0.00    +0.000 C 
ATOM     27  C   UNL     1     112.488 130.941 137.521  0.00  0.00    +0.000 C 
ATOM     28  C   UNL     1     111.866 130.097 138.492  0.00  0.00    +0.000 C 
ATOM     29  C   UNL     1     113.160 130.462 137.536  0.00  0.00    +0.000 C 
ATOM     30  C   UNL     1     112.538 129.619 138.507  0.00  0.00    +0.000 C 
BRANCH  29  32
ATOM     31  O   UNL     1     114.209 130.044 136.661  0.00  0.00    +0.000 OA
ATOM     32  C   UNL     1     113.807 130.644 137.058  0.00  0.00    +0.000 C 
ENDBRANCH  29  32
ENDBRANCH  21  30
ENDBRANCH   2  21
TORSDOF 7
ENDMDL
MODEL 6
REMARK VINA RESULT:      -8.0      3.742      4.797
REMARK  Name = 14524443
REMARK  7 active torsions:
REMARK  status: ('A' for Active; 'I' for Inactive)
REMARK    1  A    between atoms: O_2  and  C_15
REMARK    2  A    between atoms: O_2  and  C_17
REMARK    3  A    between atoms: O_7  and  C_21
REMARK    4  A    between atoms: C_14  and  C_16
REMARK    5  A    between atoms: C_18  and  C_23
REMARK    6  A    between atoms: C_23  and  C_24
REMARK    7  A    between atoms: C_25  and  C_27
REMARK                            x       y       z     vdW  Elec       q    Type
REMARK                         _______ _______ _______ _____ _____    ______ ____
ROOT
ATOM      1  O   UNL     1     110.441 125.471 136.388  0.00  0.00    +0.000 OA
ATOM      2  C   UNL     1     110.750 126.280 138.392  0.00  0.00    +0.000 A 
ATOM      3  C   UNL     1     110.826 125.801 137.723  0.00  0.00    +0.000 A 
ATOM      4  C   UNL     1     110.213 126.906 138.391  0.00  0.00    +0.000 A 
ATOM      5  C   UNL     1     110.365 125.949 137.055  0.00  0.00    +0.000 A 
ATOM      6  C   UNL     1     109.752 127.054 137.723  0.00  0.00    +0.000 A 
ATOM      7  C   UNL     1     109.828 126.576 137.056  0.00  0.00    +0.000 A 
ENDROOT
BRANCH   6   8
ATOM      8  O   UNL     1     109.215 127.680 137.723  0.00  0.00    +0.000 OA
ATOM      9  C   UNL     1     109.436 128.412 137.414  0.00  0.00    +0.000 C 
ENDBRANCH   6   8
BRANCH   3  11
ATOM     10  O   UNL     1     111.137 124.437 138.016  0.00  0.00    +0.000 OA
ATOM     11  C   UNL     1     111.363 125.175 137.724  0.00  0.00    +0.000 C 
BRANCH  11  12
ATOM     12  C   UNL     1     112.127 125.287 137.432  0.00  0.00    +0.000 C 
ATOM     13  C   UNL     1     112.655 124.654 137.407  0.00  0.00    +0.000 C 
BRANCH  13  15
ATOM     14  O   UNL     1     115.709 125.103 136.240  0.00  0.00    +0.000 OA
ATOM     15  C   UNL     1     113.419 124.767 137.115  0.00  0.00    +0.000 A 
ATOM     16  C   UNL     1     114.020 125.024 137.619  0.00  0.00    +0.000 A 
ATOM     17  C   UNL     1     113.582 124.621 136.320  0.00  0.00    +0.000 A 
ATOM     18  C   UNL     1     114.782 125.136 137.327  0.00  0.00    +0.000 A 
ATOM     19  C   UNL     1     114.346 124.733 136.028  0.00  0.00    +0.000 A 
ATOM     20  C   UNL     1     114.946 124.991 136.532  0.00  0.00    +0.000 A 
ENDBRANCH  13  15
ENDBRANCH  11  12
ENDBRANCH   3  11
BRANCH   2  21
ATOM     21  O   UNL     1     111.211 126.132 139.060  0.00  0.00    +0.000 OA
BRANCH  21  30
ATOM     22  O   UNL     1     110.209 125.894 140.049  0.00  0.00    +0.000 OA
ATOM     23  O   UNL     1     111.368 127.440 141.595  0.00  0.00    +0.000 OA
ATOM     24  O   UNL     1     109.979 126.686 142.070  0.00  0.00    +0.000 OA
ATOM     25  O   UNL     1     111.984 127.162 140.090  0.00  0.00    +0.000 OA
ATOM     26  C   UNL     1     110.982 126.924 141.080  0.00  0.00    +0.000 C 
ATOM     27  C   UNL     1     110.286 126.547 141.317  0.00  0.00    +0.000 C 
ATOM     28  C   UNL     1     111.289 126.785 140.327  0.00  0.00    +0.000 C 
ATOM     29  C   UNL     1     109.900 126.032 140.802  0.00  0.00    +0.000 C 
ATOM     30  C   UNL     1     110.903 126.270 139.812  0.00  0.00    +0.000 C 
BRANCH  29  32
ATOM     31  O   UNL     1     109.138 124.836 140.975  0.00  0.00    +0.000 OA
ATOM     32  C   UNL     1     109.206 125.655 141.039  0.00  0.00    +0.000 C 
ENDBRANCH  29  32
ENDBRANCH  21  30
ENDBRANCH   2  21
TORSDOF 7
ENDMDL
MODEL 7
REMARK VINA RESULT:      -8.0      2.272      3.311
REMARK  Name = 14524443
REMARK  7 active torsions:
REMARK  status: ('A' for Active; 'I' for Inactive)
REMARK    1  A    between atoms: O_2  and  C_15
REMARK    2  A    between atoms: O_2  and  C_17
REMARK    3  A    between atoms: O_7  and  C_21
REMARK    4  A    between atoms: C_14  and  C_16
REMARK    5  A    between atoms: C_18  and  C_23
REMARK    6  A    between atoms: C_23  and  C_24
REMARK    7  A    between atoms: C_25  and  C_27
REMARK                            x       y       z     vdW  Elec       q    Type
REMARK                         _______ _______ _______ _____ _____    ______ ____
ROOT
ATOM      1  O   UNL     1     113.397 127.655 138.397  0.00  0.00    +0.000 OA
ATOM      2  C   UNL     1     111.990 128.527 136.974  0.00  0.00    +0.000 A 
ATOM      3  C   UNL     1     112.568 128.034 137.297  0.00  0.00    +0.000 A 
ATOM      4  C   UNL     1     111.663 129.132 137.430  0.00  0.00    +0.000 A 
ATOM      5  C   UNL     1     112.819 128.147 138.075  0.00  0.00    +0.000 A 
ATOM      6  C   UNL     1     111.914 129.244 138.208  0.00  0.00    +0.000 A 
ATOM      7  C   UNL     1     112.491 128.752 138.530  0.00  0.00    +0.000 A 
ENDROOT
BRANCH   6   8
ATOM      8  O   UNL     1     111.587 129.849 138.662  0.00  0.00    +0.000 OA
ATOM      9  C   UNL     1     111.993 130.561 138.756  0.00  0.00    +0.000 C 
ENDBRANCH   6   8
BRANCH   3  11
ATOM     10  O   UNL     1     113.463 127.604 136.269  0.00  0.00    +0.000 OA
ATOM     11  C   UNL     1     112.895 127.429 136.841  0.00  0.00    +0.000 C 
BRANCH  11  12
ATOM     12  C   UNL     1     112.654 126.648 136.959  0.00  0.00    +0.000 C 
ATOM     13  C   UNL     1     112.947 126.049 136.473  0.00  0.00    +0.000 C 
BRANCH  13  15
ATOM     14  O   UNL     1     111.982 122.928 136.942  0.00  0.00    +0.000 OA
ATOM     15  C   UNL     1     112.705 125.268 136.591  0.00  0.00    +0.000 A 
ATOM     16  C   UNL     1     111.930 125.046 136.417  0.00  0.00    +0.000 A 
ATOM     17  C   UNL     1     113.240 124.711 136.882  0.00  0.00    +0.000 A 
ATOM     18  C   UNL     1     111.689 124.266 136.534  0.00  0.00    +0.000 A 
ATOM     19  C   UNL     1     112.998 123.931 136.999  0.00  0.00    +0.000 A 
ATOM     20  C   UNL     1     112.223 123.708 136.825  0.00  0.00    +0.000 A 
ENDBRANCH  13  15
ENDBRANCH  11  12
ENDBRANCH   3  11
BRANCH   2  21
ATOM     21  O   UNL     1     111.739 128.414 136.196  0.00  0.00    +0.000 OA
BRANCH  21  30
ATOM     22  O   UNL     1     110.335 128.204 136.349  0.00  0.00    +0.000 OA
ATOM     23  O   UNL     1     109.891 129.910 134.612  0.00  0.00    +0.000 OA
ATOM     24  O   UNL     1     108.633 129.132 135.344  0.00  0.00    +0.000 OA
ATOM     25  O   UNL     1     111.443 129.551 135.038  0.00  0.00    +0.000 OA
ATOM     26  C   UNL     1     110.039 129.342 135.191  0.00  0.00    +0.000 C 
ATOM     27  C   UNL     1     109.410 128.952 135.557  0.00  0.00    +0.000 C 
ATOM     28  C   UNL     1     110.815 129.162 135.404  0.00  0.00    +0.000 C 
ATOM     29  C   UNL     1     109.558 128.383 136.136  0.00  0.00    +0.000 C 
ATOM     30  C   UNL     1     110.963 128.593 135.984  0.00  0.00    +0.000 C 
BRANCH  29  32
ATOM     31  O   UNL     1     109.000 127.198 136.708  0.00  0.00    +0.000 OA
ATOM     32  C   UNL     1     108.929 127.994 136.502  0.00  0.00    +0.000 C 
ENDBRANCH  29  32
ENDBRANCH  21  30
ENDBRANCH   2  21
TORSDOF 7
ENDMDL
MODEL 8
REMARK VINA RESULT:      -8.0      2.169      3.522
REMARK  Name = 14524443
REMARK  7 active torsions:
REMARK  status: ('A' for Active; 'I' for Inactive)
REMARK    1  A    between atoms: O_2  and  C_15
REMARK    2  A    between atoms: O_2  and  C_17
REMARK    3  A    between atoms: O_7  and  C_21
REMARK    4  A    between atoms: C_14  and  C_16
REMARK    5  A    between atoms: C_18  and  C_23
REMARK    6  A    between atoms: C_23  and  C_24
REMARK    7  A    between atoms: C_25  and  C_27
REMARK                            x       y       z     vdW  Elec       q    Type
REMARK                         _______ _______ _______ _____ _____    ______ ____
ROOT
ATOM      1  O   UNL     1     113.196 125.545 138.277  0.00  0.00    +0.000 OA
ATOM      2  C   UNL     1     113.095 127.726 138.290  0.00  0.00    +0.000 A 
ATOM      3  C   UNL     1     113.109 126.947 138.016  0.00  0.00    +0.000 A 
ATOM      4  C   UNL     1     113.154 127.879 139.098  0.00  0.00    +0.000 A 
ATOM      5  C   UNL     1     113.182 126.323 138.551  0.00  0.00    +0.000 A 
ATOM      6  C   UNL     1     113.227 127.254 139.633  0.00  0.00    +0.000 A 
ATOM      7  C   UNL     1     113.240 126.477 139.359  0.00  0.00    +0.000 A 
ENDROOT
BRANCH   6   8
ATOM      8  O   UNL     1     113.285 127.408 140.441  0.00  0.00    +0.000 OA
ATOM      9  C   UNL     1     114.024 127.409 140.808  0.00  0.00    +0.000 C 
ENDBRANCH   6   8
BRANCH   3  11
ATOM     10  O   UNL     1     113.724 126.821 136.732  0.00  0.00    +0.000 OA
ATOM     11  C   UNL     1     113.051 126.794 137.208  0.00  0.00    +0.000 C 
BRANCH  11  12
ATOM     12  C   UNL     1     112.317 126.612 136.875  0.00  0.00    +0.000 C 
ATOM     13  C   UNL     1     112.263 126.431 136.072  0.00  0.00    +0.000 C 
BRANCH  13  15
ATOM     14  O   UNL     1     109.331 125.708 134.741  0.00  0.00    +0.000 OA
ATOM     15  C   UNL     1     111.529 126.250 135.739  0.00  0.00    +0.000 A 
ATOM     16  C   UNL     1     111.263 125.469 135.727  0.00  0.00    +0.000 A 
ATOM     17  C   UNL     1     111.063 126.850 135.418  0.00  0.00    +0.000 A 
ATOM     18  C   UNL     1     110.530 125.289 135.395  0.00  0.00    +0.000 A 
ATOM     19  C   UNL     1     110.330 126.669 135.085  0.00  0.00    +0.000 A 
ATOM     20  C   UNL     1     110.063 125.889 135.074  0.00  0.00    +0.000 A 
ENDBRANCH  13  15
ENDBRANCH  11  12
ENDBRANCH   3  11
BRANCH   2  21
ATOM     21  O   UNL     1     113.023 128.350 137.756  0.00  0.00    +0.000 OA
BRANCH  21  30
ATOM     22  O   UNL     1     111.883 129.048 138.259  0.00  0.00    +0.000 OA
ATOM     23  O   UNL     1     113.143 131.176 138.156  0.00  0.00    +0.000 OA
ATOM     24  O   UNL     1     111.583 131.166 138.694  0.00  0.00    +0.000 OA
ATOM     25  O   UNL     1     113.862 129.768 137.687  0.00  0.00    +0.000 OA
ATOM     26  C   UNL     1     112.723 130.467 138.190  0.00  0.00    +0.000 C 
ATOM     27  C   UNL     1     111.943 130.462 138.460  0.00  0.00    +0.000 C 
ATOM     28  C   UNL     1     113.083 129.763 137.956  0.00  0.00    +0.000 C 
ATOM     29  C   UNL     1     111.523 129.752 138.494  0.00  0.00    +0.000 C 
ATOM     30  C   UNL     1     112.663 129.053 137.990  0.00  0.00    +0.000 C 
BRANCH  29  32
ATOM     31  O   UNL     1     110.178 129.282 138.383  0.00  0.00    +0.000 OA
ATOM     32  C   UNL     1     110.744 129.747 138.763  0.00  0.00    +0.000 C 
ENDBRANCH  29  32
ENDBRANCH  21  30
ENDBRANCH   2  21
TORSDOF 7
ENDMDL
MODEL 9
REMARK VINA RESULT:      -7.9      3.202      6.057
REMARK  Name = 14524443
REMARK  7 active torsions:
REMARK  status: ('A' for Active; 'I' for Inactive)
REMARK    1  A    between atoms: O_2  and  C_15
REMARK    2  A    between atoms: O_2  and  C_17
REMARK    3  A    between atoms: O_7  and  C_21
REMARK    4  A    between atoms: C_14  and  C_16
REMARK    5  A    between atoms: C_18  and  C_23
REMARK    6  A    between atoms: C_23  and  C_24
REMARK    7  A    between atoms: C_25  and  C_27
REMARK                            x       y       z     vdW  Elec       q    Type
REMARK                         _______ _______ _______ _____ _____    ______ ____
ROOT
ATOM      1  O   UNL     1     108.827 126.556 137.995  0.00  0.00    +0.000 OA
ATOM      2  C   UNL     1     110.942 126.371 137.486  0.00  0.00    +0.000 A 
ATOM      3  C   UNL     1     110.130 126.502 137.412  0.00  0.00    +0.000 A 
ATOM      4  C   UNL     1     111.260 126.164 138.218  0.00  0.00    +0.000 A 
ATOM      5  C   UNL     1     109.637 126.425 138.069  0.00  0.00    +0.000 A 
ATOM      6  C   UNL     1     110.768 126.087 138.876  0.00  0.00    +0.000 A 
ATOM      7  C   UNL     1     109.957 126.218 138.801  0.00  0.00    +0.000 A 
ENDROOT
BRANCH   6   8
ATOM      8  O   UNL     1     111.086 125.879 139.607  0.00  0.00    +0.000 OA
ATOM      9  C   UNL     1     111.278 126.466 140.155  0.00  0.00    +0.000 C 
ENDBRANCH   6   8
BRANCH   3  11
ATOM     10  O   UNL     1     109.530 126.125 136.171  0.00  0.00    +0.000 OA
ATOM     11  C   UNL     1     109.812 126.710 136.680  0.00  0.00    +0.000 C 
BRANCH  11  12
ATOM     12  C   UNL     1     109.775 127.504 136.456  0.00  0.00    +0.000 C 
ATOM     13  C   UNL     1     109.408 127.716 135.749  0.00  0.00    +0.000 C 
BRANCH  13  15
ATOM     14  O   UNL     1     109.263 130.890 134.856  0.00  0.00    +0.000 OA
ATOM     15  C   UNL     1     109.372 128.510 135.525  0.00  0.00    +0.000 A 
ATOM     16  C   UNL     1     108.814 129.010 135.870  0.00  0.00    +0.000 A 
ATOM     17  C   UNL     1     109.894 128.802 134.958  0.00  0.00    +0.000 A 
ATOM     18  C   UNL     1     108.777 129.803 135.647  0.00  0.00    +0.000 A 
ATOM     19  C   UNL     1     109.857 129.597 134.734  0.00  0.00    +0.000 A 
ATOM     20  C   UNL     1     109.299 130.097 135.079  0.00  0.00    +0.000 A 
ENDBRANCH  13  15
ENDBRANCH  11  12
ENDBRANCH   3  11
BRANCH   2  21
ATOM     21  O   UNL     1     111.434 126.448 136.829  0.00  0.00    +0.000 OA
BRANCH  21  30
ATOM     22  O   UNL     1     112.013 125.145 136.756  0.00  0.00    +0.000 OA
ATOM     23  O   UNL     1     114.259 126.157 136.513  0.00  0.00    +0.000 OA
ATOM     24  O   UNL     1     114.090 124.515 136.521  0.00  0.00    +0.000 OA
ATOM     25  O   UNL     1     112.931 127.123 136.667  0.00  0.00    +0.000 OA
ATOM     26  C   UNL     1     113.510 125.819 136.594  0.00  0.00    +0.000 C 
ATOM     27  C   UNL     1     113.425 124.998 136.598  0.00  0.00    +0.000 C 
ATOM     28  C   UNL     1     112.846 126.302 136.671  0.00  0.00    +0.000 C 
ATOM     29  C   UNL     1     112.677 124.661 136.679  0.00  0.00    +0.000 C 
ATOM     30  C   UNL     1     112.097 125.965 136.752  0.00  0.00    +0.000 C 
BRANCH  29  32
ATOM     31  O   UNL     1     111.936 123.491 136.326  0.00  0.00    +0.000 OA
ATOM     32  C   UNL     1     112.593 123.841 136.683  0.00  0.00    +0.000 C 
ENDBRANCH  29  32
ENDBRANCH  21  30
ENDBRANCH   2  21
TORSDOF 7
ENDMDL
MODEL 10
REMARK VINA RESULT:      -7.9      1.971      2.412
REMARK  Name = 14524443
REMARK  7 active torsions:
REMARK  status: ('A' for Active; 'I' for Inactive)
REMARK    1  A    between atoms: O_2  and  C_15
REMARK    2  A    between atoms: O_2  and  C_17
REMARK    3  A    between atoms: O_7  and  C_21
REMARK    4  A    between atoms: C_14  and  C_16
REMARK    5  A    between atoms: C_18  and  C_23
REMARK    6  A    between atoms: C_23  and  C_24
REMARK    7  A    between atoms: C_25  and  C_27
REMARK                            x       y       z     vdW  Elec       q    Type
REMARK                         _______ _______ _______ _____ _____    ______ ____
ROOT
ATOM      1  O   UNL     1     113.805 128.147 136.018  0.00  0.00    +0.000 OA
ATOM      2  C   UNL     1     111.977 128.621 137.113  0.00  0.00    +0.000 A 
ATOM      3  C   UNL     1     112.504 128.247 136.599  0.00  0.00    +0.000 A 
ATOM      4  C   UNL     1     112.227 129.268 137.559  0.00  0.00    +0.000 A 
ATOM      5  C   UNL     1     113.279 128.521 136.531  0.00  0.00    +0.000 A 
ATOM      6  C   UNL     1     113.002 129.542 137.491  0.00  0.00    +0.000 A 
ATOM      7  C   UNL     1     113.528 129.169 136.978  0.00  0.00    +0.000 A 
ENDROOT
BRANCH   6   8
ATOM      8  O   UNL     1     113.251 130.190 137.937  0.00  0.00    +0.000 OA
ATOM      9  C   UNL     1     113.645 130.071 138.652  0.00  0.00    +0.000 C 
ENDBRANCH   6   8
BRANCH   3  11
ATOM     10  O   UNL     1     111.931 127.714 135.403  0.00  0.00    +0.000 OA
ATOM     11  C   UNL     1     112.255 127.599 136.153  0.00  0.00    +0.000 C 
BRANCH  11  12
ATOM     12  C   UNL     1     112.329 126.835 136.458  0.00  0.00    +0.000 C 
ATOM     13  C   UNL     1     112.100 126.186 136.004  0.00  0.00    +0.000 C 
BRANCH  13  15
ATOM     14  O   UNL     1     112.398 123.134 137.224  0.00  0.00    +0.000 OA
ATOM     15  C   UNL     1     112.175 125.423 136.309  0.00  0.00    +0.000 A 
ATOM     16  C   UNL     1     112.918 125.066 136.351  0.00  0.00    +0.000 A 
ATOM     17  C   UNL     1     111.507 125.017 136.572  0.00  0.00    +0.000 A 
ATOM     18  C   UNL     1     112.992 124.303 136.656  0.00  0.00    +0.000 A 
ATOM     19  C   UNL     1     111.581 124.253 136.877  0.00  0.00    +0.000 A 
ATOM     20  C   UNL     1     112.324 123.897 136.919  0.00  0.00    +0.000 A 
ENDBRANCH  13  15
ENDBRANCH  11  12
ENDBRANCH   3  11
BRANCH   2  21
ATOM     21  O   UNL     1     111.202 128.346 137.181  0.00  0.00    +0.000 OA
BRANCH  21  30
ATOM     22  O   UNL     1     110.440 129.490 136.793  0.00  0.00    +0.000 OA
ATOM     23  O   UNL     1     109.043 129.247 138.822  0.00  0.00    +0.000 OA
ATOM     24  O   UNL     1     108.746 130.472 137.757  0.00  0.00    +0.000 OA
ATOM     25  O   UNL     1     110.271 128.185 138.534  0.00  0.00    +0.000 OA
ATOM     26  C   UNL     1     109.509 129.328 138.145  0.00  0.00    +0.000 C 
ATOM     27  C   UNL     1     109.360 129.941 137.612  0.00  0.00    +0.000 C 
ATOM     28  C   UNL     1     110.123 128.797 138.001  0.00  0.00    +0.000 C 
ATOM     29  C   UNL     1     109.825 130.022 136.936  0.00  0.00    +0.000 C 
ATOM     30  C   UNL     1     110.589 128.878 137.325  0.00  0.00    +0.000 C 
BRANCH  29  32
ATOM     31  O   UNL     1     109.745 130.501 135.592  0.00  0.00    +0.000 OA
ATOM     32  C   UNL     1     109.676 130.634 136.404  0.00  0.00    +0.000 C 
ENDBRANCH  29  32
ENDBRANCH  21  30
ENDBRANCH   2  21
TORSDOF 7
ENDMDL
