MODEL 1
REMARK VINA RESULT:      -9.2      0.000      0.000
REMARK  Name = 21721954
REMARK  5 active torsions:
REMARK  status: ('A' for Active; 'I' for Inactive)
REMARK    1  A    between atoms: O_2  and  C_17
REMARK    2  A    between atoms: O_2  and  C_19
REMARK    3  A    between atoms: O_10  and  C_28
REMARK    4  A    between atoms: C_16  and  C_18
REMARK    5  A    between atoms: C_21  and  C_26
REMARK                            x       y       z     vdW  Elec       q    Type
REMARK                         _______ _______ _______ _____ _____    ______ ____
ROOT
ATOM      1  O   UNL     1     113.373 127.723 136.740  0.00  0.00    +0.000 OA
ATOM      2  O   UNL     1     112.052 126.037 136.320  0.00  0.00    +0.000 OA
ATOM      3  O   UNL     1     111.099 127.302 135.858  0.00  0.00    +0.000 OA
ATOM      4  C   UNL     1     111.632 128.866 135.972  0.00  0.00    +0.000 A 
ATOM      5  C   UNL     1     112.139 128.215 136.216  0.00  0.00    +0.000 A 
ATOM      6  C   UNL     1     113.092 126.950 136.677  0.00  0.00    +0.000 C 
ATOM      7  C   UNL     1     112.334 126.809 136.383  0.00  0.00    +0.000 C 
ATOM      8  C   UNL     1     112.897 128.356 136.510  0.00  0.00    +0.000 A 
ATOM      9  C   UNL     1     111.857 127.443 136.152  0.00  0.00    +0.000 C 
ATOM     10  C   UNL     1     111.920 129.673 136.035  0.00  0.00    +0.000 A 
ATOM     11  C   UNL     1     113.201 129.156 136.580  0.00  0.00    +0.000 A 
ATOM     12  C   UNL     1     112.709 129.819 136.341  0.00  0.00    +0.000 A 
ENDROOT
BRANCH   6  15
ATOM     13  O   UNL     1     115.141 125.048 136.084  0.00  0.00    +0.000 OA
ATOM     14  O   UNL     1     114.995 124.418 137.602  0.00  0.00    +0.000 OA
ATOM     15  C   UNL     1     113.568 126.317 136.908  0.00  0.00    +0.000 A 
ATOM     16  C   UNL     1     114.116 125.999 136.381  0.00  0.00    +0.000 A 
ATOM     17  C   UNL     1     113.495 126.002 137.667  0.00  0.00    +0.000 A 
ATOM     18  C   UNL     1     114.592 125.366 136.612  0.00  0.00    +0.000 A 
ATOM     19  C   UNL     1     113.971 125.369 137.898  0.00  0.00    +0.000 A 
ATOM     20  C   UNL     1     114.520 125.051 137.371  0.00  0.00    +0.000 A 
ENDBRANCH   6  15
BRANCH  12  21
ATOM     21  O   UNL     1     112.994 130.591 136.406  0.00  0.00    +0.000 OA
ATOM     22  C   UNL     1     113.082 130.938 137.148  0.00  0.00    +0.000 C 
ENDBRANCH  12  21
BRANCH   4  23
ATOM     23  O   UNL     1     110.876 128.716 135.679  0.00  0.00    +0.000 OA
BRANCH  23  32
ATOM     24  O   UNL     1     110.092 129.207 136.768  0.00  0.00    +0.000 OA
ATOM     25  O   UNL     1     108.583 130.344 135.169  0.00  0.00    +0.000 OA
ATOM     26  O   UNL     1     108.302 130.456 136.790  0.00  0.00    +0.000 OA
ATOM     27  O   UNL     1     109.870 129.474 134.613  0.00  0.00    +0.000 OA
ATOM     28  C   UNL     1     109.086 129.965 135.702  0.00  0.00    +0.000 C 
ATOM     29  C   UNL     1     108.946 130.021 136.513  0.00  0.00    +0.000 C 
ATOM     30  C   UNL     1     109.730 129.530 135.424  0.00  0.00    +0.000 C 
ATOM     31  C   UNL     1     109.449 129.642 137.046  0.00  0.00    +0.000 C 
ATOM     32  C   UNL     1     110.233 129.151 135.957  0.00  0.00    +0.000 C 
BRANCH  31  34
ATOM     33  O   UNL     1     109.313 129.019 138.325  0.00  0.00    +0.000 OA
ATOM     34  C   UNL     1     109.308 129.698 137.856  0.00  0.00    +0.000 C 
ENDBRANCH  31  34
ENDBRANCH  23  32
ENDBRANCH   4  23
TORSDOF 5
ENDMDL
MODEL 2
REMARK VINA RESULT:      -9.1      1.434      2.129
REMARK  Name = 21721954
REMARK  5 active torsions:
REMARK  status: ('A' for Active; 'I' for Inactive)
REMARK    1  A    between atoms: O_2  and  C_17
REMARK    2  A    between atoms: O_2  and  C_19
REMARK    3  A    between atoms: O_10  and  C_28
REMARK    4  A    between atoms: C_16  and  C_18
REMARK    5  A    between atoms: C_21  and  C_26
REMARK                            x       y       z     vdW  Elec       q    Type
REMARK                         _______ _______ _______ _____ _____    ______ ____
ROOT
ATOM      1  O   UNL     1     113.667 127.372 136.287  0.00  0.00    +0.000 OA
ATOM      2  O   UNL     1     112.435 126.838 138.008  0.00  0.00    +0.000 OA
ATOM      3  O   UNL     1     112.224 128.474 137.969  0.00  0.00    +0.000 OA
ATOM      4  C   UNL     1     112.962 129.409 136.819  0.00  0.00    +0.000 A 
ATOM      5  C   UNL     1     113.080 128.557 136.828  0.00  0.00    +0.000 A 
ATOM      6  C   UNL     1     113.292 126.922 136.867  0.00  0.00    +0.000 C 
ATOM      7  C   UNL     1     112.810 127.289 137.428  0.00  0.00    +0.000 C 
ATOM      8  C   UNL     1     113.562 128.191 136.267  0.00  0.00    +0.000 A 
ATOM      9  C   UNL     1     112.705 128.107 137.408  0.00  0.00    +0.000 C 
ATOM     10  C   UNL     1     113.351 129.884 136.218  0.00  0.00    +0.000 A 
ATOM     11  C   UNL     1     113.957 128.650 135.659  0.00  0.00    +0.000 A 
ATOM     12  C   UNL     1     113.851 129.502 135.634  0.00  0.00    +0.000 A 
ENDROOT
BRANCH   6  15
ATOM     13  O   UNL     1     114.846 124.642 137.612  0.00  0.00    +0.000 OA
ATOM     14  O   UNL     1     113.711 123.649 136.944  0.00  0.00    +0.000 OA
ATOM     15  C   UNL     1     113.397 126.103 136.886  0.00  0.00    +0.000 A 
ATOM     16  C   UNL     1     114.068 125.782 137.239  0.00  0.00    +0.000 A 
ATOM     17  C   UNL     1     112.829 125.607 136.552  0.00  0.00    +0.000 A 
ATOM     18  C   UNL     1     114.173 124.964 137.259  0.00  0.00    +0.000 A 
ATOM     19  C   UNL     1     112.934 124.789 136.571  0.00  0.00    +0.000 A 
ATOM     20  C   UNL     1     113.606 124.467 136.924  0.00  0.00    +0.000 A 
ENDBRANCH   6  15
BRANCH  12  21
ATOM     21  O   UNL     1     114.228 129.950 135.052  0.00  0.00    +0.000 OA
ATOM     22  C   UNL     1     114.984 130.249 135.186  0.00  0.00    +0.000 C 
ENDBRANCH  12  21
BRANCH   4  23
ATOM     23  O   UNL     1     112.480 129.768 137.384  0.00  0.00    +0.000 OA
BRANCH  23  32
ATOM     24  O   UNL     1     111.355 130.116 136.574  0.00  0.00    +0.000 OA
ATOM     25  O   UNL     1     111.307 132.364 137.606  0.00  0.00    +0.000 OA
ATOM     26  O   UNL     1     110.200 131.963 136.452  0.00  0.00    +0.000 OA
ATOM     27  O   UNL     1     112.447 131.267 138.073  0.00  0.00    +0.000 OA
ATOM     28  C   UNL     1     111.323 131.615 137.262  0.00  0.00    +0.000 C 
ATOM     29  C   UNL     1     110.769 131.413 136.685  0.00  0.00    +0.000 C 
ATOM     30  C   UNL     1     111.894 131.065 137.495  0.00  0.00    +0.000 C 
ATOM     31  C   UNL     1     110.786 130.664 136.340  0.00  0.00    +0.000 C 
ATOM     32  C   UNL     1     111.910 130.316 137.151  0.00  0.00    +0.000 C 
BRANCH  31  34
ATOM     33  O   UNL     1     109.904 129.706 135.751  0.00  0.00    +0.000 OA
ATOM     34  C   UNL     1     110.232 130.463 135.763  0.00  0.00    +0.000 C 
ENDBRANCH  31  34
ENDBRANCH  23  32
ENDBRANCH   4  23
TORSDOF 5
ENDMDL
MODEL 3
REMARK VINA RESULT:      -9.0      2.742      5.312
REMARK  Name = 21721954
REMARK  5 active torsions:
REMARK  status: ('A' for Active; 'I' for Inactive)
REMARK    1  A    between atoms: O_2  and  C_17
REMARK    2  A    between atoms: O_2  and  C_19
REMARK    3  A    between atoms: O_10  and  C_28
REMARK    4  A    between atoms: C_16  and  C_18
REMARK    5  A    between atoms: C_21  and  C_26
REMARK                            x       y       z     vdW  Elec       q    Type
REMARK                         _______ _______ _______ _____ _____    ______ ____
ROOT
ATOM      1  O   UNL     1     113.319 129.236 138.901  0.00  0.00    +0.000 OA
ATOM      2  O   UNL     1     113.718 128.138 140.745  0.00  0.00    +0.000 OA
ATOM      3  O   UNL     1     113.066 126.947 139.808  0.00  0.00    +0.000 OA
ATOM      4  C   UNL     1     112.570 127.248 138.257  0.00  0.00    +0.000 A 
ATOM      5  C   UNL     1     112.909 127.878 138.735  0.00  0.00    +0.000 A 
ATOM      6  C   UNL     1     113.561 129.069 139.671  0.00  0.00    +0.000 C 
ATOM      7  C   UNL     1     113.477 128.306 139.974  0.00  0.00    +0.000 C 
ATOM      8  C   UNL     1     112.993 128.640 138.432  0.00  0.00    +0.000 A 
ATOM      9  C   UNL     1     113.150 127.710 139.505  0.00  0.00    +0.000 C 
ATOM     10  C   UNL     1     112.317 127.416 137.453  0.00  0.00    +0.000 A 
ATOM     11  C   UNL     1     112.745 128.827 137.631  0.00  0.00    +0.000 A 
ATOM     12  C   UNL     1     112.405 128.211 137.138  0.00  0.00    +0.000 A 
ENDROOT
BRANCH   6  15
ATOM     13  O   UNL     1     113.252 131.125 141.632  0.00  0.00    +0.000 OA
ATOM     14  O   UNL     1     114.868 131.450 141.545  0.00  0.00    +0.000 OA
ATOM     15  C   UNL     1     113.887 129.665 140.140  0.00  0.00    +0.000 A 
ATOM     16  C   UNL     1     113.407 130.097 140.652  0.00  0.00    +0.000 A 
ATOM     17  C   UNL     1     114.695 129.827 140.096  0.00  0.00    +0.000 A 
ATOM     18  C   UNL     1     113.733 130.692 141.120  0.00  0.00    +0.000 A 
ATOM     19  C   UNL     1     115.021 130.422 140.565  0.00  0.00    +0.000 A 
ATOM     20  C   UNL     1     114.541 130.855 141.077  0.00  0.00    +0.000 A 
ENDBRANCH   6  15
BRANCH  12  21
ATOM     21  O   UNL     1     112.164 128.381 136.368  0.00  0.00    +0.000 OA
ATOM     22  C   UNL     1     112.725 128.504 135.777  0.00  0.00    +0.000 C 
ENDBRANCH  12  21
BRANCH   4  23
ATOM     23  O   UNL     1     112.490 126.488 138.567  0.00  0.00    +0.000 OA
BRANCH  23  32
ATOM     24  O   UNL     1     113.449 125.734 137.823  0.00  0.00    +0.000 OA
ATOM     25  O   UNL     1     111.711 124.056 137.284  0.00  0.00    +0.000 OA
ATOM     26  O   UNL     1     113.248 123.862 136.720  0.00  0.00    +0.000 OA
ATOM     27  O   UNL     1     111.331 125.370 138.208  0.00  0.00    +0.000 OA
ATOM     28  C   UNL     1     112.290 124.615 137.464  0.00  0.00    +0.000 C 
ATOM     29  C   UNL     1     113.059 124.518 137.182  0.00  0.00    +0.000 C 
ATOM     30  C   UNL     1     112.100 125.273 137.926  0.00  0.00    +0.000 C 
ATOM     31  C   UNL     1     113.639 125.078 137.362  0.00  0.00    +0.000 C 
ATOM     32  C   UNL     1     112.680 125.832 138.106  0.00  0.00    +0.000 C 
BRANCH  31  34
ATOM     33  O   UNL     1     115.049 125.074 137.590  0.00  0.00    +0.000 OA
ATOM     34  C   UNL     1     114.407 124.980 137.080  0.00  0.00    +0.000 C 
ENDBRANCH  31  34
ENDBRANCH  23  32
ENDBRANCH   4  23
TORSDOF 5
ENDMDL
MODEL 4
REMARK VINA RESULT:      -8.9      8.712     10.766
REMARK  Name = 21721954
REMARK  5 active torsions:
REMARK  status: ('A' for Active; 'I' for Inactive)
REMARK    1  A    between atoms: O_2  and  C_17
REMARK    2  A    between atoms: O_2  and  C_19
REMARK    3  A    between atoms: O_10  and  C_28
REMARK    4  A    between atoms: C_16  and  C_18
REMARK    5  A    between atoms: C_21  and  C_26
REMARK                            x       y       z     vdW  Elec       q    Type
REMARK                         _______ _______ _______ _____ _____    ______ ____
ROOT
ATOM      1  O   UNL     1     106.545 126.731 146.872  0.00  0.00    +0.000 OA
ATOM      2  O   UNL     1     106.879 124.789 145.933  0.00  0.00    +0.000 OA
ATOM      3  O   UNL     1     106.349 125.670 144.644  0.00  0.00    +0.000 OA
ATOM      4  C   UNL     1     105.939 127.267 144.804  0.00  0.00    +0.000 A 
ATOM      5  C   UNL     1     106.214 126.818 145.484  0.00  0.00    +0.000 A 
ATOM      6  C   UNL     1     106.745 125.937 146.774  0.00  0.00    +0.000 C 
ATOM      7  C   UNL     1     106.680 125.583 146.031  0.00  0.00    +0.000 C 
ATOM      8  C   UNL     1     106.279 127.172 146.226  0.00  0.00    +0.000 A 
ATOM      9  C   UNL     1     106.414 126.024 145.386  0.00  0.00    +0.000 C 
ATOM     10  C   UNL     1     105.730 128.094 144.900  0.00  0.00    +0.000 A 
ATOM     11  C   UNL     1     106.074 127.998 146.340  0.00  0.00    +0.000 A 
ATOM     12  C   UNL     1     105.798 128.463 145.673  0.00  0.00    +0.000 A 
ENDROOT
BRANCH   6  15
ATOM     13  O   UNL     1     106.190 124.303 149.053  0.00  0.00    +0.000 OA
ATOM     14  O   UNL     1     107.808 124.172 149.352  0.00  0.00    +0.000 OA
ATOM     15  C   UNL     1     107.010 125.495 147.419  0.00  0.00    +0.000 A 
ATOM     16  C   UNL     1     106.468 125.120 147.913  0.00  0.00    +0.000 A 
ATOM     17  C   UNL     1     107.819 125.430 147.568  0.00  0.00    +0.000 A 
ATOM     18  C   UNL     1     106.733 124.679 148.558  0.00  0.00    +0.000 A 
ATOM     19  C   UNL     1     108.084 124.989 148.213  0.00  0.00    +0.000 A 
ATOM     20  C   UNL     1     107.542 124.613 148.708  0.00  0.00    +0.000 A 
ENDBRANCH   6  15
BRANCH  12  21
ATOM     21  O   UNL     1     105.598 129.257 145.774  0.00  0.00    +0.000 OA
ATOM     22  C   UNL     1     104.847 129.464 146.043  0.00  0.00    +0.000 C 
ENDBRANCH  12  21
BRANCH   4  23
ATOM     23  O   UNL     1     105.877 126.905 144.065  0.00  0.00    +0.000 OA
BRANCH  23  32
ATOM     24  O   UNL     1     106.940 127.519 143.334  0.00  0.00    +0.000 OA
ATOM     25  O   UNL     1     105.377 128.018 141.481  0.00  0.00    +0.000 OA
ATOM     26  O   UNL     1     106.960 128.466 141.368  0.00  0.00    +0.000 OA
ATOM     27  O   UNL     1     104.835 127.238 142.830  0.00  0.00    +0.000 OA
ATOM     28  C   UNL     1     105.898 127.852 142.099  0.00  0.00    +0.000 C 
ATOM     29  C   UNL     1     106.690 128.075 142.042  0.00  0.00    +0.000 C 
ATOM     30  C   UNL     1     105.627 127.461 142.774  0.00  0.00    +0.000 C 
ATOM     31  C   UNL     1     107.211 127.909 142.660  0.00  0.00    +0.000 C 
ATOM     32  C   UNL     1     106.148 127.295 143.391  0.00  0.00    +0.000 C 
BRANCH  31  34
ATOM     33  O   UNL     1     108.596 127.622 142.862  0.00  0.00    +0.000 OA
ATOM     34  C   UNL     1     108.002 128.133 142.603  0.00  0.00    +0.000 C 
ENDBRANCH  31  34
ENDBRANCH  23  32
ENDBRANCH   4  23
TORSDOF 5
ENDMDL
MODEL 5
REMARK VINA RESULT:      -8.7      2.899      4.127
REMARK  Name = 21721954
REMARK  5 active torsions:
REMARK  status: ('A' for Active; 'I' for Inactive)
REMARK    1  A    between atoms: O_2  and  C_17
REMARK    2  A    between atoms: O_2  and  C_19
REMARK    3  A    between atoms: O_10  and  C_28
REMARK    4  A    between atoms: C_16  and  C_18
REMARK    5  A    between atoms: C_21  and  C_26
REMARK                            x       y       z     vdW  Elec       q    Type
REMARK                         _______ _______ _______ _____ _____    ______ ____
ROOT
ATOM      1  O   UNL     1     113.438 126.630 139.031  0.00  0.00    +0.000 OA
ATOM      2  O   UNL     1     112.118 125.291 137.923  0.00  0.00    +0.000 OA
ATOM      3  O   UNL     1     111.157 125.685 139.204  0.00  0.00    +0.000 OA
ATOM      4  C   UNL     1     111.686 126.710 140.393  0.00  0.00    +0.000 A 
ATOM      5  C   UNL     1     112.197 126.512 139.730  0.00  0.00    +0.000 A 
ATOM      6  C   UNL     1     113.158 126.119 138.449  0.00  0.00    +0.000 C 
ATOM      7  C   UNL     1     112.398 125.803 138.505  0.00  0.00    +0.000 C 
ATOM      8  C   UNL     1     112.957 126.828 139.673  0.00  0.00    +0.000 A 
ATOM      9  C   UNL     1     111.917 126.000 139.147  0.00  0.00    +0.000 C 
ATOM     10  C   UNL     1     111.972 127.243 141.003  0.00  0.00    +0.000 A 
ATOM     11  C   UNL     1     113.259 127.362 140.274  0.00  0.00    +0.000 A 
ATOM     12  C   UNL     1     112.763 127.571 140.943  0.00  0.00    +0.000 A 
ENDROOT
BRANCH   6  15
ATOM     13  O   UNL     1     115.126 124.421 137.259  0.00  0.00    +0.000 OA
ATOM     14  O   UNL     1     115.080 125.331 135.883  0.00  0.00    +0.000 OA
ATOM     15  C   UNL     1     113.639 125.921 137.807  0.00  0.00    +0.000 A 
ATOM     16  C   UNL     1     114.142 125.270 137.853  0.00  0.00    +0.000 A 
ATOM     17  C   UNL     1     113.616 126.377 137.120  0.00  0.00    +0.000 A 
ATOM     18  C   UNL     1     114.622 125.073 137.212  0.00  0.00    +0.000 A 
ATOM     19  C   UNL     1     114.096 126.180 136.479  0.00  0.00    +0.000 A 
ATOM     20  C   UNL     1     114.600 125.528 136.524  0.00  0.00    +0.000 A 
ENDBRANCH   6  15
BRANCH  12  21
ATOM     21  O   UNL     1     113.046 128.084 141.525  0.00  0.00    +0.000 OA
ATOM     22  C   UNL     1     113.086 128.893 141.378  0.00  0.00    +0.000 C 
ENDBRANCH  12  21
BRANCH   4  23
ATOM     23  O   UNL     1     110.927 126.390 140.442  0.00  0.00    +0.000 OA
BRANCH  23  32
ATOM     24  O   UNL     1     110.133 127.546 140.167  0.00  0.00    +0.000 OA
ATOM     25  O   UNL     1     108.666 126.993 142.082  0.00  0.00    +0.000 OA
ATOM     26  O   UNL     1     108.362 128.333 141.169  0.00  0.00    +0.000 OA
ATOM     27  O   UNL     1     109.949 126.021 141.718  0.00  0.00    +0.000 OA
ATOM     28  C   UNL     1     109.155 127.178 141.443  0.00  0.00    +0.000 C 
ATOM     29  C   UNL     1     109.003 127.847 140.987  0.00  0.00    +0.000 C 
ATOM     30  C   UNL     1     109.797 126.691 141.261  0.00  0.00    +0.000 C 
ATOM     31  C   UNL     1     109.492 128.032 140.348  0.00  0.00    +0.000 C 
ATOM     32  C   UNL     1     110.286 126.876 140.623  0.00  0.00    +0.000 C 
BRANCH  31  34
ATOM     33  O   UNL     1     109.354 128.652 139.069  0.00  0.00    +0.000 OA
ATOM     34  C   UNL     1     109.340 128.701 139.892  0.00  0.00    +0.000 C 
ENDBRANCH  31  34
ENDBRANCH  23  32
ENDBRANCH   4  23
TORSDOF 5
ENDMDL
MODEL 6
REMARK VINA RESULT:      -8.7      1.858      5.327
REMARK  Name = 21721954
REMARK  5 active torsions:
REMARK  status: ('A' for Active; 'I' for Inactive)
REMARK    1  A    between atoms: O_2  and  C_17
REMARK    2  A    between atoms: O_2  and  C_19
REMARK    3  A    between atoms: O_10  and  C_28
REMARK    4  A    between atoms: C_16  and  C_18
REMARK    5  A    between atoms: C_21  and  C_26
REMARK                            x       y       z     vdW  Elec       q    Type
REMARK                         _______ _______ _______ _____ _____    ______ ____
ROOT
ATOM      1  O   UNL     1     110.414 129.572 135.910  0.00  0.00    +0.000 OA
ATOM      2  O   UNL     1     108.449 128.702 135.528  0.00  0.00    +0.000 OA
ATOM      3  O   UNL     1     109.369 127.340 135.674  0.00  0.00    +0.000 OA
ATOM      4  C   UNL     1     110.995 127.430 135.978  0.00  0.00    +0.000 A 
ATOM      5  C   UNL     1     110.526 128.147 135.905  0.00  0.00    +0.000 A 
ATOM      6  C   UNL     1     109.606 129.508 135.759  0.00  0.00    +0.000 C 
ATOM      7  C   UNL     1     109.257 128.765 135.680  0.00  0.00    +0.000 C 
ATOM      8  C   UNL     1     110.875 128.891 135.983  0.00  0.00    +0.000 A 
ATOM      9  C   UNL     1     109.718 128.084 135.753  0.00  0.00    +0.000 C 
ATOM     10  C   UNL     1     111.837 127.489 136.136  0.00  0.00    +0.000 A 
ATOM     11  C   UNL     1     111.716 128.969 136.141  0.00  0.00    +0.000 A 
ATOM     12  C   UNL     1     112.200 128.264 136.218  0.00  0.00    +0.000 A 
ENDROOT
BRANCH   6  15
ATOM     13  O   UNL     1     107.827 131.429 136.905  0.00  0.00    +0.000 OA
ATOM     14  O   UNL     1     107.764 132.231 135.464  0.00  0.00    +0.000 OA
ATOM     15  C   UNL     1     109.145 130.190 135.686  0.00  0.00    +0.000 A 
ATOM     16  C   UNL     1     108.717 130.469 136.332  0.00  0.00    +0.000 A 
ATOM     17  C   UNL     1     109.114 130.590 134.965  0.00  0.00    +0.000 A 
ATOM     18  C   UNL     1     108.256 131.150 136.258  0.00  0.00    +0.000 A 
ATOM     19  C   UNL     1     108.654 131.270 134.892  0.00  0.00    +0.000 A 
ATOM     20  C   UNL     1     108.225 131.551 135.538  0.00  0.00    +0.000 A 
ENDBRANCH   6  15
BRANCH  12  21
ATOM     21  O   UNL     1     113.008 128.330 136.370  0.00  0.00    +0.000 OA
ATOM     22  C   UNL     1     113.537 128.448 135.749  0.00  0.00    +0.000 C 
ENDBRANCH  12  21
BRANCH   4  23
ATOM     23  O   UNL     1     110.638 126.691 135.898  0.00  0.00    +0.000 OA
BRANCH  23  32
ATOM     24  O   UNL     1     110.775 126.168 137.221  0.00  0.00    +0.000 OA
ATOM     25  O   UNL     1     111.624 124.037 136.292  0.00  0.00    +0.000 OA
ATOM     26  O   UNL     1     111.478 124.225 137.924  0.00  0.00    +0.000 OA
ATOM     27  O   UNL     1     111.204 125.270 135.279  0.00  0.00    +0.000 OA
ATOM     28  C   UNL     1     111.341 124.747 136.602  0.00  0.00    +0.000 C 
ATOM     29  C   UNL     1     111.268 124.842 137.418  0.00  0.00    +0.000 C 
ATOM     30  C   UNL     1     111.131 125.364 136.095  0.00  0.00    +0.000 C 
ATOM     31  C   UNL     1     110.985 125.552 137.727  0.00  0.00    +0.000 C 
ATOM     32  C   UNL     1     110.848 126.075 136.404  0.00  0.00    +0.000 C 
BRANCH  31  34
ATOM     33  O   UNL     1     110.230 125.986 138.861  0.00  0.00    +0.000 OA
ATOM     34  C   UNL     1     110.912 125.646 138.543  0.00  0.00    +0.000 C 
ENDBRANCH  31  34
ENDBRANCH  23  32
ENDBRANCH   4  23
TORSDOF 5
ENDMDL
MODEL 7
REMARK VINA RESULT:      -8.7      1.748      2.104
REMARK  Name = 21721954
REMARK  5 active torsions:
REMARK  status: ('A' for Active; 'I' for Inactive)
REMARK    1  A    between atoms: O_2  and  C_17
REMARK    2  A    between atoms: O_2  and  C_19
REMARK    3  A    between atoms: O_10  and  C_28
REMARK    4  A    between atoms: C_16  and  C_18
REMARK    5  A    between atoms: C_21  and  C_26
REMARK                            x       y       z     vdW  Elec       q    Type
REMARK                         _______ _______ _______ _____ _____    ______ ____
ROOT
ATOM      1  O   UNL     1     111.491 127.277 136.286  0.00  0.00    +0.000 OA
ATOM      2  O   UNL     1     109.545 126.289 136.257  0.00  0.00    +0.000 OA
ATOM      3  O   UNL     1     109.105 127.851 135.958  0.00  0.00    +0.000 OA
ATOM      4  C   UNL     1     110.234 129.060 135.870  0.00  0.00    +0.000 A 
ATOM      5  C   UNL     1     110.476 128.249 136.027  0.00  0.00    +0.000 A 
ATOM      6  C   UNL     1     110.915 126.688 136.326  0.00  0.00    +0.000 C 
ATOM      7  C   UNL     1     110.120 126.879 136.217  0.00  0.00    +0.000 C 
ATOM      8  C   UNL     1     111.271 128.059 136.136  0.00  0.00    +0.000 A 
ATOM      9  C   UNL     1     109.901 127.660 136.067  0.00  0.00    +0.000 C 
ATOM     10  C   UNL     1     110.829 129.678 135.827  0.00  0.00    +0.000 A 
ATOM     11  C   UNL     1     111.879 128.664 136.097  0.00  0.00    +0.000 A 
ATOM     12  C   UNL     1     111.657 129.479 135.941  0.00  0.00    +0.000 A 
ENDROOT
BRANCH   6  15
ATOM     13  O   UNL     1     111.421 124.569 138.176  0.00  0.00    +0.000 OA
ATOM     14  O   UNL     1     111.793 123.563 136.922  0.00  0.00    +0.000 OA
ATOM     15  C   UNL     1     111.135 125.906 136.476  0.00  0.00    +0.000 A 
ATOM     16  C   UNL     1     111.168 125.628 137.251  0.00  0.00    +0.000 A 
ATOM     17  C   UNL     1     111.320 125.404 135.849  0.00  0.00    +0.000 A 
ATOM     18  C   UNL     1     111.388 124.847 137.400  0.00  0.00    +0.000 A 
ATOM     19  C   UNL     1     111.540 124.623 135.998  0.00  0.00    +0.000 A 
ATOM     20  C   UNL     1     111.574 124.344 136.773  0.00  0.00    +0.000 A 
ENDBRANCH   6  15
BRANCH  12  21
ATOM     21  O   UNL     1     112.235 130.067 135.902  0.00  0.00    +0.000 OA
ATOM     22  C   UNL     1     112.601 130.333 136.590  0.00  0.00    +0.000 C 
ENDBRANCH  12  21
BRANCH   4  23
ATOM     23  O   UNL     1     109.437 129.241 135.762  0.00  0.00    +0.000 OA
BRANCH  23  32
ATOM     24  O   UNL     1     109.171 129.989 136.950  0.00  0.00    +0.000 OA
ATOM     25  O   UNL     1     108.011 131.714 135.606  0.00  0.00    +0.000 OA
ATOM     26  O   UNL     1     108.132 131.886 137.242  0.00  0.00    +0.000 OA
ATOM     27  O   UNL     1     108.664 130.391 134.866  0.00  0.00    +0.000 OA
ATOM     28  C   UNL     1     108.398 131.139 136.054  0.00  0.00    +0.000 C 
ATOM     29  C   UNL     1     108.458 131.225 136.872  0.00  0.00    +0.000 C 
ATOM     30  C   UNL     1     108.724 130.477 135.684  0.00  0.00    +0.000 C 
ATOM     31  C   UNL     1     108.845 130.650 137.320  0.00  0.00    +0.000 C 
ATOM     32  C   UNL     1     109.111 129.902 136.132  0.00  0.00    +0.000 C 
BRANCH  31  34
ATOM     33  O   UNL     1     108.800 130.083 138.632  0.00  0.00    +0.000 OA
ATOM     34  C   UNL     1     108.905 130.736 138.138  0.00  0.00    +0.000 C 
ENDBRANCH  31  34
ENDBRANCH  23  32
ENDBRANCH   4  23
TORSDOF 5
ENDMDL
MODEL 8
REMARK VINA RESULT:      -8.7      2.315      5.904
REMARK  Name = 21721954
REMARK  5 active torsions:
REMARK  status: ('A' for Active; 'I' for Inactive)
REMARK    1  A    between atoms: O_2  and  C_17
REMARK    2  A    between atoms: O_2  and  C_19
REMARK    3  A    between atoms: O_10  and  C_28
REMARK    4  A    between atoms: C_16  and  C_18
REMARK    5  A    between atoms: C_21  and  C_26
REMARK                            x       y       z     vdW  Elec       q    Type
REMARK                         _______ _______ _______ _____ _____    ______ ____
ROOT
ATOM      1  O   UNL     1     109.950 130.542 135.653  0.00  0.00    +0.000 OA
ATOM      2  O   UNL     1     109.723 132.458 136.673  0.00  0.00    +0.000 OA
ATOM      3  O   UNL     1     111.164 131.946 137.290  0.00  0.00    +0.000 OA
ATOM      4  C   UNL     1     111.828 130.498 136.836  0.00  0.00    +0.000 A 
ATOM      5  C   UNL     1     111.076 130.754 136.507  0.00  0.00    +0.000 A 
ATOM      6  C   UNL     1     109.634 131.265 135.890  0.00  0.00    +0.000 C 
ATOM      7  C   UNL     1     110.039 131.734 136.436  0.00  0.00    +0.000 C 
ATOM      8  C   UNL     1     110.672 130.285 135.961  0.00  0.00    +0.000 A 
ATOM      9  C   UNL     1     110.760 131.477 136.744  0.00  0.00    +0.000 C 
ATOM     10  C   UNL     1     112.163 129.745 136.593  0.00  0.00    +0.000 A 
ATOM     11  C   UNL     1     110.991 129.530 135.707  0.00  0.00    +0.000 A 
ATOM     12  C   UNL     1     111.742 129.258 136.024  0.00  0.00    +0.000 A 
ENDROOT
BRANCH   6  15
ATOM     13  O   UNL     1     106.778 131.300 135.974  0.00  0.00    +0.000 OA
ATOM     14  O   UNL     1     106.751 132.292 134.655  0.00  0.00    +0.000 OA
ATOM     15  C   UNL     1     108.913 131.522 135.582  0.00  0.00    +0.000 A 
ATOM     16  C   UNL     1     108.206 131.283 135.932  0.00  0.00    +0.000 A 
ATOM     17  C   UNL     1     108.900 132.017 134.922  0.00  0.00    +0.000 A 
ATOM     18  C   UNL     1     107.486 131.540 135.623  0.00  0.00    +0.000 A 
ATOM     19  C   UNL     1     108.180 132.274 134.614  0.00  0.00    +0.000 A 
ATOM     20  C   UNL     1     107.472 132.035 134.964  0.00  0.00    +0.000 A 
ENDBRANCH   6  15
BRANCH  12  21
ATOM     21  O   UNL     1     112.055 128.533 135.785  0.00  0.00    +0.000 OA
ATOM     22  C   UNL     1     111.695 127.830 136.018  0.00  0.00    +0.000 C 
ENDBRANCH  12  21
BRANCH   4  23
ATOM     23  O   UNL     1     112.226 130.973 137.381  0.00  0.00    +0.000 OA
BRANCH  23  32
ATOM     24  O   UNL     1     112.059 130.221 138.585  0.00  0.00    +0.000 OA
ATOM     25  O   UNL     1     114.472 130.467 139.074  0.00  0.00    +0.000 OA
ATOM     26  O   UNL     1     113.500 129.634 140.114  0.00  0.00    +0.000 OA
ATOM     27  O   UNL     1     113.835 131.137 137.708  0.00  0.00    +0.000 OA
ATOM     28  C   UNL     1     113.668 130.385 138.911  0.00  0.00    +0.000 C 
ATOM     29  C   UNL     1     113.181 129.969 139.431  0.00  0.00    +0.000 C 
ATOM     30  C   UNL     1     113.349 130.720 138.227  0.00  0.00    +0.000 C 
ATOM     31  C   UNL     1     112.377 129.886 139.268  0.00  0.00    +0.000 C 
ATOM     32  C   UNL     1     112.544 130.638 138.064  0.00  0.00    +0.000 C 
BRANCH  31  34
ATOM     33  O   UNL     1     111.121 129.729 139.932  0.00  0.00    +0.000 OA
ATOM     34  C   UNL     1     111.891 129.470 139.788  0.00  0.00    +0.000 C 
ENDBRANCH  31  34
ENDBRANCH  23  32
ENDBRANCH   4  23
TORSDOF 5
ENDMDL
MODEL 9
REMARK VINA RESULT:      -8.7      1.663      3.162
REMARK  Name = 21721954
REMARK  5 active torsions:
REMARK  status: ('A' for Active; 'I' for Inactive)
REMARK    1  A    between atoms: O_2  and  C_17
REMARK    2  A    between atoms: O_2  and  C_19
REMARK    3  A    between atoms: O_10  and  C_28
REMARK    4  A    between atoms: C_16  and  C_18
REMARK    5  A    between atoms: C_21  and  C_26
REMARK                            x       y       z     vdW  Elec       q    Type
REMARK                         _______ _______ _______ _____ _____    ______ ____
ROOT
ATOM      1  O   UNL     1     111.786 126.427 136.005  0.00  0.00    +0.000 OA
ATOM      2  O   UNL     1     113.599 126.030 137.154  0.00  0.00    +0.000 OA
ATOM      3  O   UNL     1     113.838 127.606 136.731  0.00  0.00    +0.000 OA
ATOM      4  C   UNL     1     112.726 128.430 135.822  0.00  0.00    +0.000 A 
ATOM      5  C   UNL     1     112.590 127.608 136.036  0.00  0.00    +0.000 A 
ATOM      6  C   UNL     1     112.351 126.032 136.459  0.00  0.00    +0.000 C 
ATOM      7  C   UNL     1     113.035 126.425 136.701  0.00  0.00    +0.000 C 
ATOM      8  C   UNL     1     111.906 127.216 135.793  0.00  0.00    +0.000 A 
ATOM      9  C   UNL     1     113.154 127.214 136.489  0.00  0.00    +0.000 C 
ATOM     10  C   UNL     1     112.142 128.847 135.349  0.00  0.00    +0.000 A 
ATOM     11  C   UNL     1     111.311 127.617 135.321  0.00  0.00    +0.000 A 
ATOM     12  C   UNL     1     111.430 128.438 135.097  0.00  0.00    +0.000 A 
ENDROOT
BRANCH   6  15
ATOM     13  O   UNL     1     111.202 124.084 138.206  0.00  0.00    +0.000 OA
ATOM     14  O   UNL     1     111.875 122.878 137.304  0.00  0.00    +0.000 OA
ATOM     15  C   UNL     1     112.231 125.243 136.671  0.00  0.00    +0.000 A 
ATOM     16  C   UNL     1     111.776 125.058 137.332  0.00  0.00    +0.000 A 
ATOM     17  C   UNL     1     112.568 124.640 136.219  0.00  0.00    +0.000 A 
ATOM     18  C   UNL     1     111.658 124.269 137.544  0.00  0.00    +0.000 A 
ATOM     19  C   UNL     1     112.450 123.852 136.431  0.00  0.00    +0.000 A 
ATOM     20  C   UNL     1     111.994 123.666 137.093  0.00  0.00    +0.000 A 
ENDBRANCH   6  15
BRANCH  12  21
ATOM     21  O   UNL     1     110.863 128.830 134.644  0.00  0.00    +0.000 OA
ATOM     22  C   UNL     1     110.140 129.041 134.977  0.00  0.00    +0.000 C 
ENDBRANCH  12  21
BRANCH   4  23
ATOM     23  O   UNL     1     113.413 128.815 136.068  0.00  0.00    +0.000 OA
BRANCH  23  32
ATOM     24  O   UNL     1     112.867 129.695 137.053  0.00  0.00    +0.000 OA
ATOM     25  O   UNL     1     114.221 131.555 136.141  0.00  0.00    +0.000 OA
ATOM     26  O   UNL     1     113.225 131.814 137.430  0.00  0.00    +0.000 OA
ATOM     27  O   UNL     1     114.316 130.055 135.460  0.00  0.00    +0.000 OA
ATOM     28  C   UNL     1     113.770 130.935 136.445  0.00  0.00    +0.000 C 
ATOM     29  C   UNL     1     113.271 131.064 137.090  0.00  0.00    +0.000 C 
ATOM     30  C   UNL     1     113.817 130.184 136.105  0.00  0.00    +0.000 C 
ATOM     31  C   UNL     1     112.820 130.444 137.394  0.00  0.00    +0.000 C 
ATOM     32  C   UNL     1     113.366 129.564 136.409  0.00  0.00    +0.000 C 
BRANCH  31  34
ATOM     33  O   UNL     1     112.282 130.020 138.647  0.00  0.00    +0.000 OA
ATOM     34  C   UNL     1     112.322 130.574 138.037  0.00  0.00    +0.000 C 
ENDBRANCH  31  34
ENDBRANCH  23  32
ENDBRANCH   4  23
TORSDOF 5
ENDMDL
MODEL 10
REMARK VINA RESULT:      -8.6      1.528      5.535
REMARK  Name = 21721954
REMARK  5 active torsions:
REMARK  status: ('A' for Active; 'I' for Inactive)
REMARK    1  A    between atoms: O_2  and  C_17
REMARK    2  A    between atoms: O_2  and  C_19
REMARK    3  A    between atoms: O_10  and  C_28
REMARK    4  A    between atoms: C_16  and  C_18
REMARK    5  A    between atoms: C_21  and  C_26
REMARK                            x       y       z     vdW  Elec       q    Type
REMARK                         _______ _______ _______ _____ _____    ______ ____
ROOT
ATOM      1  O   UNL     1     110.018 131.086 136.363  0.00  0.00    +0.000 OA
ATOM      2  O   UNL     1     109.457 129.910 134.612  0.00  0.00    +0.000 OA
ATOM      3  O   UNL     1     110.835 129.134 135.080  0.00  0.00    +0.000 OA
ATOM      4  C   UNL     1     111.697 129.634 136.403  0.00  0.00    +0.000 A 
ATOM      5  C   UNL     1     110.980 130.047 136.169  0.00  0.00    +0.000 A 
ATOM      6  C   UNL     1     109.602 130.823 135.702  0.00  0.00    +0.000 C 
ATOM      7  C   UNL     1     109.874 130.173 135.274  0.00  0.00    +0.000 C 
ATOM      8  C   UNL     1     110.708 130.698 136.598  0.00  0.00    +0.000 A 
ATOM      9  C   UNL     1     110.564 129.784 135.508  0.00  0.00    +0.000 C 
ATOM     10  C   UNL     1     112.135 129.902 137.091  0.00  0.00    +0.000 A 
ATOM     11  C   UNL     1     111.134 130.980 137.288  0.00  0.00    +0.000 A 
ATOM     12  C   UNL     1     111.852 130.580 137.537  0.00  0.00    +0.000 A 
ENDROOT
BRANCH   6  15
ATOM     13  O   UNL     1     106.798 131.291 136.004  0.00  0.00    +0.000 OA
ATOM     14  O   UNL     1     106.846 132.377 134.763  0.00  0.00    +0.000 OA
ATOM     15  C   UNL     1     108.912 131.212 135.467  0.00  0.00    +0.000 A 
ATOM     16  C   UNL     1     108.200 131.057 135.853  0.00  0.00    +0.000 A 
ATOM     17  C   UNL     1     108.936 131.755 134.847  0.00  0.00    +0.000 A 
ATOM     18  C   UNL     1     107.511 131.445 135.618  0.00  0.00    +0.000 A 
ATOM     19  C   UNL     1     108.247 132.143 134.612  0.00  0.00    +0.000 A 
ATOM     20  C   UNL     1     107.534 131.989 134.997  0.00  0.00    +0.000 A 
ENDBRANCH   6  15
BRANCH  12  21
ATOM     21  O   UNL     1     112.267 130.845 138.199  0.00  0.00    +0.000 OA
ATOM     22  C   UNL     1     111.989 130.673 138.956  0.00  0.00    +0.000 C 
ENDBRANCH  12  21
BRANCH   4  23
ATOM     23  O   UNL     1     111.962 128.984 135.969  0.00  0.00    +0.000 OA
BRANCH  23  32
ATOM     24  O   UNL     1     111.707 127.909 136.875  0.00  0.00    +0.000 OA
ATOM     25  O   UNL     1     113.997 127.049 136.501  0.00  0.00    +0.000 OA
ATOM     26  O   UNL     1     112.978 126.261 137.531  0.00  0.00    +0.000 OA
ATOM     27  O   UNL     1     113.489 128.411 135.720  0.00  0.00    +0.000 OA
ATOM     28  C   UNL     1     113.234 127.336 136.626  0.00  0.00    +0.000 C 
ATOM     29  C   UNL     1     112.724 126.942 137.141  0.00  0.00    +0.000 C 
ATOM     30  C   UNL     1     112.979 128.017 136.235  0.00  0.00    +0.000 C 
ATOM     31  C   UNL     1     111.960 127.228 137.265  0.00  0.00    +0.000 C 
ATOM     32  C   UNL     1     112.216 128.304 136.359  0.00  0.00    +0.000 C 
BRANCH  31  34
ATOM     33  O   UNL     1     110.648 126.772 137.601  0.00  0.00    +0.000 OA
ATOM     34  C   UNL     1     111.451 126.834 137.780  0.00  0.00    +0.000 C 
ENDBRANCH  31  34
ENDBRANCH  23  32
ENDBRANCH   4  23
TORSDOF 5
ENDMDL
