MODEL 1
REMARK VINA RESULT:     -10.2      0.000      0.000
REMARK  Name = 102515002
REMARK  9 active torsions:
REMARK  status: ('A' for Active; 'I' for Inactive)
REMARK    1  A    between atoms: O_1  and  C_21
REMARK    2  A    between atoms: O_1  and  C_26
REMARK    3  A    between atoms: O_6  and  C_33
REMARK    4  A    between atoms: O_6  and  C_34
REMARK    5  A    between atoms: C_22  and  C_28
REMARK    6  A    between atoms: C_25  and  C_32
REMARK    7  A    between atoms: C_31  and  C_40
REMARK    8  A    between atoms: C_39  and  C_44
REMARK    9  A    between atoms: C_47  and  C_48
REMARK                            x       y       z     vdW  Elec       q    Type
REMARK                         _______ _______ _______ _____ _____    ______ ____
ROOT
ATOM      1  O   UNL     1     110.126 128.549 139.273  0.00  0.00    +0.000 OA
ATOM      2  O   UNL     1     111.387 131.047 138.531  0.00  0.00    +0.000 OA
ATOM      3  O   UNL     1     109.412 129.467 138.419  0.00  0.00    +0.000 OA
ATOM      4  C   UNL     1     111.437 128.857 139.753  0.00  0.00    +0.000 A 
ATOM      5  C   UNL     1     112.082 129.370 139.791  0.00  0.00    +0.000 A 
ATOM      6  C   UNL     1     110.771 129.062 139.311  0.00  0.00    +0.000 A 
ATOM      7  C   UNL     1     110.751 129.782 138.908  0.00  0.00    +0.000 A 
ATOM      8  C   UNL     1     112.061 130.088 139.388  0.00  0.00    +0.000 A 
ATOM      9  C   UNL     1     111.396 130.295 138.946  0.00  0.00    +0.000 A 
ATOM     10  C   UNL     1     110.052 129.986 138.451  0.00  0.00    +0.000 A 
ATOM     11  C   UNL     1     110.024 130.734 138.029  0.00  0.00    +0.000 A 
ATOM     12  C   UNL     1     110.696 131.268 138.069  0.00  0.00    +0.000 A 
ENDROOT
BRANCH   4  17
ATOM     13  O   UNL     1     111.098 128.069 140.896  0.00  0.00    +0.000 OA
ATOM     14  O   UNL     1     112.237 126.116 139.887  0.00  0.00    +0.000 OA
ATOM     15  O   UNL     1     111.519 125.979 141.367  0.00  0.00    +0.000 OA
ATOM     16  C   UNL     1     111.837 127.486 139.820  0.00  0.00    +0.000 C 
ATOM     17  C   UNL     1     111.458 128.137 140.156  0.00  0.00    +0.000 C 
ATOM     18  C   UNL     1     111.857 126.767 140.224  0.00  0.00    +0.000 C 
ATOM     19  C   UNL     1     111.498 126.698 140.963  0.00  0.00    +0.000 C 
ATOM     20  C   UNL     1     111.119 127.349 141.300  0.00  0.00    +0.000 C 
BRANCH  20  22
ATOM     21  O   UNL     1     110.707 127.940 142.534  0.00  0.00    +0.000 OA
ATOM     22  C   UNL     1     110.760 127.281 142.039  0.00  0.00    +0.000 C 
ENDBRANCH  20  22
BRANCH  16  23
ATOM     23  O   UNL     1     112.196 127.555 139.080  0.00  0.00    +0.000 OA
BRANCH  23  28
ATOM     24  O   UNL     1     111.311 126.662 138.399  0.00  0.00    +0.000 OA
ATOM     25  O   UNL     1     113.446 127.035 138.137  0.00  0.00    +0.000 OA
ATOM     26  O   UNL     1     113.187 125.883 136.985  0.00  0.00    +0.000 OA
ATOM     27  O   UNL     1     111.677 125.251 136.776  0.00  0.00    +0.000 OA
ATOM     28  C   UNL     1     112.066 126.979 138.504  0.00  0.00    +0.000 C 
ATOM     29  C   UNL     1     112.691 126.719 138.032  0.00  0.00    +0.000 C 
ATOM     30  C   UNL     1     112.561 126.143 137.456  0.00  0.00    +0.000 C 
ATOM     31  C   UNL     1     111.807 125.827 137.352  0.00  0.00    +0.000 C 
ATOM     32  C   UNL     1     111.181 126.086 137.823  0.00  0.00    +0.000 C 
BRANCH  32  34
ATOM     33  O   UNL     1     109.816 126.247 137.434  0.00  0.00    +0.000 OA
ATOM     34  C   UNL     1     110.427 125.771 137.719  0.00  0.00    +0.000 C 
ENDBRANCH  32  34
ENDBRANCH  23  28
ENDBRANCH  16  23
ENDBRANCH   4  17
BRANCH  12  36
ATOM     35  O   UNL     1     110.625 134.147 136.458  0.00  0.00    +0.000 OA
ATOM     36  C   UNL     1     110.678 131.988 137.666  0.00  0.00    +0.000 A 
ATOM     37  C   UNL     1     111.100 132.077 136.963  0.00  0.00    +0.000 A 
ATOM     38  C   UNL     1     110.239 132.618 137.968  0.00  0.00    +0.000 A 
ATOM     39  C   UNL     1     111.082 132.797 136.560  0.00  0.00    +0.000 A 
ATOM     40  C   UNL     1     110.221 133.338 137.564  0.00  0.00    +0.000 A 
ATOM     41  C   UNL     1     110.643 133.427 136.861  0.00  0.00    +0.000 A 
ENDBRANCH  12  36
BRANCH   5  42
ATOM     42  O   UNL     1     112.748 129.163 140.233  0.00  0.00    +0.000 OA
BRANCH  42  47
ATOM     43  O   UNL     1     112.801 130.180 141.235  0.00  0.00    +0.000 OA
ATOM     44  O   UNL     1     114.327 129.452 139.854  0.00  0.00    +0.000 OA
ATOM     45  O   UNL     1     115.171 130.615 140.666  0.00  0.00    +0.000 OA
ATOM     46  O   UNL     1     114.435 131.487 141.858  0.00  0.00    +0.000 OA
ATOM     47  C   UNL     1     113.169 129.744 140.639  0.00  0.00    +0.000 C 
ATOM     48  C   UNL     1     113.959 129.889 140.450  0.00  0.00    +0.000 C 
ATOM     49  C   UNL     1     114.381 130.470 140.856  0.00  0.00    +0.000 C 
ATOM     50  C   UNL     1     114.013 130.906 141.452  0.00  0.00    +0.000 C 
ATOM     51  C   UNL     1     113.223 130.762 141.642  0.00  0.00    +0.000 C 
BRANCH  51  53
ATOM     52  O   UNL     1     112.321 130.831 142.747  0.00  0.00    +0.000 OA
ATOM     53  C   UNL     1     112.855 131.197 142.237  0.00  0.00    +0.000 C 
ENDBRANCH  51  53
ENDBRANCH  42  47
ENDBRANCH   5  42
TORSDOF 9
ENDMDL
MODEL 2
REMARK VINA RESULT:     -10.0      5.997      8.590
REMARK  Name = 102515002
REMARK  9 active torsions:
REMARK  status: ('A' for Active; 'I' for Inactive)
REMARK    1  A    between atoms: O_1  and  C_21
REMARK    2  A    between atoms: O_1  and  C_26
REMARK    3  A    between atoms: O_6  and  C_33
REMARK    4  A    between atoms: O_6  and  C_34
REMARK    5  A    between atoms: C_22  and  C_28
REMARK    6  A    between atoms: C_25  and  C_32
REMARK    7  A    between atoms: C_31  and  C_40
REMARK    8  A    between atoms: C_39  and  C_44
REMARK    9  A    between atoms: C_47  and  C_48
REMARK                            x       y       z     vdW  Elec       q    Type
REMARK                         _______ _______ _______ _____ _____    ______ ____
ROOT
ATOM      1  O   UNL     1     105.129 126.228 144.086  0.00  0.00    +0.000 OA
ATOM      2  O   UNL     1     106.962 126.399 146.319  0.00  0.00    +0.000 OA
ATOM      3  O   UNL     1     105.046 125.242 145.136  0.00  0.00    +0.000 OA
ATOM      4  C   UNL     1     106.096 127.279 144.135  0.00  0.00    +0.000 A 
ATOM      5  C   UNL     1     106.720 127.658 144.519  0.00  0.00    +0.000 A 
ATOM      6  C   UNL     1     105.753 126.608 144.470  0.00  0.00    +0.000 A 
ATOM      7  C   UNL     1     106.035 126.315 145.188  0.00  0.00    +0.000 A 
ATOM      8  C   UNL     1     107.002 127.366 145.236  0.00  0.00    +0.000 A 
ATOM      9  C   UNL     1     106.660 126.694 145.572  0.00  0.00    +0.000 A 
ATOM     10  C   UNL     1     105.670 125.615 145.526  0.00  0.00    +0.000 A 
ATOM     11  C   UNL     1     105.959 125.305 146.274  0.00  0.00    +0.000 A 
ATOM     12  C   UNL     1     106.609 125.700 146.674  0.00  0.00    +0.000 A 
ENDROOT
BRANCH   4  17
ATOM     13  O   UNL     1     105.150 128.061 143.404  0.00  0.00    +0.000 OA
ATOM     14  O   UNL     1     106.296 127.471 141.291  0.00  0.00    +0.000 OA
ATOM     15  O   UNL     1     104.968 128.449 141.263  0.00  0.00    +0.000 OA
ATOM     16  C   UNL     1     106.196 127.375 142.712  0.00  0.00    +0.000 C 
ATOM     17  C   UNL     1     105.814 127.572 143.417  0.00  0.00    +0.000 C 
ATOM     18  C   UNL     1     105.914 127.667 141.995  0.00  0.00    +0.000 C 
ATOM     19  C   UNL     1     105.250 128.157 141.981  0.00  0.00    +0.000 C 
ATOM     20  C   UNL     1     104.868 128.354 142.685  0.00  0.00    +0.000 C 
BRANCH  20  22
ATOM     21  O   UNL     1     104.101 129.414 143.259  0.00  0.00    +0.000 OA
ATOM     22  C   UNL     1     104.204 128.843 142.672  0.00  0.00    +0.000 C 
ENDBRANCH  20  22
BRANCH  16  23
ATOM     23  O   UNL     1     106.860 126.886 142.727  0.00  0.00    +0.000 OA
BRANCH  23  28
ATOM     24  O   UNL     1     106.239 125.807 142.024  0.00  0.00    +0.000 OA
ATOM     25  O   UNL     1     108.313 126.489 142.052  0.00  0.00    +0.000 OA
ATOM     26  O   UNL     1     108.418 125.213 141.011  0.00  0.00    +0.000 OA
ATOM     27  O   UNL     1     107.071 124.333 140.646  0.00  0.00    +0.000 OA
ATOM     28  C   UNL     1     106.913 126.247 142.207  0.00  0.00    +0.000 C 
ATOM     29  C   UNL     1     107.639 126.049 141.869  0.00  0.00    +0.000 C 
ATOM     30  C   UNL     1     107.691 125.411 141.349  0.00  0.00    +0.000 C 
ATOM     31  C   UNL     1     107.018 124.971 141.166  0.00  0.00    +0.000 C 
ATOM     32  C   UNL     1     106.292 125.169 141.504  0.00  0.00    +0.000 C 
BRANCH  32  34
ATOM     33  O   UNL     1     105.249 124.279 141.906  0.00  0.00    +0.000 OA
ATOM     34  C   UNL     1     105.618 124.729 141.322  0.00  0.00    +0.000 C 
ENDBRANCH  32  34
ENDBRANCH  23  28
ENDBRANCH  16  23
ENDBRANCH   4  17
BRANCH  12  36
ATOM     35  O   UNL     1     107.743 124.538 149.546  0.00  0.00    +0.000 OA
ATOM     36  C   UNL     1     106.893 125.409 147.392  0.00  0.00    +0.000 A 
ATOM     37  C   UNL     1     106.380 125.320 148.031  0.00  0.00    +0.000 A 
ATOM     38  C   UNL     1     107.689 125.208 147.470  0.00  0.00    +0.000 A 
ATOM     39  C   UNL     1     106.663 125.029 148.749  0.00  0.00    +0.000 A 
ATOM     40  C   UNL     1     107.973 124.918 148.189  0.00  0.00    +0.000 A 
ATOM     41  C   UNL     1     107.459 124.829 148.828  0.00  0.00    +0.000 A 
ENDBRANCH  12  36
BRANCH   5  42
ATOM     42  O   UNL     1     107.063 128.330 144.183  0.00  0.00    +0.000 OA
BRANCH  42  47
ATOM     43  O   UNL     1     106.781 129.313 145.183  0.00  0.00    +0.000 OA
ATOM     44  O   UNL     1     108.630 128.843 144.121  0.00  0.00    +0.000 OA
ATOM     45  O   UNL     1     109.132 130.082 145.088  0.00  0.00    +0.000 OA
ATOM     46  O   UNL     1     108.066 130.808 146.118  0.00  0.00    +0.000 OA
ATOM     47  C   UNL     1     107.314 128.950 144.667  0.00  0.00    +0.000 C 
ATOM     48  C   UNL     1     108.097 129.207 144.636  0.00  0.00    +0.000 C 
ATOM     49  C   UNL     1     108.348 129.826 145.120  0.00  0.00    +0.000 C 
ATOM     50  C   UNL     1     107.816 130.189 145.634  0.00  0.00    +0.000 C 
ATOM     51  C   UNL     1     107.032 129.932 145.666  0.00  0.00    +0.000 C 
BRANCH  51  53
ATOM     52  O   UNL     1     105.721 130.431 145.942  0.00  0.00    +0.000 OA
ATOM     53  C   UNL     1     106.499 130.295 146.181  0.00  0.00    +0.000 C 
ENDBRANCH  51  53
ENDBRANCH  42  47
ENDBRANCH   5  42
TORSDOF 9
ENDMDL
MODEL 3
REMARK VINA RESULT:     -10.0      2.182      4.537
REMARK  Name = 102515002
REMARK  9 active torsions:
REMARK  status: ('A' for Active; 'I' for Inactive)
REMARK    1  A    between atoms: O_1  and  C_21
REMARK    2  A    between atoms: O_1  and  C_26
REMARK    3  A    between atoms: O_6  and  C_33
REMARK    4  A    between atoms: O_6  and  C_34
REMARK    5  A    between atoms: C_22  and  C_28
REMARK    6  A    between atoms: C_25  and  C_32
REMARK    7  A    between atoms: C_31  and  C_40
REMARK    8  A    between atoms: C_39  and  C_44
REMARK    9  A    between atoms: C_47  and  C_48
REMARK                            x       y       z     vdW  Elec       q    Type
REMARK                         _______ _______ _______ _____ _____    ______ ____
ROOT
ATOM      1  O   UNL     1     111.297 130.094 140.001  0.00  0.00    +0.000 OA
ATOM      2  O   UNL     1     112.200 130.210 137.253  0.00  0.00    +0.000 OA
ATOM      3  O   UNL     1     112.662 130.476 139.728  0.00  0.00    +0.000 OA
ATOM      4  C   UNL     1     110.394 129.774 138.940  0.00  0.00    +0.000 A 
ATOM      5  C   UNL     1     110.241 129.687 138.134  0.00  0.00    +0.000 A 
ATOM      6  C   UNL     1     111.144 130.006 139.195  0.00  0.00    +0.000 A 
ATOM      7  C   UNL     1     111.741 130.151 138.643  0.00  0.00    +0.000 A 
ATOM      8  C   UNL     1     110.837 129.831 137.583  0.00  0.00    +0.000 A 
ATOM      9  C   UNL     1     111.587 130.063 137.837  0.00  0.00    +0.000 A 
ATOM     10  C   UNL     1     112.517 130.391 138.921  0.00  0.00    +0.000 A 
ATOM     11  C   UNL     1     113.143 130.543 138.351  0.00  0.00    +0.000 A 
ATOM     12  C   UNL     1     112.983 130.452 137.512  0.00  0.00    +0.000 A 
ENDROOT
BRANCH   4  17
ATOM     13  O   UNL     1     109.368 130.259 139.808  0.00  0.00    +0.000 OA
ATOM     14  O   UNL     1     108.870 127.940 140.515  0.00  0.00    +0.000 OA
ATOM     15  O   UNL     1     108.009 129.198 141.147  0.00  0.00    +0.000 OA
ATOM     16  C   UNL     1     109.632 128.857 139.728  0.00  0.00    +0.000 C 
ATOM     17  C   UNL     1     109.798 129.630 139.492  0.00  0.00    +0.000 C 
ATOM     18  C   UNL     1     109.036 128.713 140.279  0.00  0.00    +0.000 C 
ATOM     19  C   UNL     1     108.605 129.342 140.596  0.00  0.00    +0.000 C 
ATOM     20  C   UNL     1     108.771 130.115 140.360  0.00  0.00    +0.000 C 
BRANCH  20  22
ATOM     21  O   UNL     1     107.935 131.258 140.173  0.00  0.00    +0.000 OA
ATOM     22  C   UNL     1     108.341 130.744 140.676  0.00  0.00    +0.000 C 
ENDBRANCH  20  22
BRANCH  16  23
ATOM     23  O   UNL     1     110.063 128.228 139.411  0.00  0.00    +0.000 OA
BRANCH  23  28
ATOM     24  O   UNL     1     110.703 127.855 140.634  0.00  0.00    +0.000 OA
ATOM     25  O   UNL     1     110.000 126.642 138.960  0.00  0.00    +0.000 OA
ATOM     26  O   UNL     1     110.609 125.476 139.956  0.00  0.00    +0.000 OA
ATOM     27  O   UNL     1     111.280 125.896 141.404  0.00  0.00    +0.000 OA
ATOM     28  C   UNL     1     110.367 127.645 139.910  0.00  0.00    +0.000 C 
ATOM     29  C   UNL     1     110.336 126.852 139.685  0.00  0.00    +0.000 C 
ATOM     30  C   UNL     1     110.641 126.269 140.183  0.00  0.00    +0.000 C 
ATOM     31  C   UNL     1     110.976 126.479 140.906  0.00  0.00    +0.000 C 
ATOM     32  C   UNL     1     111.007 127.272 141.132  0.00  0.00    +0.000 C 
BRANCH  32  34
ATOM     33  O   UNL     1     112.052 127.902 141.875  0.00  0.00    +0.000 OA
ATOM     34  C   UNL     1     111.342 127.482 141.856  0.00  0.00    +0.000 C 
ENDBRANCH  32  34
ENDBRANCH  23  28
ENDBRANCH  16  23
ENDBRANCH   4  17
BRANCH  12  36
ATOM     35  O   UNL     1     115.361 131.026 135.298  0.00  0.00    +0.000 OA
ATOM     36  C   UNL     1     113.578 130.596 136.958  0.00  0.00    +0.000 A 
ATOM     37  C   UNL     1     114.006 129.966 136.642  0.00  0.00    +0.000 A 
ATOM     38  C   UNL     1     113.743 131.369 136.722  0.00  0.00    +0.000 A 
ATOM     39  C   UNL     1     114.601 130.110 136.088  0.00  0.00    +0.000 A 
ATOM     40  C   UNL     1     114.338 131.512 136.168  0.00  0.00    +0.000 A 
ATOM     41  C   UNL     1     114.767 130.882 135.851  0.00  0.00    +0.000 A 
ENDBRANCH  12  36
BRANCH   5  42
ATOM     42  O   UNL     1     109.491 129.455 137.881  0.00  0.00    +0.000 OA
BRANCH  42  47
ATOM     43  O   UNL     1     109.082 130.607 137.139  0.00  0.00    +0.000 OA
ATOM     44  O   UNL     1     109.006 128.483 136.639  0.00  0.00    +0.000 OA
ATOM     45  O   UNL     1     108.355 129.148 135.276  0.00  0.00    +0.000 OA
ATOM     46  O   UNL     1     108.189 130.785 135.155  0.00  0.00    +0.000 OA
ATOM     47  C   UNL     1     109.166 129.787 137.199  0.00  0.00    +0.000 C 
ATOM     48  C   UNL     1     108.923 129.302 136.578  0.00  0.00    +0.000 C 
ATOM     49  C   UNL     1     108.598 129.634 135.897  0.00  0.00    +0.000 C 
ATOM     50  C   UNL     1     108.515 130.452 135.837  0.00  0.00    +0.000 C 
ATOM     51  C   UNL     1     108.757 130.939 136.457  0.00  0.00    +0.000 C 
BRANCH  51  53
ATOM     52  O   UNL     1     108.475 132.202 137.063  0.00  0.00    +0.000 OA
ATOM     53  C   UNL     1     108.674 131.757 136.397  0.00  0.00    +0.000 C 
ENDBRANCH  51  53
ENDBRANCH  42  47
ENDBRANCH   5  42
TORSDOF 9
ENDMDL
MODEL 4
REMARK VINA RESULT:     -10.0      1.728      4.554
REMARK  Name = 102515002
REMARK  9 active torsions:
REMARK  status: ('A' for Active; 'I' for Inactive)
REMARK    1  A    between atoms: O_1  and  C_21
REMARK    2  A    between atoms: O_1  and  C_26
REMARK    3  A    between atoms: O_6  and  C_33
REMARK    4  A    between atoms: O_6  and  C_34
REMARK    5  A    between atoms: C_22  and  C_28
REMARK    6  A    between atoms: C_25  and  C_32
REMARK    7  A    between atoms: C_31  and  C_40
REMARK    8  A    between atoms: C_39  and  C_44
REMARK    9  A    between atoms: C_47  and  C_48
REMARK                            x       y       z     vdW  Elec       q    Type
REMARK                         _______ _______ _______ _____ _____    ______ ____
ROOT
ATOM      1  O   UNL     1     110.072 127.673 138.064  0.00  0.00    +0.000 OA
ATOM      2  O   UNL     1     112.925 127.243 137.835  0.00  0.00    +0.000 OA
ATOM      3  O   UNL     1     110.549 126.445 137.475  0.00  0.00    +0.000 OA
ATOM      4  C   UNL     1     110.982 128.670 138.532  0.00  0.00    +0.000 A 
ATOM      5  C   UNL     1     111.756 128.932 138.650  0.00  0.00    +0.000 A 
ATOM      6  C   UNL     1     110.845 127.935 138.183  0.00  0.00    +0.000 A 
ATOM      7  C   UNL     1     111.481 127.463 137.952  0.00  0.00    +0.000 A 
ATOM      8  C   UNL     1     112.391 128.460 138.420  0.00  0.00    +0.000 A 
ATOM      9  C   UNL     1     112.254 127.725 138.071  0.00  0.00    +0.000 A 
ATOM     10  C   UNL     1     111.325 126.700 137.590  0.00  0.00    +0.000 A 
ATOM     11  C   UNL     1     111.984 126.203 137.348  0.00  0.00    +0.000 A 
ATOM     12  C   UNL     1     112.789 126.476 137.471  0.00  0.00    +0.000 A 
ENDROOT
BRANCH   4  17
ATOM     13  O   UNL     1     109.975 129.009 139.487  0.00  0.00    +0.000 OA
ATOM     14  O   UNL     1     109.181 130.825 138.005  0.00  0.00    +0.000 OA
ATOM     15  O   UNL     1     108.438 130.558 139.454  0.00  0.00    +0.000 OA
ATOM     16  C   UNL     1     110.081 129.748 138.269  0.00  0.00    +0.000 C 
ATOM     17  C   UNL     1     110.346 129.142 138.762  0.00  0.00    +0.000 C 
ATOM     18  C   UNL     1     109.446 130.220 138.499  0.00  0.00    +0.000 C 
ATOM     19  C   UNL     1     109.074 130.087 139.224  0.00  0.00    +0.000 C 
ATOM     20  C   UNL     1     109.338 129.481 139.718  0.00  0.00    +0.000 C 
BRANCH  20  22
ATOM     21  O   UNL     1     109.409 129.088 141.090  0.00  0.00    +0.000 OA
ATOM     22  C   UNL     1     108.967 129.347 140.442  0.00  0.00    +0.000 C 
ENDBRANCH  20  22
BRANCH  16  23
ATOM     23  O   UNL     1     110.453 129.881 137.544  0.00  0.00    +0.000 OA
BRANCH  23  28
ATOM     24  O   UNL     1     109.352 129.527 136.704  0.00  0.00    +0.000 OA
ATOM     25  O   UNL     1     110.845 131.108 136.513  0.00  0.00    +0.000 OA
ATOM     26  O   UNL     1     109.940 131.369 135.158  0.00  0.00    +0.000 OA
ATOM     27  O   UNL     1     108.644 130.401 134.834  0.00  0.00    +0.000 OA
ATOM     28  C   UNL     1     110.001 130.011 136.866  0.00  0.00    +0.000 C 
ATOM     29  C   UNL     1     110.196 130.624 136.351  0.00  0.00    +0.000 C 
ATOM     30  C   UNL     1     109.744 130.754 135.673  0.00  0.00    +0.000 C 
ATOM     31  C   UNL     1     109.096 130.271 135.511  0.00  0.00    +0.000 C 
ATOM     32  C   UNL     1     108.900 129.657 136.026  0.00  0.00    +0.000 C 
BRANCH  32  34
ATOM     33  O   UNL     1     108.359 128.362 135.759  0.00  0.00    +0.000 OA
ATOM     34  C   UNL     1     108.252 129.173 135.864  0.00  0.00    +0.000 C 
ENDBRANCH  32  34
ENDBRANCH  23  28
ENDBRANCH  16  23
ENDBRANCH   4  17
BRANCH  12  36
ATOM     35  O   UNL     1     115.339 124.596 136.552  0.00  0.00    +0.000 OA
ATOM     36  C   UNL     1     113.426 126.006 137.241  0.00  0.00    +0.000 A 
ATOM     37  C   UNL     1     113.751 126.092 136.488  0.00  0.00    +0.000 A 
ATOM     38  C   UNL     1     113.738 125.450 137.765  0.00  0.00    +0.000 A 
ATOM     39  C   UNL     1     114.389 125.622 136.259  0.00  0.00    +0.000 A 
ATOM     40  C   UNL     1     114.377 124.979 137.535  0.00  0.00    +0.000 A 
ATOM     41  C   UNL     1     114.702 125.066 136.781  0.00  0.00    +0.000 A 
ENDBRANCH  12  36
BRANCH   5  42
ATOM     42  O   UNL     1     111.892 129.667 139.000  0.00  0.00    +0.000 OA
BRANCH  42  47
ATOM     43  O   UNL     1     112.616 129.319 140.182  0.00  0.00    +0.000 OA
ATOM     44  O   UNL     1     113.045 130.786 138.623  0.00  0.00    +0.000 OA
ATOM     45  O   UNL     1     114.345 130.998 139.616  0.00  0.00    +0.000 OA
ATOM     46  O   UNL     1     114.493 130.090 140.986  0.00  0.00    +0.000 OA
ATOM     47  C   UNL     1     112.542 129.773 139.496  0.00  0.00    +0.000 C 
ATOM     48  C   UNL     1     113.119 130.332 139.309  0.00  0.00    +0.000 C 
ATOM     49  C   UNL     1     113.769 130.438 139.805  0.00  0.00    +0.000 C 
ATOM     50  C   UNL     1     113.843 129.984 140.490  0.00  0.00    +0.000 C 
ATOM     51  C   UNL     1     113.267 129.425 140.679  0.00  0.00    +0.000 C 
BRANCH  51  53
ATOM     52  O   UNL     1     112.677 128.814 141.828  0.00  0.00    +0.000 OA
ATOM     53  C   UNL     1     113.340 128.971 141.363  0.00  0.00    +0.000 C 
ENDBRANCH  51  53
ENDBRANCH  42  47
ENDBRANCH   5  42
TORSDOF 9
ENDMDL
MODEL 5
REMARK VINA RESULT:      -9.9      1.733      5.653
REMARK  Name = 102515002
REMARK  9 active torsions:
REMARK  status: ('A' for Active; 'I' for Inactive)
REMARK    1  A    between atoms: O_1  and  C_21
REMARK    2  A    between atoms: O_1  and  C_26
REMARK    3  A    between atoms: O_6  and  C_33
REMARK    4  A    between atoms: O_6  and  C_34
REMARK    5  A    between atoms: C_22  and  C_28
REMARK    6  A    between atoms: C_25  and  C_32
REMARK    7  A    between atoms: C_31  and  C_40
REMARK    8  A    between atoms: C_39  and  C_44
REMARK    9  A    between atoms: C_47  and  C_48
REMARK                            x       y       z     vdW  Elec       q    Type
REMARK                         _______ _______ _______ _____ _____    ______ ____
ROOT
ATOM      1  O   UNL     1     111.104 128.083 140.061  0.00  0.00    +0.000 OA
ATOM      2  O   UNL     1     111.811 126.753 137.589  0.00  0.00    +0.000 OA
ATOM      3  O   UNL     1     111.569 126.717 140.110  0.00  0.00    +0.000 OA
ATOM      4  C   UNL     1     110.990 128.780 138.819  0.00  0.00    +0.000 A 
ATOM      5  C   UNL     1     111.068 128.794 137.998  0.00  0.00    +0.000 A 
ATOM      6  C   UNL     1     111.182 128.097 139.240  0.00  0.00    +0.000 A 
ATOM      7  C   UNL     1     111.453 127.428 138.839  0.00  0.00    +0.000 A 
ATOM      8  C   UNL     1     111.338 128.126 137.598  0.00  0.00    +0.000 A 
ATOM      9  C   UNL     1     111.531 127.442 138.018  0.00  0.00    +0.000 A 
ATOM     10  C   UNL     1     111.650 126.723 139.288  0.00  0.00    +0.000 A 
ATOM     11  C   UNL     1     111.932 126.023 138.877  0.00  0.00    +0.000 A 
ATOM     12  C   UNL     1     112.013 126.038 138.022  0.00  0.00    +0.000 A 
ENDROOT
BRANCH   4  17
ATOM     13  O   UNL     1     109.928 129.501 139.448  0.00  0.00    +0.000 OA
ATOM     14  O   UNL     1     111.490 131.349 139.966  0.00  0.00    +0.000 OA
ATOM     15  O   UNL     1     109.908 131.454 140.422  0.00  0.00    +0.000 OA
ATOM     16  C   UNL     1     111.240 130.065 139.393  0.00  0.00    +0.000 C 
ATOM     17  C   UNL     1     110.719 129.449 139.220  0.00  0.00    +0.000 C 
ATOM     18  C   UNL     1     110.969 130.733 139.794  0.00  0.00    +0.000 C 
ATOM     19  C   UNL     1     110.178 130.786 140.022  0.00  0.00    +0.000 C 
ATOM     20  C   UNL     1     109.658 130.170 139.849  0.00  0.00    +0.000 C 
BRANCH  20  22
ATOM     21  O   UNL     1     108.275 129.922 139.584  0.00  0.00    +0.000 OA
ATOM     22  C   UNL     1     108.866 130.221 140.076  0.00  0.00    +0.000 C 
ENDBRANCH  20  22
BRANCH  16  23
ATOM     23  O   UNL     1     112.031 130.012 139.165  0.00  0.00    +0.000 OA
BRANCH  23  28
ATOM     24  O   UNL     1     112.524 129.954 140.506  0.00  0.00    +0.000 OA
ATOM     25  O   UNL     1     113.436 130.727 138.679  0.00  0.00    +0.000 OA
ATOM     26  O   UNL     1     114.632 131.027 139.775  0.00  0.00    +0.000 OA
ATOM     27  O   UNL     1     114.422 130.612 141.358  0.00  0.00    +0.000 OA
ATOM     28  C   UNL     1     112.629 130.162 139.713  0.00  0.00    +0.000 C 
ATOM     29  C   UNL     1     113.332 130.520 139.471  0.00  0.00    +0.000 C 
ATOM     30  C   UNL     1     113.929 130.670 140.019  0.00  0.00    +0.000 C 
ATOM     31  C   UNL     1     113.825 130.462 140.810  0.00  0.00    +0.000 C 
ATOM     32  C   UNL     1     113.122 130.104 141.054  0.00  0.00    +0.000 C 
BRANCH  32  34
ATOM     33  O   UNL     1     112.937 129.103 142.056  0.00  0.00    +0.000 OA
ATOM     34  C   UNL     1     113.017 129.897 141.845  0.00  0.00    +0.000 C 
ENDBRANCH  32  34
ENDBRANCH  23  28
ENDBRANCH  16  23
ENDBRANCH   4  17
BRANCH  12  36
ATOM     35  O   UNL     1     113.095 123.370 136.410  0.00  0.00    +0.000 OA
ATOM     36  C   UNL     1     112.283 125.371 137.619  0.00  0.00    +0.000 A 
ATOM     37  C   UNL     1     113.090 125.273 137.480  0.00  0.00    +0.000 A 
ATOM     38  C   UNL     1     111.746 124.802 137.355  0.00  0.00    +0.000 A 
ATOM     39  C   UNL     1     113.361 124.605 137.077  0.00  0.00    +0.000 A 
ATOM     40  C   UNL     1     112.017 124.135 136.952  0.00  0.00    +0.000 A 
ATOM     41  C   UNL     1     112.825 124.037 136.813  0.00  0.00    +0.000 A 
ENDBRANCH  12  36
BRANCH   5  42
ATOM     42  O   UNL     1     110.875 129.478 137.578  0.00  0.00    +0.000 OA
BRANCH  42  47
ATOM     43  O   UNL     1     109.829 128.973 136.745  0.00  0.00    +0.000 OA
ATOM     44  O   UNL     1     111.537 130.251 136.279  0.00  0.00    +0.000 OA
ATOM     45  O   UNL     1     110.822 130.133 134.797  0.00  0.00    +0.000 OA
ATOM     46  O   UNL     1     109.445 129.242 134.613  0.00  0.00    +0.000 OA
ATOM     47  C   UNL     1     110.518 129.419 136.837  0.00  0.00    +0.000 C 
ATOM     48  C   UNL     1     110.848 129.805 136.187  0.00  0.00    +0.000 C 
ATOM     49  C   UNL     1     110.490 129.746 135.446  0.00  0.00    +0.000 C 
ATOM     50  C   UNL     1     109.803 129.301 135.354  0.00  0.00    +0.000 C 
ATOM     51  C   UNL     1     109.471 128.914 136.003  0.00  0.00    +0.000 C 
BRANCH  51  53
ATOM     52  O   UNL     1     108.161 128.555 136.446  0.00  0.00    +0.000 OA
ATOM     53  C   UNL     1     108.784 128.468 135.912  0.00  0.00    +0.000 C 
ENDBRANCH  51  53
ENDBRANCH  42  47
ENDBRANCH   5  42
TORSDOF 9
ENDMDL
MODEL 6
REMARK VINA RESULT:      -9.9      2.040      5.304
REMARK  Name = 102515002
REMARK  9 active torsions:
REMARK  status: ('A' for Active; 'I' for Inactive)
REMARK    1  A    between atoms: O_1  and  C_21
REMARK    2  A    between atoms: O_1  and  C_26
REMARK    3  A    between atoms: O_6  and  C_33
REMARK    4  A    between atoms: O_6  and  C_34
REMARK    5  A    between atoms: C_22  and  C_28
REMARK    6  A    between atoms: C_25  and  C_32
REMARK    7  A    between atoms: C_31  and  C_40
REMARK    8  A    between atoms: C_39  and  C_44
REMARK    9  A    between atoms: C_47  and  C_48
REMARK                            x       y       z     vdW  Elec       q    Type
REMARK                         _______ _______ _______ _____ _____    ______ ____
ROOT
ATOM      1  O   UNL     1     111.744 129.758 138.187  0.00  0.00    +0.000 OA
ATOM      2  O   UNL     1     112.331 126.925 138.107  0.00  0.00    +0.000 OA
ATOM      3  O   UNL     1     112.977 129.316 137.581  0.00  0.00    +0.000 OA
ATOM      4  C   UNL     1     110.818 128.822 138.743  0.00  0.00    +0.000 A 
ATOM      5  C   UNL     1     110.605 128.044 138.915  0.00  0.00    +0.000 A 
ATOM      6  C   UNL     1     111.531 128.980 138.359  0.00  0.00    +0.000 A 
ATOM      7  C   UNL     1     112.032 128.359 138.149  0.00  0.00    +0.000 A 
ATOM      8  C   UNL     1     111.105 127.424 138.705  0.00  0.00    +0.000 A 
ATOM      9  C   UNL     1     111.819 127.580 138.321  0.00  0.00    +0.000 A 
ATOM     10  C   UNL     1     112.772 128.535 137.750  0.00  0.00    +0.000 A 
ATOM     11  C   UNL     1     113.298 127.892 137.527  0.00  0.00    +0.000 A 
ATOM     12  C   UNL     1     113.076 127.082 137.707  0.00  0.00    +0.000 A 
ENDROOT
BRANCH   4  17
ATOM     13  O   UNL     1     110.449 129.859 139.654  0.00  0.00    +0.000 OA
ATOM     14  O   UNL     1     108.554 130.475 138.186  0.00  0.00    +0.000 OA
ATOM     15  O   UNL     1     108.817 131.307 139.587  0.00  0.00    +0.000 OA
ATOM     16  C   UNL     1     109.685 129.649 138.464  0.00  0.00    +0.000 C 
ATOM     17  C   UNL     1     110.317 129.444 138.954  0.00  0.00    +0.000 C 
ATOM     18  C   UNL     1     109.186 130.270 138.675  0.00  0.00    +0.000 C 
ATOM     19  C   UNL     1     109.317 130.686 139.376  0.00  0.00    +0.000 C 
ATOM     20  C   UNL     1     109.948 130.481 139.865  0.00  0.00    +0.000 C 
BRANCH  20  22
ATOM     21  O   UNL     1     110.674 130.652 141.084  0.00  0.00    +0.000 OA
ATOM     22  C   UNL     1     110.080 130.896 140.565  0.00  0.00    +0.000 C 
ENDBRANCH  20  22
BRANCH  16  23
ATOM     23  O   UNL     1     109.555 129.233 137.764  0.00  0.00    +0.000 OA
BRANCH  23  28
ATOM     24  O   UNL     1     109.800 130.366 136.928  0.00  0.00    +0.000 OA
ATOM     25  O   UNL     1     108.547 128.605 136.618  0.00  0.00    +0.000 OA
ATOM     26  O   UNL     1     108.288 129.424 135.209  0.00  0.00    +0.000 OA
ATOM     27  O   UNL     1     109.037 130.871 134.946  0.00  0.00    +0.000 OA
ATOM     28  C   UNL     1     109.425 129.642 137.060  0.00  0.00    +0.000 C 
ATOM     29  C   UNL     1     108.922 129.329 136.486  0.00  0.00    +0.000 C 
ATOM     30  C   UNL     1     108.792 129.738 135.782  0.00  0.00    +0.000 C 
ATOM     31  C   UNL     1     109.166 130.461 135.651  0.00  0.00    +0.000 C 
ATOM     32  C   UNL     1     109.670 130.776 136.223  0.00  0.00    +0.000 C 
BRANCH  32  34
ATOM     33  O   UNL     1     110.868 131.547 136.114  0.00  0.00    +0.000 OA
ATOM     34  C   UNL     1     110.044 131.499 136.092  0.00  0.00    +0.000 C 
ENDBRANCH  32  34
ENDBRANCH  23  28
ENDBRANCH  16  23
ENDBRANCH   4  17
BRANCH  12  36
ATOM     35  O   UNL     1     115.070 124.591 136.867  0.00  0.00    +0.000 OA
ATOM     36  C   UNL     1     113.575 126.459 137.497  0.00  0.00    +0.000 A 
ATOM     37  C   UNL     1     113.697 126.280 136.701  0.00  0.00    +0.000 A 
ATOM     38  C   UNL     1     113.950 126.016 138.083  0.00  0.00    +0.000 A 
ATOM     39  C   UNL     1     114.196 125.657 136.492  0.00  0.00    +0.000 A 
ATOM     40  C   UNL     1     114.449 125.393 137.873  0.00  0.00    +0.000 A 
ATOM     41  C   UNL     1     114.571 125.214 137.077  0.00  0.00    +0.000 A 
ENDBRANCH  12  36
BRANCH   5  42
ATOM     42  O   UNL     1     109.891 127.888 139.299  0.00  0.00    +0.000 OA
BRANCH  42  47
ATOM     43  O   UNL     1     110.360 127.327 140.528  0.00  0.00    +0.000 OA
ATOM     44  O   UNL     1     108.806 126.654 139.150  0.00  0.00    +0.000 OA
ATOM     45  O   UNL     1     108.732 125.477 140.304  0.00  0.00    +0.000 OA
ATOM     46  O   UNL     1     109.743 125.534 141.607  0.00  0.00    +0.000 OA
ATOM     47  C   UNL     1     109.854 127.299 139.876  0.00  0.00    +0.000 C 
ATOM     48  C   UNL     1     109.312 126.682 139.802  0.00  0.00    +0.000 C 
ATOM     49  C   UNL     1     109.275 126.094 140.379  0.00  0.00    +0.000 C 
ATOM     50  C   UNL     1     109.780 126.122 141.030  0.00  0.00    +0.000 C 
ATOM     51  C   UNL     1     110.323 126.739 141.105  0.00  0.00    +0.000 C 
BRANCH  51  53
ATOM     52  O   UNL     1     110.942 127.478 142.159  0.00  0.00    +0.000 OA
ATOM     53  C   UNL     1     110.828 126.767 141.755  0.00  0.00    +0.000 C 
ENDBRANCH  51  53
ENDBRANCH  42  47
ENDBRANCH   5  42
TORSDOF 9
ENDMDL
MODEL 7
REMARK VINA RESULT:      -9.8      2.296      5.087
REMARK  Name = 102515002
REMARK  9 active torsions:
REMARK  status: ('A' for Active; 'I' for Inactive)
REMARK    1  A    between atoms: O_1  and  C_21
REMARK    2  A    between atoms: O_1  and  C_26
REMARK    3  A    between atoms: O_6  and  C_33
REMARK    4  A    between atoms: O_6  and  C_34
REMARK    5  A    between atoms: C_22  and  C_28
REMARK    6  A    between atoms: C_25  and  C_32
REMARK    7  A    between atoms: C_31  and  C_40
REMARK    8  A    between atoms: C_39  and  C_44
REMARK    9  A    between atoms: C_47  and  C_48
REMARK                            x       y       z     vdW  Elec       q    Type
REMARK                         _______ _______ _______ _____ _____    ______ ____
ROOT
ATOM      1  O   UNL     1     111.921 128.228 139.496  0.00  0.00    +0.000 OA
ATOM      2  O   UNL     1     112.386 129.710 137.054  0.00  0.00    +0.000 OA
ATOM      3  O   UNL     1     113.240 128.217 138.912  0.00  0.00    +0.000 OA
ATOM      4  C   UNL     1     110.851 128.955 138.889  0.00  0.00    +0.000 A 
ATOM      5  C   UNL     1     110.570 129.441 138.285  0.00  0.00    +0.000 A 
ATOM      6  C   UNL     1     111.640 128.714 138.892  0.00  0.00    +0.000 A 
ATOM      7  C   UNL     1     112.148 128.960 138.290  0.00  0.00    +0.000 A 
ATOM      8  C   UNL     1     111.077 129.687 137.684  0.00  0.00    +0.000 A 
ATOM      9  C   UNL     1     111.867 129.447 137.686  0.00  0.00    +0.000 A 
ATOM     10  C   UNL     1     112.967 128.703 138.304  0.00  0.00    +0.000 A 
ATOM     11  C   UNL     1     113.502 128.956 137.680  0.00  0.00    +0.000 A 
ATOM     12  C   UNL     1     113.209 129.463 137.051  0.00  0.00    +0.000 A 
ENDROOT
BRANCH   4  17
ATOM     13  O   UNL     1     109.990 127.963 139.454  0.00  0.00    +0.000 OA
ATOM     14  O   UNL     1     109.524 129.460 141.370  0.00  0.00    +0.000 OA
ATOM     15  O   UNL     1     108.819 127.970 141.296  0.00  0.00    +0.000 OA
ATOM     16  C   UNL     1     110.187 129.207 140.130  0.00  0.00    +0.000 C 
ATOM     17  C   UNL     1     110.342 128.708 139.492  0.00  0.00    +0.000 C 
ATOM     18  C   UNL     1     109.679 128.961 140.731  0.00  0.00    +0.000 C 
ATOM     19  C   UNL     1     109.326 128.216 140.695  0.00  0.00    +0.000 C 
ATOM     20  C   UNL     1     109.482 127.717 140.056  0.00  0.00    +0.000 C 
BRANCH  20  22
ATOM     21  O   UNL     1     109.013 126.608 139.287  0.00  0.00    +0.000 OA
ATOM     22  C   UNL     1     109.130 126.972 140.019  0.00  0.00    +0.000 C 
ENDBRANCH  20  22
BRANCH  16  23
ATOM     23  O   UNL     1     110.540 129.952 140.166  0.00  0.00    +0.000 OA
BRANCH  23  28
ATOM     24  O   UNL     1     111.337 129.671 141.319  0.00  0.00    +0.000 OA
ATOM     25  O   UNL     1     110.388 131.521 140.654  0.00  0.00    +0.000 OA
ATOM     26  O   UNL     1     111.108 132.024 142.051  0.00  0.00    +0.000 OA
ATOM     27  O   UNL     1     111.981 130.959 142.959  0.00  0.00    +0.000 OA
ATOM     28  C   UNL     1     110.900 130.204 140.865  0.00  0.00    +0.000 C 
ATOM     29  C   UNL     1     110.824 130.988 141.109  0.00  0.00    +0.000 C 
ATOM     30  C   UNL     1     111.185 131.240 141.807  0.00  0.00    +0.000 C 
ATOM     31  C   UNL     1     111.621 130.707 142.261  0.00  0.00    +0.000 C 
ATOM     32  C   UNL     1     111.697 129.922 142.018  0.00  0.00    +0.000 C 
BRANCH  32  34
ATOM     33  O   UNL     1     112.799 129.023 142.150  0.00  0.00    +0.000 OA
ATOM     34  C   UNL     1     112.133 129.390 142.471  0.00  0.00    +0.000 C 
ENDBRANCH  32  34
ENDBRANCH  23  28
ENDBRANCH  16  23
ENDBRANCH   4  17
BRANCH  12  36
ATOM     35  O   UNL     1     115.233 130.454 134.640  0.00  0.00    +0.000 OA
ATOM     36  C   UNL     1     113.715 129.710 136.448  0.00  0.00    +0.000 A 
ATOM     37  C   UNL     1     114.151 130.405 136.536  0.00  0.00    +0.000 A 
ATOM     38  C   UNL     1     113.784 129.263 135.758  0.00  0.00    +0.000 A 
ATOM     39  C   UNL     1     114.657 130.653 135.933  0.00  0.00    +0.000 A 
ATOM     40  C   UNL     1     114.291 129.512 135.155  0.00  0.00    +0.000 A 
ATOM     41  C   UNL     1     114.727 130.206 135.243  0.00  0.00    +0.000 A 
ENDBRANCH  12  36
BRANCH   5  42
ATOM     42  O   UNL     1     109.780 129.681 138.284  0.00  0.00    +0.000 OA
BRANCH  42  47
ATOM     43  O   UNL     1     109.289 129.102 137.072  0.00  0.00    +0.000 OA
ATOM     44  O   UNL     1     109.136 131.137 137.849  0.00  0.00    +0.000 OA
ATOM     45  O   UNL     1     108.324 131.286 136.420  0.00  0.00    +0.000 OA
ATOM     46  O   UNL     1     108.155 129.980 135.427  0.00  0.00    +0.000 OA
ATOM     47  C   UNL     1     109.374 129.756 137.569  0.00  0.00    +0.000 C 
ATOM     48  C   UNL     1     109.052 130.483 137.351  0.00  0.00    +0.000 C 
ATOM     49  C   UNL     1     108.645 130.558 136.637  0.00  0.00    +0.000 C 
ATOM     50  C   UNL     1     108.561 129.905 136.141  0.00  0.00    +0.000 C 
ATOM     51  C   UNL     1     108.883 129.177 136.358  0.00  0.00    +0.000 C 
BRANCH  51  53
ATOM     52  O   UNL     1     108.547 127.801 136.169  0.00  0.00    +0.000 OA
ATOM     53  C   UNL     1     108.799 128.524 135.862  0.00  0.00    +0.000 C 
ENDBRANCH  51  53
ENDBRANCH  42  47
ENDBRANCH   5  42
TORSDOF 9
ENDMDL
MODEL 8
REMARK VINA RESULT:      -9.8      1.936      3.894
REMARK  Name = 102515002
REMARK  9 active torsions:
REMARK  status: ('A' for Active; 'I' for Inactive)
REMARK    1  A    between atoms: O_1  and  C_21
REMARK    2  A    between atoms: O_1  and  C_26
REMARK    3  A    between atoms: O_6  and  C_33
REMARK    4  A    between atoms: O_6  and  C_34
REMARK    5  A    between atoms: C_22  and  C_28
REMARK    6  A    between atoms: C_25  and  C_32
REMARK    7  A    between atoms: C_31  and  C_40
REMARK    8  A    between atoms: C_39  and  C_44
REMARK    9  A    between atoms: C_47  and  C_48
REMARK                            x       y       z     vdW  Elec       q    Type
REMARK                         _______ _______ _______ _____ _____    ______ ____
ROOT
ATOM      1  O   UNL     1     111.794 130.769 139.819  0.00  0.00    +0.000 OA
ATOM      2  O   UNL     1     110.664 130.520 137.166  0.00  0.00    +0.000 OA
ATOM      3  O   UNL     1     110.589 131.497 139.500  0.00  0.00    +0.000 OA
ATOM      4  C   UNL     1     112.430 129.934 138.849  0.00  0.00    +0.000 A 
ATOM      5  C   UNL     1     112.457 129.615 138.089  0.00  0.00    +0.000 A 
ATOM      6  C   UNL     1     111.821 130.449 139.059  0.00  0.00    +0.000 A 
ATOM      7  C   UNL     1     111.238 130.644 138.508  0.00  0.00    +0.000 A 
ATOM      8  C   UNL     1     111.874 129.809 137.539  0.00  0.00    +0.000 A 
ATOM      9  C   UNL     1     111.264 130.325 137.748  0.00  0.00    +0.000 A 
ATOM     10  C   UNL     1     110.608 131.182 138.738  0.00  0.00    +0.000 A 
ATOM     11  C   UNL     1     109.998 131.389 138.169  0.00  0.00    +0.000 A 
ATOM     12  C   UNL     1     110.026 131.056 137.378  0.00  0.00    +0.000 A 
ENDROOT
BRANCH   4  17
ATOM     13  O   UNL     1     113.652 130.247 139.520  0.00  0.00    +0.000 OA
ATOM     14  O   UNL     1     113.483 128.141 140.809  0.00  0.00    +0.000 OA
ATOM     15  O   UNL     1     114.761 129.155 141.051  0.00  0.00    +0.000 OA
ATOM     16  C   UNL     1     112.957 129.037 139.829  0.00  0.00    +0.000 C 
ATOM     17  C   UNL     1     113.013 129.739 139.400  0.00  0.00    +0.000 C 
ATOM     18  C   UNL     1     113.539 128.843 140.379  0.00  0.00    +0.000 C 
ATOM     19  C   UNL     1     114.179 129.350 140.501  0.00  0.00    +0.000 C 
ATOM     20  C   UNL     1     114.235 130.052 140.071  0.00  0.00    +0.000 C 
BRANCH  20  22
ATOM     21  O   UNL     1     114.752 131.376 140.224  0.00  0.00    +0.000 OA
ATOM     22  C   UNL     1     114.874 130.560 140.192  0.00  0.00    +0.000 C 
ENDBRANCH  20  22
BRANCH  16  23
ATOM     23  O   UNL     1     112.317 128.530 139.708  0.00  0.00    +0.000 OA
BRANCH  23  28
ATOM     24  O   UNL     1     111.739 128.671 141.007  0.00  0.00    +0.000 OA
ATOM     25  O   UNL     1     111.899 126.934 139.694  0.00  0.00    +0.000 OA
ATOM     26  O   UNL     1     111.112 126.276 140.987  0.00  0.00    +0.000 OA
ATOM     27  O   UNL     1     110.743 127.215 142.293  0.00  0.00    +0.000 OA
ATOM     28  C   UNL     1     111.924 128.201 140.354  0.00  0.00    +0.000 C 
ATOM     29  C   UNL     1     111.715 127.404 140.348  0.00  0.00    +0.000 C 
ATOM     30  C   UNL     1     111.321 127.075 140.994  0.00  0.00    +0.000 C 
ATOM     31  C   UNL     1     111.137 127.544 141.646  0.00  0.00    +0.000 C 
ATOM     32  C   UNL     1     111.345 128.342 141.654  0.00  0.00    +0.000 C 
BRANCH  32  34
ATOM     33  O   UNL     1     110.639 129.445 142.224  0.00  0.00    +0.000 OA
ATOM     34  C   UNL     1     111.161 128.811 142.306  0.00  0.00    +0.000 C 
ENDBRANCH  32  34
ENDBRANCH  23  28
ENDBRANCH  16  23
ENDBRANCH   4  17
BRANCH  12  36
ATOM     35  O   UNL     1     107.699 131.828 135.169  0.00  0.00    +0.000 OA
ATOM     36  C   UNL     1     109.444 131.249 136.826  0.00  0.00    +0.000 A 
ATOM     37  C   UNL     1     108.777 130.770 136.746  0.00  0.00    +0.000 A 
ATOM     38  C   UNL     1     109.530 131.921 136.354  0.00  0.00    +0.000 A 
ATOM     39  C   UNL     1     108.196 130.963 136.193  0.00  0.00    +0.000 A 
ATOM     40  C   UNL     1     108.948 132.113 135.802  0.00  0.00    +0.000 A 
ATOM     41  C   UNL     1     108.281 131.634 135.722  0.00  0.00    +0.000 A 
ENDBRANCH  12  36
BRANCH   5  42
ATOM     42  O   UNL     1     113.067 129.100 137.880  0.00  0.00    +0.000 OA
BRANCH  42  47
ATOM     43  O   UNL     1     113.716 129.839 136.843  0.00  0.00    +0.000 OA
ATOM     44  O   UNL     1     113.072 127.754 136.924  0.00  0.00    +0.000 OA
ATOM     45  O   UNL     1     113.724 127.821 135.410  0.00  0.00    +0.000 OA
ATOM     46  O   UNL     1     114.370 129.233 134.851  0.00  0.00    +0.000 OA
ATOM     47  C   UNL     1     113.393 129.133 137.122  0.00  0.00    +0.000 C 
ATOM     48  C   UNL     1     113.396 128.461 136.644  0.00  0.00    +0.000 C 
ATOM     49  C   UNL     1     113.722 128.494 135.887  0.00  0.00    +0.000 C 
ATOM     50  C   UNL     1     114.044 129.199 135.608  0.00  0.00    +0.000 C 
ATOM     51  C   UNL     1     114.042 129.872 136.085  0.00  0.00    +0.000 C 
BRANCH  51  53
ATOM     52  O   UNL     1     114.831 131.044 136.303  0.00  0.00    +0.000 OA
ATOM     53  C   UNL     1     114.364 130.578 135.806  0.00  0.00    +0.000 C 
ENDBRANCH  51  53
ENDBRANCH  42  47
ENDBRANCH   5  42
TORSDOF 9
ENDMDL
MODEL 9
REMARK VINA RESULT:      -9.8      2.014      4.138
REMARK  Name = 102515002
REMARK  9 active torsions:
REMARK  status: ('A' for Active; 'I' for Inactive)
REMARK    1  A    between atoms: O_1  and  C_21
REMARK    2  A    between atoms: O_1  and  C_26
REMARK    3  A    between atoms: O_6  and  C_33
REMARK    4  A    between atoms: O_6  and  C_34
REMARK    5  A    between atoms: C_22  and  C_28
REMARK    6  A    between atoms: C_25  and  C_32
REMARK    7  A    between atoms: C_31  and  C_40
REMARK    8  A    between atoms: C_39  and  C_44
REMARK    9  A    between atoms: C_47  and  C_48
REMARK                            x       y       z     vdW  Elec       q    Type
REMARK                         _______ _______ _______ _____ _____    ______ ____
ROOT
ATOM      1  O   UNL     1     111.075 128.187 139.555  0.00  0.00    +0.000 OA
ATOM      2  O   UNL     1     110.514 130.077 137.435  0.00  0.00    +0.000 OA
ATOM      3  O   UNL     1     109.702 128.439 139.187  0.00  0.00    +0.000 OA
ATOM      4  C   UNL     1     112.151 128.854 138.891  0.00  0.00    +0.000 A 
ATOM      5  C   UNL     1     112.418 129.386 138.320  0.00  0.00    +0.000 A 
ATOM      6  C   UNL     1     111.342 128.720 138.984  0.00  0.00    +0.000 A 
ATOM      7  C   UNL     1     110.800 129.121 138.507  0.00  0.00    +0.000 A 
ATOM      8  C   UNL     1     111.877 129.786 137.844  0.00  0.00    +0.000 A 
ATOM      9  C   UNL     1     111.068 129.654 137.937  0.00  0.00    +0.000 A 
ATOM     10  C   UNL     1     109.961 128.974 138.614  0.00  0.00    +0.000 A 
ATOM     11  C   UNL     1     109.392 129.388 138.121  0.00  0.00    +0.000 A 
ATOM     12  C   UNL     1     109.670 129.943 137.527  0.00  0.00    +0.000 A 
ENDROOT
BRANCH   4  17
ATOM     13  O   UNL     1     112.922 127.685 139.175  0.00  0.00    +0.000 OA
ATOM     14  O   UNL     1     113.856 128.789 141.183  0.00  0.00    +0.000 OA
ATOM     15  O   UNL     1     114.316 127.252 140.798  0.00  0.00    +0.000 OA
ATOM     16  C   UNL     1     113.004 128.821 140.037  0.00  0.00    +0.000 C 
ATOM     17  C   UNL     1     112.693 128.453 139.368  0.00  0.00    +0.000 C 
ATOM     18  C   UNL     1     113.545 128.421 140.514  0.00  0.00    +0.000 C 
ATOM     19  C   UNL     1     113.776 127.652 140.321  0.00  0.00    +0.000 C 
ATOM     20  C   UNL     1     113.464 127.284 139.652  0.00  0.00    +0.000 C 
BRANCH  20  22
ATOM     21  O   UNL     1     113.604 126.241 138.685  0.00  0.00    +0.000 OA
ATOM     22  C   UNL     1     113.694 126.516 139.458  0.00  0.00    +0.000 C 
ENDBRANCH  20  22
BRANCH  16  23
ATOM     23  O   UNL     1     112.773 129.590 140.230  0.00  0.00    +0.000 OA
BRANCH  23  28
ATOM     24  O   UNL     1     112.125 129.248 141.457  0.00  0.00    +0.000 OA
ATOM     25  O   UNL     1     113.263 131.022 140.887  0.00  0.00    +0.000 OA
ATOM     26  O   UNL     1     112.860 131.396 142.442  0.00  0.00    +0.000 OA
ATOM     27  O   UNL     1     111.968 130.339 143.341  0.00  0.00    +0.000 OA
ATOM     28  C   UNL     1     112.572 129.777 141.007  0.00  0.00    +0.000 C 
ATOM     29  C   UNL     1     112.816 130.493 141.337  0.00  0.00    +0.000 C 
ATOM     30  C   UNL     1     112.615 130.680 142.114  0.00  0.00    +0.000 C 
ATOM     31  C   UNL     1     112.169 130.151 142.563  0.00  0.00    +0.000 C 
ATOM     32  C   UNL     1     111.924 129.435 142.235  0.00  0.00    +0.000 C 
BRANCH  32  34
ATOM     33  O   UNL     1     110.703 128.731 142.464  0.00  0.00    +0.000 OA
ATOM     34  C   UNL     1     111.478 128.906 142.684  0.00  0.00    +0.000 C 
ENDBRANCH  32  34
ENDBRANCH  23  28
ENDBRANCH  16  23
ENDBRANCH   4  17
BRANCH  12  36
ATOM     35  O   UNL     1     107.513 131.549 135.616  0.00  0.00    +0.000 OA
ATOM     36  C   UNL     1     109.131 130.344 137.049  0.00  0.00    +0.000 A 
ATOM     37  C   UNL     1     108.856 131.089 137.274  0.00  0.00    +0.000 A 
ATOM     38  C   UNL     1     108.866 130.001 136.347  0.00  0.00    +0.000 A 
ATOM     39  C   UNL     1     108.317 131.490 136.796  0.00  0.00    +0.000 A 
ATOM     40  C   UNL     1     108.327 130.403 135.869  0.00  0.00    +0.000 A 
ATOM     41  C   UNL     1     108.052 131.148 136.094  0.00  0.00    +0.000 A 
ENDBRANCH  12  36
BRANCH   5  42
ATOM     42  O   UNL     1     113.227 129.519 138.227  0.00  0.00    +0.000 OA
BRANCH  42  47
ATOM     43  O   UNL     1     113.456 129.044 136.898  0.00  0.00    +0.000 OA
ATOM     44  O   UNL     1     114.032 130.914 137.867  0.00  0.00    +0.000 OA
ATOM     45  O   UNL     1     114.662 131.137 136.359  0.00  0.00    +0.000 OA
ATOM     46  O   UNL     1     114.488 129.965 135.211  0.00  0.00    +0.000 OA
ATOM     47  C   UNL     1     113.543 129.630 137.473  0.00  0.00    +0.000 C 
ATOM     48  C   UNL     1     113.945 130.328 137.293  0.00  0.00    +0.000 C 
ATOM     49  C   UNL     1     114.260 130.439 136.538  0.00  0.00    +0.000 C 
ATOM     50  C   UNL     1     114.173 129.854 135.965  0.00  0.00    +0.000 C 
ATOM     51  C   UNL     1     113.771 129.156 136.144  0.00  0.00    +0.000 C 
BRANCH  51  53
ATOM     52  O   UNL     1     113.730 127.774 135.782  0.00  0.00    +0.000 OA
ATOM     53  C   UNL     1     113.684 128.570 135.570  0.00  0.00    +0.000 C 
ENDBRANCH  51  53
ENDBRANCH  42  47
ENDBRANCH   5  42
TORSDOF 9
ENDMDL
MODEL 10
REMARK VINA RESULT:      -9.8      1.833      5.157
REMARK  Name = 102515002
REMARK  9 active torsions:
REMARK  status: ('A' for Active; 'I' for Inactive)
REMARK    1  A    between atoms: O_1  and  C_21
REMARK    2  A    between atoms: O_1  and  C_26
REMARK    3  A    between atoms: O_6  and  C_33
REMARK    4  A    between atoms: O_6  and  C_34
REMARK    5  A    between atoms: C_22  and  C_28
REMARK    6  A    between atoms: C_25  and  C_32
REMARK    7  A    between atoms: C_31  and  C_40
REMARK    8  A    between atoms: C_39  and  C_44
REMARK    9  A    between atoms: C_47  and  C_48
REMARK                            x       y       z     vdW  Elec       q    Type
REMARK                         _______ _______ _______ _____ _____    ______ ____
ROOT
ATOM      1  O   UNL     1     111.330 128.349 141.563  0.00  0.00    +0.000 OA
ATOM      2  O   UNL     1     111.683 127.471 138.828  0.00  0.00    +0.000 OA
ATOM      3  O   UNL     1     111.501 126.941 141.297  0.00  0.00    +0.000 OA
ATOM      4  C   UNL     1     111.332 129.306 140.502  0.00  0.00    +0.000 A 
ATOM      5  C   UNL     1     111.391 129.482 139.698  0.00  0.00    +0.000 A 
ATOM      6  C   UNL     1     111.388 128.525 140.759  0.00  0.00    +0.000 A 
ATOM      7  C   UNL     1     111.504 127.918 140.211  0.00  0.00    +0.000 A 
ATOM      8  C   UNL     1     111.506 128.876 139.151  0.00  0.00    +0.000 A 
ATOM      9  C   UNL     1     111.563 128.094 139.407  0.00  0.00    +0.000 A 
ATOM     10  C   UNL     1     111.561 127.108 140.491  0.00  0.00    +0.000 A 
ATOM     11  C   UNL     1     111.681 126.471 139.926  0.00  0.00    +0.000 A 
ATOM     12  C   UNL     1     111.743 126.654 139.089  0.00  0.00    +0.000 A 
ENDROOT
BRANCH   4  17
ATOM     13  O   UNL     1     111.860 130.224 141.461  0.00  0.00    +0.000 OA
ATOM     14  O   UNL     1     109.585 131.109 141.868  0.00  0.00    +0.000 OA
ATOM     15  O   UNL     1     110.871 131.732 142.692  0.00  0.00    +0.000 OA
ATOM     16  C   UNL     1     110.458 130.208 141.185  0.00  0.00    +0.000 C 
ATOM     17  C   UNL     1     111.217 129.913 141.050  0.00  0.00    +0.000 C 
ATOM     18  C   UNL     1     110.343 130.814 141.733  0.00  0.00    +0.000 C 
ATOM     19  C   UNL     1     110.986 131.126 142.145  0.00  0.00    +0.000 C 
ATOM     20  C   UNL     1     111.745 130.831 142.009  0.00  0.00    +0.000 C 
BRANCH  20  22
ATOM     21  O   UNL     1     113.099 131.287 142.026  0.00  0.00    +0.000 OA
ATOM     22  C   UNL     1     112.388 131.142 142.421  0.00  0.00    +0.000 C 
ENDBRANCH  20  22
BRANCH  16  23
ATOM     23  O   UNL     1     109.815 129.896 140.773  0.00  0.00    +0.000 OA
BRANCH  23  28
ATOM     24  O   UNL     1     109.175 129.334 141.921  0.00  0.00    +0.000 OA
ATOM     25  O   UNL     1     108.340 130.198 140.098  0.00  0.00    +0.000 OA
ATOM     26  O   UNL     1     106.962 129.787 140.909  0.00  0.00    +0.000 OA
ATOM     27  O   UNL     1     107.060 129.074 142.394  0.00  0.00    +0.000 OA
ATOM     28  C   UNL     1     109.126 129.691 141.178  0.00  0.00    +0.000 C 
ATOM     29  C   UNL     1     108.389 129.841 140.842  0.00  0.00    +0.000 C 
ATOM     30  C   UNL     1     107.700 129.636 141.247  0.00  0.00    +0.000 C 
ATOM     31  C   UNL     1     107.749 129.280 141.989  0.00  0.00    +0.000 C 
ATOM     32  C   UNL     1     108.486 129.129 142.327  0.00  0.00    +0.000 C 
BRANCH  32  34
ATOM     33  O   UNL     1     108.829 128.005 143.139  0.00  0.00    +0.000 OA
ATOM     34  C   UNL     1     108.535 128.773 143.068  0.00  0.00    +0.000 C 
ENDBRANCH  32  34
ENDBRANCH  23  28
ENDBRANCH  16  23
ENDBRANCH   4  17
BRANCH  12  36
ATOM     35  O   UNL     1     112.205 124.237 136.891  0.00  0.00    +0.000 OA
ATOM     36  C   UNL     1     111.858 126.050 138.539  0.00  0.00    +0.000 A 
ATOM     37  C   UNL     1     112.616 125.891 138.256  0.00  0.00    +0.000 A 
ATOM     38  C   UNL     1     111.216 125.605 138.274  0.00  0.00    +0.000 A 
ATOM     39  C   UNL     1     112.732 125.286 137.706  0.00  0.00    +0.000 A 
ATOM     40  C   UNL     1     111.332 125.000 137.724  0.00  0.00    +0.000 A 
ATOM     41  C   UNL     1     112.090 124.841 137.441  0.00  0.00    +0.000 A 
ENDBRANCH  12  36
BRANCH   5  42
ATOM     42  O   UNL     1     111.334 130.264 139.442  0.00  0.00    +0.000 OA
BRANCH  42  47
ATOM     43  O   UNL     1     112.624 130.470 138.861  0.00  0.00    +0.000 OA
ATOM     44  O   UNL     1     110.626 130.906 138.097  0.00  0.00    +0.000 OA
ATOM     45  O   UNL     1     111.561 131.432 136.844  0.00  0.00    +0.000 OA
ATOM     46  O   UNL     1     113.205 131.317 136.935  0.00  0.00    +0.000 OA
ATOM     47  C   UNL     1     111.802 130.528 138.815  0.00  0.00    +0.000 C 
ATOM     48  C   UNL     1     111.449 130.848 138.143  0.00  0.00    +0.000 C 
ATOM     49  C   UNL     1     111.916 131.112 137.516  0.00  0.00    +0.000 C 
ATOM     50  C   UNL     1     112.737 131.054 137.562  0.00  0.00    +0.000 C 
ATOM     51  C   UNL     1     113.092 130.733 138.235  0.00  0.00    +0.000 C 
BRANCH  51  53
ATOM     52  O   UNL     1     114.304 130.893 138.974  0.00  0.00    +0.000 OA
ATOM     53  C   UNL     1     113.913 130.676 138.281  0.00  0.00    +0.000 C 
ENDBRANCH  51  53
ENDBRANCH  42  47
ENDBRANCH   5  42
TORSDOF 9
ENDMDL
